#       Name:                EN300-195674_i001
#       Creating user name   aseyller
#       Creation time:       Fri Apr 21 19:55:54 2023


#       File generated by GOLD software.
#

@<TRIPOS>MOLECULE
EN300-195674_i001|benzaldehydes|mol2|988|dock9
    14    14     1
SMALL
USER_CHARGES


@<TRIPOS>ATOM
      1 F1          32.1000  34.6378  37.8718 F              1 <1>                0.0000
      2 C2          31.5291  35.8356  37.6182 C.ar           1 <1>                0.0000
      3 C3          30.5906  36.3544  38.4895 C.ar           1 <1>                0.0000
      4 C4          30.0047  37.5808  38.2327 C.ar           1 <1>                0.0000
      5 C5          30.3514  38.3007  37.1022 C.ar           1 <1>                0.0000
      6 Br6         29.5414  39.9761  36.7664 Br             1 <1>                0.0000
      7 C7          31.2881  37.7988  36.2184 C.ar           1 <1>                0.0000
      8 F8          31.6252  38.5028  35.1157 F              1 <1>                0.0000
      9 C9          31.8913  36.5589  36.4732 C.ar           1 <1>                0.0000
     10 C10         32.8874  36.0166  35.5412 C.2            1 <1>                0.0000
     11 O11         33.2916  36.6969  34.6220 O.2            1 <1>                0.0000
     12 H12         30.3131  35.8002  39.3740 H              1 <1>                0.0000
     13 H13         29.2717  37.9793  38.9185 H              1 <1>                0.0000
     14 H14         33.2605  35.0118  35.6741 H              1 <1>                0.0000
@<TRIPOS>BOND
    1    1    2 1     
    2    2    3 ar    
    3    2    9 ar    
    4    3    4 ar    
    5    3   12 1     
    6    4    5 ar    
    7    4   13 1     
    8    5    6 1     
    9    5    7 ar    
   10    7    8 1     
   11    7    9 ar    
   12    9   10 1     
   13   10   11 2     
   14   10   14 1     
@<TRIPOS>SUBSTRUCTURE
      1 ****           1
@<TRIPOS>COMMENT
> <Gold.Version>
2022.2.0

> <Gold.Id.Protein>
1qkm|1qkm_protein|mol2

> <Gold.Protein.RotatedTorsions>
[  496  491  490  487 ] final -154.13 input  -89.99 | X-H torsion

> <Gold.Protein.ActiveResidues>
 MET295  LEU298  THR299  LEU301  ALA302  GLU305  TRP335  MET336  LEU339  MET340 
 GLY342  LEU343  ARG346  PHE356  ILE373  ILE376  PHE377  LEU380  LYS471  GLY472 
 MET473  HIS475  LEU476  LEU477  ASN478  MET479  VAL484  VAL487 

> <Gold.Protein.RotatedAtoms>
   37.2511   33.8552   40.7298 H   0  0  0  0  0  0  0  0  0  0  0  0  # atno 496  bound_to 491 

> <Gold.Score>
     Score     S(PLP)   S(hbond)     S(cho)   S(metal)  DE(clash)   DE(tors)     intcor
     37.85     -37.87       0.00       0.00       0.00       0.00       0.01       0.01

> <Gold.PLP.Fitness>
37.8495

> <Gold.PLP.PLP>
-37.8676

> <Gold.PLP.part.hbond>
0.0000

> <Gold.PLP.part.metal>
0.0000

> <Gold.PLP.part.buried>
-2.5740

> <Gold.PLP.part.nonpolar>
-35.5026

> <Gold.PLP.part.repulsive>
0.1798

> <Gold.PLP.ligand.clash>
0.0000

> <Gold.PLP.ligand.torsion>
0.0116

> <Gold.PLP.Chemscore.Hbond>
0.0000

> <Gold.PLP.Chemscore.CHOScore>
0.0000

> <Gold.PLP.Chemscore.Metal>
0.0000

> <Gold.PLP.Chemscore.Internal.Correction>
0.0052

