#       Name:                EN300-195674_i001
#       Creating user name   aseyller
#       Creation time:       Fri Apr 21 19:55:54 2023


#       File generated by GOLD software.
#

@<TRIPOS>MOLECULE
EN300-195674_i001|benzaldehydes|mol2|988|dock10
    14    14     1
SMALL
USER_CHARGES


@<TRIPOS>ATOM
      1 F1          28.0009  35.5156  41.2240 F              1 <1>                0.0000
      2 C2          28.3785  36.1953  40.1192 C.ar           1 <1>                0.0000
      3 C3          29.6841  36.1224  39.6730 C.ar           1 <1>                0.0000
      4 C4          30.0734  36.8168  38.5418 C.ar           1 <1>                0.0000
      5 C5          29.1611  37.5909  37.8455 C.ar           1 <1>                0.0000
      6 Br6         29.7097  38.5333  36.3006 Br             1 <1>                0.0000
      7 C7          27.8504  37.6767  38.2758 C.ar           1 <1>                0.0000
      8 F8          26.9615  38.4327  37.5949 F              1 <1>                0.0000
      9 C9          27.4453  36.9721  39.4183 C.ar           1 <1>                0.0000
     10 C10         26.0557  37.0561  39.8840 C.2            1 <1>                0.0000
     11 O11         25.7466  36.5855  40.9584 O.2            1 <1>                0.0000
     12 H12         30.4034  35.5215  40.2096 H              1 <1>                0.0000
     13 H13         31.0959  36.7549  38.1998 H              1 <1>                0.0000
     14 H14         25.3086  37.5370  39.2701 H              1 <1>                0.0000
@<TRIPOS>BOND
    1    1    2 1     
    2    2    3 ar    
    3    2    9 ar    
    4    3    4 ar    
    5    3   12 1     
    6    4    5 ar    
    7    4   13 1     
    8    5    6 1     
    9    5    7 ar    
   10    7    8 1     
   11    7    9 ar    
   12    9   10 1     
   13   10   11 2     
   14   10   14 1     
@<TRIPOS>SUBSTRUCTURE
      1 ****           1
@<TRIPOS>COMMENT
> <Gold.Version>
2022.2.0

> <Gold.Id.Protein>
1qkm|1qkm_protein|mol2

> <Gold.Protein.RotatedTorsions>
[  496  491  490  487 ] final  171.98 input  -89.99 | X-H torsion

> <Gold.Protein.ActiveResidues>
 MET295  LEU298  THR299  LEU301  ALA302  GLU305  TRP335  MET336  LEU339  MET340 
 GLY342  LEU343  ARG346  PHE356  ILE373  ILE376  PHE377  LEU380  LYS471  GLY472 
 MET473  HIS475  LEU476  LEU477  ASN478  MET479  VAL484  VAL487 

> <Gold.Protein.RotatedAtoms>
   37.3171   33.3516   40.9400 H   0  0  0  0  0  0  0  0  0  0  0  0  # atno 496  bound_to 491 

> <Gold.Score>
     Score     S(PLP)   S(hbond)     S(cho)   S(metal)  DE(clash)   DE(tors)     intcor
     38.92     -38.95       0.00       0.00       0.00       0.00       0.02       0.01

> <Gold.PLP.Fitness>
38.9195

> <Gold.PLP.PLP>
-38.9507

> <Gold.PLP.part.hbond>
0.0000

> <Gold.PLP.part.metal>
0.0000

> <Gold.PLP.part.buried>
-2.5530

> <Gold.PLP.part.nonpolar>
-36.1082

> <Gold.PLP.part.repulsive>
0.1819

> <Gold.PLP.ligand.clash>
0.0000

> <Gold.PLP.ligand.torsion>
0.0182

> <Gold.PLP.Chemscore.Hbond>
0.0000

> <Gold.PLP.Chemscore.CHOScore>
0.0000

> <Gold.PLP.Chemscore.Metal>
0.0000

> <Gold.PLP.Chemscore.Internal.Correction>
0.0052

