#       Name:                EN300-195674_i001
#       Creating user name   aseyller
#       Creation time:       Fri Apr 21 19:55:53 2023


#       File generated by GOLD software.
#

@<TRIPOS>MOLECULE
EN300-195674_i001|benzaldehydes|mol2|988|dock5
    14    14     1
SMALL
USER_CHARGES


@<TRIPOS>ATOM
      1 F1          31.7980  33.8726  38.8024 F              1 <1>                0.0000
      2 C2          31.7931  34.9107  37.9378 C.ar           1 <1>                0.0000
      3 C3          32.6308  34.9014  36.8390 C.ar           1 <1>                0.0000
      4 C4          32.6275  35.9626  35.9518 C.ar           1 <1>                0.0000
      5 C5          31.7868  37.0436  36.1544 C.ar           1 <1>                0.0000
      6 Br6         31.7946  38.4858  34.9315 Br             1 <1>                0.0000
      7 C7          30.9415  37.0717  37.2476 C.ar           1 <1>                0.0000
      8 F8          30.1217  38.1275  37.4437 F              1 <1>                0.0000
      9 C9          30.9339  35.9980  38.1494 C.ar           1 <1>                0.0000
     10 C10         30.0401  36.0175  39.3137 C.2            1 <1>                0.0000
     11 O11         29.2484  36.9255  39.4554 O.2            1 <1>                0.0000
     12 H12         33.2906  34.0628  36.6724 H              1 <1>                0.0000
     13 H13         33.2856  35.9479  35.0955 H              1 <1>                0.0000
     14 H14         30.0873  35.2234  40.0441 H              1 <1>                0.0000
@<TRIPOS>BOND
    1    1    2 1     
    2    2    3 ar    
    3    2    9 ar    
    4    3    4 ar    
    5    3   12 1     
    6    4    5 ar    
    7    4   13 1     
    8    5    6 1     
    9    5    7 ar    
   10    7    8 1     
   11    7    9 ar    
   12    9   10 1     
   13   10   11 2     
   14   10   14 1     
@<TRIPOS>SUBSTRUCTURE
      1 ****           1
@<TRIPOS>COMMENT
> <Gold.Version>
2022.2.0

> <Gold.Id.Protein>
1qkm|1qkm_protein|mol2

> <Gold.Protein.RotatedTorsions>
[  496  491  490  487 ] final   20.32 input  -89.99 | X-H torsion

> <Gold.Protein.ActiveResidues>
 MET295  LEU298  THR299  LEU301  ALA302  GLU305  TRP335  MET336  LEU339  MET340 
 GLY342  LEU343  ARG346  PHE356  ILE373  ILE376  PHE377  LEU380  LYS471  GLY472 
 MET473  HIS475  LEU476  LEU477  ASN478  MET479  VAL484  VAL487 

> <Gold.Protein.RotatedAtoms>
   36.3036   33.9070   42.3575 H   0  0  0  0  0  0  0  0  0  0  0  0  # atno 496  bound_to 491 

> <Gold.Score>
     Score     S(PLP)   S(hbond)     S(cho)   S(metal)  DE(clash)   DE(tors)     intcor
     38.24     -38.24       0.00       0.00       0.00       0.00       0.00       0.01

> <Gold.PLP.Fitness>
38.2423

> <Gold.PLP.PLP>
-38.2450

> <Gold.PLP.part.hbond>
0.0000

> <Gold.PLP.part.metal>
0.0000

> <Gold.PLP.part.buried>
-2.4445

> <Gold.PLP.part.nonpolar>
-36.3246

> <Gold.PLP.part.repulsive>
0.0467

> <Gold.PLP.ligand.clash>
0.0000

> <Gold.PLP.ligand.torsion>
0.0039

> <Gold.PLP.Chemscore.Hbond>
0.0000

> <Gold.PLP.Chemscore.CHOScore>
0.0000

> <Gold.PLP.Chemscore.Metal>
0.0000

> <Gold.PLP.Chemscore.Internal.Correction>
0.0052

