#       Name:                EN300-195674_i001
#       Creating user name   aseyller
#       Creation time:       Fri Apr 21 19:55:52 2023


#       File generated by GOLD software.
#

@<TRIPOS>MOLECULE
EN300-195674_i001|benzaldehydes|mol2|988|dock1
    14    14     1
SMALL
USER_CHARGES


@<TRIPOS>ATOM
      1 F1          33.6002  36.6716  34.9008 F              1 <1>                0.0000
      2 C2          32.4904  37.2839  35.3684 C.ar           1 <1>                0.0000
      3 C3          31.8853  38.2815  34.6284 C.ar           1 <1>                0.0000
      4 C4          30.7486  38.9097  35.1045 C.ar           1 <1>                0.0000
      5 C5          30.2057  38.5468  36.3251 C.ar           1 <1>                0.0000
      6 Br6         28.6510  39.4153  36.9608 Br             1 <1>                0.0000
      7 C7          30.7963  37.5511  37.0802 C.ar           1 <1>                0.0000
      8 F8          30.2650  37.1982  38.2712 F              1 <1>                0.0000
      9 C9          31.9457  36.9049  36.6034 C.ar           1 <1>                0.0000
     10 C10         32.5809  35.8460  37.3972 C.2            1 <1>                0.0000
     11 O11         32.0544  35.4540  38.4171 O.2            1 <1>                0.0000
     12 H12         32.3015  38.5721  33.6752 H              1 <1>                0.0000
     13 H13         30.2818  39.6889  34.5202 H              1 <1>                0.0000
     14 H14         33.5171  35.4160  37.0731 H              1 <1>                0.0000
@<TRIPOS>BOND
    1    1    2 1     
    2    2    3 ar    
    3    2    9 ar    
    4    3    4 ar    
    5    3   12 1     
    6    4    5 ar    
    7    4   13 1     
    8    5    6 1     
    9    5    7 ar    
   10    7    8 1     
   11    7    9 ar    
   12    9   10 1     
   13   10   11 2     
   14   10   14 1     
@<TRIPOS>SUBSTRUCTURE
      1 ****           1
@<TRIPOS>COMMENT
> <Gold.Version>
2022.2.0

> <Gold.Id.Protein>
1qkm|1qkm_protein|mol2

> <Gold.Protein.RotatedTorsions>
[  496  491  490  487 ] final   17.05 input  -89.99 | X-H torsion

> <Gold.Protein.ActiveResidues>
 MET295  LEU298  THR299  LEU301  ALA302  GLU305  TRP335  MET336  LEU339  MET340 
 GLY342  LEU343  ARG346  PHE356  ILE373  ILE376  PHE377  LEU380  LYS471  GLY472 
 MET473  HIS475  LEU476  LEU477  ASN478  MET479  VAL484  VAL487 

> <Gold.Protein.RotatedAtoms>
   36.2922   33.9580   42.3445 H   0  0  0  0  0  0  0  0  0  0  0  0  # atno 496  bound_to 491 

> <Gold.Score>
     Score     S(PLP)   S(hbond)     S(cho)   S(metal)  DE(clash)   DE(tors)     intcor
     38.60     -38.61       0.00       0.00       0.00       0.00       0.01       0.01

> <Gold.PLP.Fitness>
38.6021

> <Gold.PLP.PLP>
-38.6107

> <Gold.PLP.part.hbond>
0.0000

> <Gold.PLP.part.metal>
0.0000

> <Gold.PLP.part.buried>
-2.1846

> <Gold.PLP.part.nonpolar>
-36.1873

> <Gold.PLP.part.repulsive>
0.0708

> <Gold.PLP.ligand.clash>
0.0000

> <Gold.PLP.ligand.torsion>
0.0070

> <Gold.PLP.Chemscore.Hbond>
0.0000

> <Gold.PLP.Chemscore.CHOScore>
0.0000

> <Gold.PLP.Chemscore.Metal>
0.0000

> <Gold.PLP.Chemscore.Internal.Correction>
0.0055

