#       Name:                EN300-195674_i001
#       Creating user name   aseyller
#       Creation time:       Fri Apr 21 19:55:54 2023


#       File generated by GOLD software.
#

@<TRIPOS>MOLECULE
EN300-195674_i001|benzaldehydes|mol2|988|dock8
    14    14     1
SMALL
USER_CHARGES


@<TRIPOS>ATOM
      1 F1          31.3421  36.0833  38.5011 F              1 <1>                0.0000
      2 C2          30.0311  36.3615  38.6712 C.ar           1 <1>                0.0000
      3 C3          29.2993  35.6908  39.6324 C.ar           1 <1>                0.0000
      4 C4          27.9569  35.9740  39.8091 C.ar           1 <1>                0.0000
      5 C5          27.3329  36.9304  39.0266 C.ar           1 <1>                0.0000
      6 Br6         25.4972  37.3056  39.2817 Br             1 <1>                0.0000
      7 C7          28.0477  37.6121  38.0597 C.ar           1 <1>                0.0000
      8 F8          27.4370  38.5452  37.2971 F              1 <1>                0.0000
      9 C9          29.4101  37.3357  37.8770 C.ar           1 <1>                0.0000
     10 C10         30.1788  38.0539  36.8531 C.2            1 <1>                0.0000
     11 O11         31.3776  37.8902  36.7687 O.2            1 <1>                0.0000
     12 H12         29.7770  34.9427  40.2475 H              1 <1>                0.0000
     13 H13         27.3918  35.4451  40.5623 H              1 <1>                0.0000
     14 H14         29.6768  38.7280  36.1748 H              1 <1>                0.0000
@<TRIPOS>BOND
    1    1    2 1     
    2    2    3 ar    
    3    2    9 ar    
    4    3    4 ar    
    5    3   12 1     
    6    4    5 ar    
    7    4   13 1     
    8    5    6 1     
    9    5    7 ar    
   10    7    8 1     
   11    7    9 ar    
   12    9   10 1     
   13   10   11 2     
   14   10   14 1     
@<TRIPOS>SUBSTRUCTURE
      1 ****           1
@<TRIPOS>COMMENT
> <Gold.Version>
2022.2.0

> <Gold.Id.Protein>
1qkm|1qkm_protein|mol2

> <Gold.Protein.RotatedTorsions>
[  496  491  490  487 ] final -105.05 input  -89.99 | X-H torsion

> <Gold.Protein.ActiveResidues>
 MET295  LEU298  THR299  LEU301  ALA302  GLU305  TRP335  MET336  LEU339  MET340 
 GLY342  LEU343  ARG346  PHE356  ILE373  ILE376  PHE377  LEU380  LYS471  GLY472 
 MET473  HIS475  LEU476  LEU477  ASN478  MET479  VAL484  VAL487 

> <Gold.Protein.RotatedAtoms>
   36.8958   34.5277   40.9178 H   0  0  0  0  0  0  0  0  0  0  0  0  # atno 496  bound_to 491 

> <Gold.Score>
     Score     S(PLP)   S(hbond)     S(cho)   S(metal)  DE(clash)   DE(tors)     intcor
     37.31     -37.32       0.00       0.00       0.00       0.00       0.01       0.01

> <Gold.PLP.Fitness>
37.3069

> <Gold.PLP.PLP>
-37.3190

> <Gold.PLP.part.hbond>
0.0000

> <Gold.PLP.part.metal>
0.0000

> <Gold.PLP.part.buried>
-1.6216

> <Gold.PLP.part.nonpolar>
-35.7432

> <Gold.PLP.part.repulsive>
0.0000

> <Gold.PLP.ligand.clash>
0.0000

> <Gold.PLP.ligand.torsion>
0.0086

> <Gold.PLP.Chemscore.Hbond>
0.0000

> <Gold.PLP.Chemscore.CHOScore>
0.0000

> <Gold.PLP.Chemscore.Metal>
0.0000

> <Gold.PLP.Chemscore.Internal.Correction>
0.0052

