#       Name:                EN300-195674_i001
#       Creating user name   aseyller
#       Creation time:       Fri Apr 21 19:55:55 2023


#       File generated by GOLD software.
#

@<TRIPOS>MOLECULE
EN300-195674_i001|benzaldehydes|mol2|988|dock13
    14    14     1
SMALL
USER_CHARGES


@<TRIPOS>ATOM
      1 F1          30.3386  38.7925  36.3864 F              1 <1>                0.0000
      2 C2          29.3243  38.3196  37.1432 C.ar           1 <1>                0.0000
      3 C3          28.0539  38.8454  37.0065 C.ar           1 <1>                0.0000
      4 C4          27.0135  38.3628  37.7796 C.ar           1 <1>                0.0000
      5 C5          27.2328  37.3496  38.6971 C.ar           1 <1>                0.0000
      6 Br6         25.7991  36.7010  39.7457 Br             1 <1>                0.0000
      7 C7          28.4964  36.8105  38.8487 C.ar           1 <1>                0.0000
      8 F8          28.7085  35.8217  39.7446 F              1 <1>                0.0000
      9 C9          29.5562  37.2896  38.0656 C.ar           1 <1>                0.0000
     10 C10         30.9022  36.7240  38.2184 C.2            1 <1>                0.0000
     11 O11         31.0582  35.6851  38.8247 O.2            1 <1>                0.0000
     12 H12         27.8728  39.6364  36.2938 H              1 <1>                0.0000
     13 H13         26.0234  38.7795  37.6670 H              1 <1>                0.0000
     14 H14         31.7535  37.2328  37.7909 H              1 <1>                0.0000
@<TRIPOS>BOND
    1    1    2 1     
    2    2    3 ar    
    3    2    9 ar    
    4    3    4 ar    
    5    3   12 1     
    6    4    5 ar    
    7    4   13 1     
    8    5    6 1     
    9    5    7 ar    
   10    7    8 1     
   11    7    9 ar    
   12    9   10 1     
   13   10   11 2     
   14   10   14 1     
@<TRIPOS>SUBSTRUCTURE
      1 ****           1
@<TRIPOS>COMMENT
> <Gold.Version>
2022.2.0

> <Gold.Id.Protein>
1qkm|1qkm_protein|mol2

> <Gold.Protein.RotatedTorsions>
[  496  491  490  487 ] final  -58.71 input  -89.99 | X-H torsion

> <Gold.Protein.ActiveResidues>
 MET295  LEU298  THR299  LEU301  ALA302  GLU305  TRP335  MET336  LEU339  MET340 
 GLY342  LEU343  ARG346  PHE356  ILE373  ILE376  PHE377  LEU380  LYS471  GLY472 
 MET473  HIS475  LEU476  LEU477  ASN478  MET479  VAL484  VAL487 

> <Gold.Protein.RotatedAtoms>
   36.4871   34.7300   41.5033 H   0  0  0  0  0  0  0  0  0  0  0  0  # atno 496  bound_to 491 

> <Gold.Score>
     Score     S(PLP)   S(hbond)     S(cho)   S(metal)  DE(clash)   DE(tors)     intcor
     37.03     -37.10       0.00       0.00       0.00       0.00       0.04       0.01

> <Gold.PLP.Fitness>
37.0264

> <Gold.PLP.PLP>
-37.1048

> <Gold.PLP.part.hbond>
0.0000

> <Gold.PLP.part.metal>
0.0000

> <Gold.PLP.part.buried>
-1.8602

> <Gold.PLP.part.nonpolar>
-35.1867

> <Gold.PLP.part.repulsive>
0.0864

> <Gold.PLP.ligand.clash>
0.0000

> <Gold.PLP.ligand.torsion>
0.0418

> <Gold.PLP.Chemscore.Hbond>
0.0000

> <Gold.PLP.Chemscore.CHOScore>
0.0000

> <Gold.PLP.Chemscore.Metal>
0.0000

> <Gold.PLP.Chemscore.Internal.Correction>
0.0052

