#       Name:                EN300-195674_i001
#       Creating user name   aseyller
#       Creation time:       Fri Apr 21 19:55:56 2023


#       File generated by GOLD software.
#

@<TRIPOS>MOLECULE
EN300-195674_i001|benzaldehydes|mol2|988|dock15
    14    14     1
SMALL
USER_CHARGES


@<TRIPOS>ATOM
      1 F1          29.4794  36.1284  39.7765 F              1 <1>                0.0000
      2 C2          30.1978  36.4946  38.6926 C.ar           1 <1>                0.0000
      3 C3          29.9768  37.7215  38.0967 C.ar           1 <1>                0.0000
      4 C4          30.7112  38.0992  36.9871 C.ar           1 <1>                0.0000
      5 C5          31.6738  37.2542  36.4622 C.ar           1 <1>                0.0000
      6 Br6         32.6693  37.7864  34.9452 Br             1 <1>                0.0000
      7 C7          31.9098  36.0228  37.0440 C.ar           1 <1>                0.0000
      8 F8          32.8498  35.1994  36.5303 F              1 <1>                0.0000
      9 C9          31.1741  35.6334  38.1723 C.ar           1 <1>                0.0000
     10 C10         31.4167  34.3278  38.7980 C.2            1 <1>                0.0000
     11 O11         32.1006  33.5016  38.2317 O.2            1 <1>                0.0000
     12 H12         29.2277  38.3877  38.4985 H              1 <1>                0.0000
     13 H13         30.5321  39.0598  36.5270 H              1 <1>                0.0000
     14 H14         30.9863  34.1030  39.7626 H              1 <1>                0.0000
@<TRIPOS>BOND
    1    1    2 1     
    2    2    3 ar    
    3    2    9 ar    
    4    3    4 ar    
    5    3   12 1     
    6    4    5 ar    
    7    4   13 1     
    8    5    6 1     
    9    5    7 ar    
   10    7    8 1     
   11    7    9 ar    
   12    9   10 1     
   13   10   11 2     
   14   10   14 1     
@<TRIPOS>SUBSTRUCTURE
      1 ****           1
@<TRIPOS>COMMENT
> <Gold.Version>
2022.2.0

> <Gold.Id.Protein>
1qkm|1qkm_protein|mol2

> <Gold.Protein.RotatedTorsions>
[  496  491  490  487 ] final  -63.53 input  -89.99 | X-H torsion

> <Gold.Protein.ActiveResidues>
 MET295  LEU298  THR299  LEU301  ALA302  GLU305  TRP335  MET336  LEU339  MET340 
 GLY342  LEU343  ARG346  PHE356  ILE373  ILE376  PHE377  LEU380  LYS471  GLY472 
 MET473  HIS475  LEU476  LEU477  ASN478  MET479  VAL484  VAL487 

> <Gold.Protein.RotatedAtoms>
   36.5248   34.7354   41.4337 H   0  0  0  0  0  0  0  0  0  0  0  0  # atno 496  bound_to 491 

> <Gold.Score>
     Score     S(PLP)   S(hbond)     S(cho)   S(metal)  DE(clash)   DE(tors)     intcor
     38.32     -38.38       0.00       0.00       0.00       0.00       0.03       0.01

> <Gold.PLP.Fitness>
38.3221

> <Gold.PLP.PLP>
-38.3771

> <Gold.PLP.part.hbond>
0.0000

> <Gold.PLP.part.metal>
0.0000

> <Gold.PLP.part.buried>
-2.4329

> <Gold.PLP.part.nonpolar>
-36.1681

> <Gold.PLP.part.repulsive>
0.0435

> <Gold.PLP.ligand.clash>
0.0000

> <Gold.PLP.ligand.torsion>
0.0301

> <Gold.PLP.Chemscore.Hbond>
0.0000

> <Gold.PLP.Chemscore.CHOScore>
0.0000

> <Gold.PLP.Chemscore.Metal>
0.0000

> <Gold.PLP.Chemscore.Internal.Correction>
0.0052

