#       Name:                EN300-195674_i001
#       Creating user name   aseyller
#       Creation time:       Fri Apr 21 19:55:55 2023


#       File generated by GOLD software.
#

@<TRIPOS>MOLECULE
EN300-195674_i001|benzaldehydes|mol2|988|dock14
    14    14     1
SMALL
USER_CHARGES


@<TRIPOS>ATOM
      1 F1          29.8601  39.6609  36.8819 F              1 <1>                0.0000
      2 C2          30.3414  38.4196  37.1114 C.ar           1 <1>                0.0000
      3 C3          30.0310  37.7621  38.2863 C.ar           1 <1>                0.0000
      4 C4          30.5220  36.4909  38.5236 C.ar           1 <1>                0.0000
      5 C5          31.3282  35.8645  37.5887 C.ar           1 <1>                0.0000
      6 Br6         31.9905  34.1263  37.9287 Br             1 <1>                0.0000
      7 C7          31.6501  36.5056  36.4072 C.ar           1 <1>                0.0000
      8 F8          32.4369  35.8927  35.4959 F              1 <1>                0.0000
      9 C9          31.1526  37.7922  36.1555 C.ar           1 <1>                0.0000
     10 C10         31.4882  38.4821  34.9040 C.2            1 <1>                0.0000
     11 O11         32.1431  37.9146  34.0553 O.2            1 <1>                0.0000
     12 H12         29.4032  38.2425  39.0221 H              1 <1>                0.0000
     13 H13         30.2751  35.9839  39.4447 H              1 <1>                0.0000
     14 H14         31.1518  39.4950  34.7388 H              1 <1>                0.0000
@<TRIPOS>BOND
    1    1    2 1     
    2    2    3 ar    
    3    2    9 ar    
    4    3    4 ar    
    5    3   12 1     
    6    4    5 ar    
    7    4   13 1     
    8    5    6 1     
    9    5    7 ar    
   10    7    8 1     
   11    7    9 ar    
   12    9   10 1     
   13   10   11 2     
   14   10   14 1     
@<TRIPOS>SUBSTRUCTURE
      1 ****           1
@<TRIPOS>COMMENT
> <Gold.Version>
2022.2.0

> <Gold.Id.Protein>
1qkm|1qkm_protein|mol2

> <Gold.Protein.RotatedTorsions>
[  496  491  490  487 ] final  137.53 input  -89.99 | X-H torsion

> <Gold.Protein.ActiveResidues>
 MET295  LEU298  THR299  LEU301  ALA302  GLU305  TRP335  MET336  LEU339  MET340 
 GLY342  LEU343  ARG346  PHE356  ILE373  ILE376  PHE377  LEU380  LYS471  GLY472 
 MET473  HIS475  LEU476  LEU477  ASN478  MET479  VAL484  VAL487 

> <Gold.Protein.RotatedAtoms>
   37.2003   33.0096   41.3659 H   0  0  0  0  0  0  0  0  0  0  0  0  # atno 496  bound_to 491 

> <Gold.Score>
     Score     S(PLP)   S(hbond)     S(cho)   S(metal)  DE(clash)   DE(tors)     intcor
     37.71     -37.71       0.00       0.00       0.00       0.00       0.00       0.01

> <Gold.PLP.Fitness>
37.7094

> <Gold.PLP.PLP>
-37.7113

> <Gold.PLP.part.hbond>
0.0000

> <Gold.PLP.part.metal>
0.0000

> <Gold.PLP.part.buried>
-2.3747

> <Gold.PLP.part.nonpolar>
-35.9173

> <Gold.PLP.part.repulsive>
0.1579

> <Gold.PLP.ligand.clash>
0.0019

> <Gold.PLP.ligand.torsion>
0.0026

> <Gold.PLP.Chemscore.Hbond>
0.0000

> <Gold.PLP.Chemscore.CHOScore>
0.0000

> <Gold.PLP.Chemscore.Metal>
0.0000

> <Gold.PLP.Chemscore.Internal.Correction>
0.0052

