#       Name:                EN300-195674_i001
#       Creating user name   aseyller
#       Creation time:       Fri Apr 21 19:55:53 2023


#       File generated by GOLD software.
#

@<TRIPOS>MOLECULE
EN300-195674_i001|benzaldehydes|mol2|988|dock4
    14    14     1
SMALL
USER_CHARGES


@<TRIPOS>ATOM
      1 F1          32.0031  38.4563  34.5155 F              1 <1>                0.0000
      2 C2          31.4920  38.0493  35.6980 C.ar           1 <1>                0.0000
      3 C3          30.3861  38.6840  36.2303 C.ar           1 <1>                0.0000
      4 C4          29.8604  38.2692  37.4406 C.ar           1 <1>                0.0000
      5 C5          30.4350  37.2157  38.1307 C.ar           1 <1>                0.0000
      6 Br6         29.7033  36.6609  39.7837 Br             1 <1>                0.0000
      7 C7          31.5417  36.5679  37.6149 C.ar           1 <1>                0.0000
      8 F8          32.1011  35.5399  38.2898 F              1 <1>                0.0000
      9 C9          32.0784  36.9778  36.3861 C.ar           1 <1>                0.0000
     10 C10         33.2535  36.2967  35.8291 C.2            1 <1>                0.0000
     11 O11         33.7609  36.7027  34.8050 O.2            1 <1>                0.0000
     12 H12         29.9309  39.5072  35.6997 H              1 <1>                0.0000
     13 H13         28.9960  38.7709  37.8501 H              1 <1>                0.0000
     14 H14         33.6662  35.4343  36.3313 H              1 <1>                0.0000
@<TRIPOS>BOND
    1    1    2 1     
    2    2    3 ar    
    3    2    9 ar    
    4    3    4 ar    
    5    3   12 1     
    6    4    5 ar    
    7    4   13 1     
    8    5    6 1     
    9    5    7 ar    
   10    7    8 1     
   11    7    9 ar    
   12    9   10 1     
   13   10   11 2     
   14   10   14 1     
@<TRIPOS>SUBSTRUCTURE
      1 ****           1
@<TRIPOS>COMMENT
> <Gold.Version>
2022.2.0

> <Gold.Id.Protein>
1qkm|1qkm_protein|mol2

> <Gold.Protein.RotatedTorsions>
[  496  491  490  487 ] final   60.48 input  -89.99 | X-H torsion

> <Gold.Protein.ActiveResidues>
 MET295  LEU298  THR299  LEU301  ALA302  GLU305  TRP335  MET336  LEU339  MET340 
 GLY342  LEU343  ARG346  PHE356  ILE373  ILE376  PHE377  LEU380  LYS471  GLY472 
 MET473  HIS475  LEU476  LEU477  ASN478  MET479  VAL484  VAL487 

> <Gold.Protein.RotatedAtoms>
   36.5555   33.3131   42.3000 H   0  0  0  0  0  0  0  0  0  0  0  0  # atno 496  bound_to 491 

> <Gold.Score>
     Score     S(PLP)   S(hbond)     S(cho)   S(metal)  DE(clash)   DE(tors)     intcor
     36.78     -36.79       0.00       0.00       0.00       0.01       0.00       0.01

> <Gold.PLP.Fitness>
36.7760

> <Gold.PLP.PLP>
-36.7864

> <Gold.PLP.part.hbond>
0.0000

> <Gold.PLP.part.metal>
0.0000

> <Gold.PLP.part.buried>
-2.6177

> <Gold.PLP.part.nonpolar>
-34.2851

> <Gold.PLP.part.repulsive>
0.1793

> <Gold.PLP.ligand.clash>
0.0088

> <Gold.PLP.ligand.torsion>
0.0036

> <Gold.PLP.Chemscore.Hbond>
0.0000

> <Gold.PLP.Chemscore.CHOScore>
0.0000

> <Gold.PLP.Chemscore.Metal>
0.0000

> <Gold.PLP.Chemscore.Internal.Correction>
0.0055

