#       Name:                EN300-195674_i001
#       Creating user name   aseyller
#       Creation time:       Fri Apr 21 19:55:54 2023


#       File generated by GOLD software.
#

@<TRIPOS>MOLECULE
EN300-195674_i001|benzaldehydes|mol2|988|dock7
    14    14     1
SMALL
USER_CHARGES


@<TRIPOS>ATOM
      1 F1          33.5993  36.3990  35.1993 F              1 <1>                0.0000
      2 C2          32.7158  36.3977  36.2214 C.ar           1 <1>                0.0000
      3 C3          32.8692  35.5100  37.2690 C.ar           1 <1>                0.0000
      4 C4          31.9664  35.5068  38.3170 C.ar           1 <1>                0.0000
      5 C5          30.9014  36.3911  38.3280 C.ar           1 <1>                0.0000
      6 Br6         29.6768  36.3739  39.7687 Br             1 <1>                0.0000
      7 C7          30.7307  37.2869  37.2893 C.ar           1 <1>                0.0000
      8 F8          29.6908  38.1492  37.3017 F              1 <1>                0.0000
      9 C9          31.6438  37.3012  36.2252 C.ar           1 <1>                0.0000
     10 C10         31.4720  38.2484  35.1170 C.2            1 <1>                0.0000
     11 O11         30.6409  39.1284  35.1947 O.2            1 <1>                0.0000
     12 H12         33.6966  34.8159  37.2694 H              1 <1>                0.0000
     13 H13         32.0931  34.8095  39.1319 H              1 <1>                0.0000
     14 H14         32.0857  38.1618  34.2326 H              1 <1>                0.0000
@<TRIPOS>BOND
    1    1    2 1     
    2    2    3 ar    
    3    2    9 ar    
    4    3    4 ar    
    5    3   12 1     
    6    4    5 ar    
    7    4   13 1     
    8    5    6 1     
    9    5    7 ar    
   10    7    8 1     
   11    7    9 ar    
   12    9   10 1     
   13   10   11 2     
   14   10   14 1     
@<TRIPOS>SUBSTRUCTURE
      1 ****           1
@<TRIPOS>COMMENT
> <Gold.Version>
2022.2.0

> <Gold.Id.Protein>
1qkm|1qkm_protein|mol2

> <Gold.Protein.RotatedTorsions>
[  496  491  490  487 ] final  148.19 input  -89.99 | X-H torsion

> <Gold.Protein.ActiveResidues>
 MET295  LEU298  THR299  LEU301  ALA302  GLU305  TRP335  MET336  LEU339  MET340 
 GLY342  LEU343  ARG346  PHE356  ILE373  ILE376  PHE377  LEU380  LYS471  GLY472 
 MET473  HIS475  LEU476  LEU477  ASN478  MET479  VAL484  VAL487 

> <Gold.Protein.RotatedAtoms>
   37.2550   33.0882   41.2192 H   0  0  0  0  0  0  0  0  0  0  0  0  # atno 496  bound_to 491 

> <Gold.Score>
     Score     S(PLP)   S(hbond)     S(cho)   S(metal)  DE(clash)   DE(tors)     intcor
     38.54     -38.57       0.00       0.00       0.00       0.00       0.02       0.01

> <Gold.PLP.Fitness>
38.5436

> <Gold.PLP.PLP>
-38.5731

> <Gold.PLP.part.hbond>
0.0000

> <Gold.PLP.part.metal>
0.0000

> <Gold.PLP.part.buried>
-2.2783

> <Gold.PLP.part.nonpolar>
-36.4495

> <Gold.PLP.part.repulsive>
0.0000

> <Gold.PLP.ligand.clash>
0.0000

> <Gold.PLP.ligand.torsion>
0.0174

> <Gold.PLP.Chemscore.Hbond>
0.0000

> <Gold.PLP.Chemscore.CHOScore>
0.0000

> <Gold.PLP.Chemscore.Metal>
0.0000

> <Gold.PLP.Chemscore.Internal.Correction>
0.0052

