#       Name:                EN300-195674_i001
#       Creating user name   aseyller
#       Creation time:       Fri Apr 21 19:55:55 2023


#       File generated by GOLD software.
#

@<TRIPOS>MOLECULE
EN300-195674_i001|benzaldehydes|mol2|988|dock11
    14    14     1
SMALL
USER_CHARGES


@<TRIPOS>ATOM
      1 F1          32.3510  36.0957  37.9839 F              1 <1>                0.0000
      2 C2          31.0396  36.3037  38.2333 C.ar           1 <1>                0.0000
      3 C3          30.3578  35.4696  39.0983 C.ar           1 <1>                0.0000
      4 C4          29.0153  35.6805  39.3559 C.ar           1 <1>                0.0000
      5 C5          28.3411  36.7275  38.7511 C.ar           1 <1>                0.0000
      6 Br6         26.5059  37.0021  39.1148 Br             1 <1>                0.0000
      7 C7          29.0055  37.5730  37.8827 C.ar           1 <1>                0.0000
      8 F8          28.3459  38.5942  37.2935 F              1 <1>                0.0000
      9 C9          30.3677  37.3702  37.6196 C.ar           1 <1>                0.0000
     10 C10         31.0831  38.2623  36.6990 C.2            1 <1>                0.0000
     11 O11         30.5272  39.2421  36.2494 O.2            1 <1>                0.0000
     12 H12         30.8748  34.6497  39.5747 H              1 <1>                0.0000
     13 H13         28.4894  35.0237  40.0330 H              1 <1>                0.0000
     14 H14         32.1044  38.0463  36.4222 H              1 <1>                0.0000
@<TRIPOS>BOND
    1    1    2 1     
    2    2    3 ar    
    3    2    9 ar    
    4    3    4 ar    
    5    3   12 1     
    6    4    5 ar    
    7    4   13 1     
    8    5    6 1     
    9    5    7 ar    
   10    7    8 1     
   11    7    9 ar    
   12    9   10 1     
   13   10   11 2     
   14   10   14 1     
@<TRIPOS>SUBSTRUCTURE
      1 ****           1
@<TRIPOS>COMMENT
> <Gold.Version>
2022.2.0

> <Gold.Id.Protein>
1qkm|1qkm_protein|mol2

> <Gold.Protein.RotatedTorsions>
[  496  491  490  487 ] final  141.92 input  -89.99 | X-H torsion

> <Gold.Protein.ActiveResidues>
 MET295  LEU298  THR299  LEU301  ALA302  GLU305  TRP335  MET336  LEU339  MET340 
 GLY342  LEU343  ARG346  PHE356  ILE373  ILE376  PHE377  LEU380  LYS471  GLY472 
 MET473  HIS475  LEU476  LEU477  ASN478  MET479  VAL484  VAL487 

> <Gold.Protein.RotatedAtoms>
   37.2247   33.0386   41.3044 H   0  0  0  0  0  0  0  0  0  0  0  0  # atno 496  bound_to 491 

> <Gold.Score>
     Score     S(PLP)   S(hbond)     S(cho)   S(metal)  DE(clash)   DE(tors)     intcor
     36.64     -36.65       0.00       0.00       0.00       0.00       0.01       0.01

> <Gold.PLP.Fitness>
36.6371

> <Gold.PLP.PLP>
-36.6470

> <Gold.PLP.part.hbond>
0.0000

> <Gold.PLP.part.metal>
0.0000

> <Gold.PLP.part.buried>
-1.8582

> <Gold.PLP.part.nonpolar>
-34.9772

> <Gold.PLP.part.repulsive>
0.0000

> <Gold.PLP.ligand.clash>
0.0000

> <Gold.PLP.ligand.torsion>
0.0075

> <Gold.PLP.Chemscore.Hbond>
0.0000

> <Gold.PLP.Chemscore.CHOScore>
0.0000

> <Gold.PLP.Chemscore.Metal>
0.0000

> <Gold.PLP.Chemscore.Internal.Correction>
0.0052

