#       Name:                EN300-195674_i001
#       Creating user name   aseyller
#       Creation time:       Fri Apr 21 19:55:54 2023


#       File generated by GOLD software.
#

@<TRIPOS>MOLECULE
EN300-195674_i001|benzaldehydes|mol2|988|dock6
    14    14     1
SMALL
USER_CHARGES


@<TRIPOS>ATOM
      1 F1          25.9441  36.5823  40.7757 F              1 <1>                0.0000
      2 C2          26.7725  36.9497  39.7737 C.ar           1 <1>                0.0000
      3 C3          26.2785  37.6419  38.6847 C.ar           1 <1>                0.0000
      4 C4          27.1244  38.0197  37.6575 C.ar           1 <1>                0.0000
      5 C5          28.4725  37.7093  37.7090 C.ar           1 <1>                0.0000
      6 Br6         29.6151  38.2339  36.2966 Br             1 <1>                0.0000
      7 C7          28.9859  37.0174  38.7898 C.ar           1 <1>                0.0000
      8 F8          30.3018  36.7153  38.8383 F              1 <1>                0.0000
      9 C9          28.1371  36.6349  39.8383 C.ar           1 <1>                0.0000
     10 C10         28.6719  35.8998  40.9910 C.2            1 <1>                0.0000
     11 O11         28.2012  36.0771  42.0947 O.2            1 <1>                0.0000
     12 H12         25.2282  37.8884  38.6351 H              1 <1>                0.0000
     13 H13         26.7304  38.5602  36.8096 H              1 <1>                0.0000
     14 H14         29.4842  35.2011  40.8562 H              1 <1>                0.0000
@<TRIPOS>BOND
    1    1    2 1     
    2    2    3 ar    
    3    2    9 ar    
    4    3    4 ar    
    5    3   12 1     
    6    4    5 ar    
    7    4   13 1     
    8    5    6 1     
    9    5    7 ar    
   10    7    8 1     
   11    7    9 ar    
   12    9   10 1     
   13   10   11 2     
   14   10   14 1     
@<TRIPOS>SUBSTRUCTURE
      1 ****           1
@<TRIPOS>COMMENT
> <Gold.Version>
2022.2.0

> <Gold.Id.Protein>
1qkm|1qkm_protein|mol2

> <Gold.Protein.RotatedTorsions>
[  496  491  490  487 ] final  131.77 input  -89.99 | X-H torsion

> <Gold.Protein.ActiveResidues>
 MET295  LEU298  THR299  LEU301  ALA302  GLU305  TRP335  MET336  LEU339  MET340 
 GLY342  LEU343  ARG346  PHE356  ILE373  ILE376  PHE377  LEU380  LYS471  GLY472 
 MET473  HIS475  LEU476  LEU477  ASN478  MET479  VAL484  VAL487 

> <Gold.Protein.RotatedAtoms>
   37.1647   32.9788   41.4483 H   0  0  0  0  0  0  0  0  0  0  0  0  # atno 496  bound_to 491 

> <Gold.Score>
     Score     S(PLP)   S(hbond)     S(cho)   S(metal)  DE(clash)   DE(tors)     intcor
     40.29     -40.75       0.00       0.00       0.00       0.00       0.23       0.01

> <Gold.PLP.Fitness>
40.2860

> <Gold.PLP.PLP>
-40.7462

> <Gold.PLP.part.hbond>
0.0000

> <Gold.PLP.part.metal>
0.0000

> <Gold.PLP.part.buried>
-2.0188

> <Gold.PLP.part.nonpolar>
-39.6522

> <Gold.PLP.part.repulsive>
0.3014

> <Gold.PLP.ligand.clash>
0.0000

> <Gold.PLP.ligand.torsion>
0.2327

> <Gold.PLP.Chemscore.Hbond>
0.0000

> <Gold.PLP.Chemscore.CHOScore>
0.0000

> <Gold.PLP.Chemscore.Metal>
0.0000

> <Gold.PLP.Chemscore.Internal.Correction>
0.0052

