#       Name:                EN300-195674_i001
#       Creating user name   aseyller
#       Creation time:       Fri Apr 21 19:55:53 2023


#       File generated by GOLD software.
#

@<TRIPOS>MOLECULE
EN300-195674_i001|benzaldehydes|mol2|988|dock3
    14    14     1
SMALL
USER_CHARGES


@<TRIPOS>ATOM
      1 F1          31.6562  38.5055  34.5753 F              1 <1>                0.0000
      2 C2          31.6841  37.5257  35.5050 C.ar           1 <1>                0.0000
      3 C3          32.4617  36.4015  35.3040 C.ar           1 <1>                0.0000
      4 C4          32.4925  35.3969  36.2544 C.ar           1 <1>                0.0000
      5 C5          31.7462  35.5065  37.4152 C.ar           1 <1>                0.0000
      6 Br6         31.8003  34.1243  38.7044 Br             1 <1>                0.0000
      7 C7          30.9620  36.6233  37.6348 C.ar           1 <1>                0.0000
      8 F8          30.2344  36.7284  38.7682 F              1 <1>                0.0000
      9 C9          30.9286  37.6491  36.6795 C.ar           1 <1>                0.0000
     10 C10         30.0992  38.8396  36.9027 C.2            1 <1>                0.0000
     11 O11         30.1489  39.7681  36.1238 O.2            1 <1>                0.0000
     12 H12         33.0472  36.3065  34.4015 H              1 <1>                0.0000
     13 H13         33.1026  34.5211  36.0896 H              1 <1>                0.0000
     14 H14         29.4447  38.8887  37.7603 H              1 <1>                0.0000
@<TRIPOS>BOND
    1    1    2 1     
    2    2    3 ar    
    3    2    9 ar    
    4    3    4 ar    
    5    3   12 1     
    6    4    5 ar    
    7    4   13 1     
    8    5    6 1     
    9    5    7 ar    
   10    7    8 1     
   11    7    9 ar    
   12    9   10 1     
   13   10   11 2     
   14   10   14 1     
@<TRIPOS>SUBSTRUCTURE
      1 ****           1
@<TRIPOS>COMMENT
> <Gold.Version>
2022.2.0

> <Gold.Id.Protein>
1qkm|1qkm_protein|mol2

> <Gold.Protein.RotatedTorsions>
[  496  491  490  487 ] final   36.77 input  -89.99 | X-H torsion

> <Gold.Protein.ActiveResidues>
 MET295  LEU298  THR299  LEU301  ALA302  GLU305  TRP335  MET336  LEU339  MET340 
 GLY342  LEU343  ARG346  PHE356  ILE373  ILE376  PHE377  LEU380  LYS471  GLY472 
 MET473  HIS475  LEU476  LEU477  ASN478  MET479  VAL484  VAL487 

> <Gold.Protein.RotatedAtoms>
   36.3838   33.6505   42.3827 H   0  0  0  0  0  0  0  0  0  0  0  0  # atno 496  bound_to 491 

> <Gold.Score>
     Score     S(PLP)   S(hbond)     S(cho)   S(metal)  DE(clash)   DE(tors)     intcor
     38.36     -38.37       0.00       0.00       0.00       0.00       0.01       0.01

> <Gold.PLP.Fitness>
38.3630

> <Gold.PLP.PLP>
-38.3726

> <Gold.PLP.part.hbond>
0.0000

> <Gold.PLP.part.metal>
0.0000

> <Gold.PLP.part.buried>
-2.5347

> <Gold.PLP.part.nonpolar>
-36.0089

> <Gold.PLP.part.repulsive>
0.0000

> <Gold.PLP.ligand.clash>
0.0000

> <Gold.PLP.ligand.torsion>
0.0075

> <Gold.PLP.Chemscore.Hbond>
0.0000

> <Gold.PLP.Chemscore.CHOScore>
0.0000

> <Gold.PLP.Chemscore.Metal>
0.0000

> <Gold.PLP.Chemscore.Internal.Correction>
0.0055

