#       Name:                EN300-195674_i001
#       Creating user name   aseyller
#       Creation time:       Fri Apr 21 19:55:53 2023


#       File generated by GOLD software.
#

@<TRIPOS>MOLECULE
EN300-195674_i001|benzaldehydes|mol2|988|dock2
    14    14     1
SMALL
USER_CHARGES


@<TRIPOS>ATOM
      1 F1          29.5886  36.4834  39.3813 F              1 <1>                0.0000
      2 C2          30.4867  36.5360  38.3734 C.ar           1 <1>                0.0000
      3 C3          31.6530  35.7986  38.4452 C.ar           1 <1>                0.0000
      4 C4          32.5741  35.8501  37.4146 C.ar           1 <1>                0.0000
      5 C5          32.3383  36.6393  36.3019 C.ar           1 <1>                0.0000
      6 Br6         33.6077  36.6976  34.9016 Br             1 <1>                0.0000
      7 C7          31.1776  37.3843  36.2113 C.ar           1 <1>                0.0000
      8 F8          30.9492  38.1539  35.1247 F              1 <1>                0.0000
      9 C9          30.2356  37.3343  37.2487 C.ar           1 <1>                0.0000
     10 C10         28.9995  38.1215  37.1626 C.2            1 <1>                0.0000
     11 O11         28.0742  37.8811  37.9092 O.2            1 <1>                0.0000
     12 H12         31.8463  35.1802  39.3093 H              1 <1>                0.0000
     13 H13         33.4835  35.2710  37.4785 H              1 <1>                0.0000
     14 H14         28.9140  38.9147  36.4347 H              1 <1>                0.0000
@<TRIPOS>BOND
    1    1    2 1     
    2    2    3 ar    
    3    2    9 ar    
    4    3    4 ar    
    5    3   12 1     
    6    4    5 ar    
    7    4   13 1     
    8    5    6 1     
    9    5    7 ar    
   10    7    8 1     
   11    7    9 ar    
   12    9   10 1     
   13   10   11 2     
   14   10   14 1     
@<TRIPOS>SUBSTRUCTURE
      1 ****           1
@<TRIPOS>COMMENT
> <Gold.Version>
2022.2.0

> <Gold.Id.Protein>
1qkm|1qkm_protein|mol2

> <Gold.Protein.RotatedTorsions>
[  496  491  490  487 ] final  -74.70 input  -89.99 | X-H torsion

> <Gold.Protein.ActiveResidues>
 MET295  LEU298  THR299  LEU301  ALA302  GLU305  TRP335  MET336  LEU339  MET340 
 GLY342  LEU343  ARG346  PHE356  ILE373  ILE376  PHE377  LEU380  LYS471  GLY472 
 MET473  HIS475  LEU476  LEU477  ASN478  MET479  VAL484  VAL487 

> <Gold.Protein.RotatedAtoms>
   36.6188   34.7236   41.2766 H   0  0  0  0  0  0  0  0  0  0  0  0  # atno 496  bound_to 491 

> <Gold.Score>
     Score     S(PLP)   S(hbond)     S(cho)   S(metal)  DE(clash)   DE(tors)     intcor
     38.07     -38.17       0.00       0.00       0.00       0.00       0.05       0.01

> <Gold.PLP.Fitness>
38.0721

> <Gold.PLP.PLP>
-38.1692

> <Gold.PLP.part.hbond>
0.0000

> <Gold.PLP.part.metal>
0.0000

> <Gold.PLP.part.buried>
-1.0960

> <Gold.PLP.part.nonpolar>
-36.1710

> <Gold.PLP.part.repulsive>
0.0000

> <Gold.PLP.ligand.clash>
0.0000

> <Gold.PLP.ligand.torsion>
0.0512

> <Gold.PLP.Chemscore.Hbond>
0.0000

> <Gold.PLP.Chemscore.CHOScore>
0.0000

> <Gold.PLP.Chemscore.Metal>
0.0000

> <Gold.PLP.Chemscore.Internal.Correction>
0.0055

