#       Name:                EN300-195674_i001
#       Creating user name   aseyller
#       Creation time:       Fri Apr 21 19:55:57 2023


#       File generated by GOLD software.
#

@<TRIPOS>MOLECULE
EN300-195674_i001|benzaldehydes|mol2|988|dock20
    14    14     1
SMALL
USER_CHARGES


@<TRIPOS>ATOM
      1 F1          33.4163  35.5178  36.4209 F              1 <1>                0.0000
      2 C2          32.3790  35.5196  37.2865 C.ar           1 <1>                0.0000
      3 C3          32.0776  34.3815  38.0095 C.ar           1 <1>                0.0000
      4 C4          31.0165  34.3807  38.8968 C.ar           1 <1>                0.0000
      5 C5          30.2462  35.5178  39.0700 C.ar           1 <1>                0.0000
      6 Br6         28.7996  35.4998  40.2876 Br             1 <1>                0.0000
      7 C7          30.5316  36.6663  38.3560 C.ar           1 <1>                0.0000
      8 F8          29.7787  37.7751  38.5264 F              1 <1>                0.0000
      9 C9          31.6086  36.6783  37.4582 C.ar           1 <1>                0.0000
     10 C10         31.9206  37.8927  36.6948 C.2            1 <1>                0.0000
     11 O11         32.6825  37.8379  35.7527 O.2            1 <1>                0.0000
     12 H12         32.6724  33.4892  37.8812 H              1 <1>                0.0000
     13 H13         30.7873  33.4868  39.4580 H              1 <1>                0.0000
     14 H14         31.4715  38.8350  36.9720 H              1 <1>                0.0000
@<TRIPOS>BOND
    1    1    2 1     
    2    2    3 ar    
    3    2    9 ar    
    4    3    4 ar    
    5    3   12 1     
    6    4    5 ar    
    7    4   13 1     
    8    5    6 1     
    9    5    7 ar    
   10    7    8 1     
   11    7    9 ar    
   12    9   10 1     
   13   10   11 2     
   14   10   14 1     
@<TRIPOS>SUBSTRUCTURE
      1 ****           1
@<TRIPOS>COMMENT
> <Gold.Version>
2022.2.0

> <Gold.Id.Protein>
1qkm|1qkm_protein|mol2

> <Gold.Protein.RotatedTorsions>
[  496  491  490  487 ] final  122.25 input  -89.99 | X-H torsion

> <Gold.Protein.ActiveResidues>
 MET295  LEU298  THR299  LEU301  ALA302  GLU305  TRP335  MET336  LEU339  MET340 
 GLY342  LEU343  ARG346  PHE356  ILE373  ILE376  PHE377  LEU380  LYS471  GLY472 
 MET473  HIS475  LEU476  LEU477  ASN478  MET479  VAL484  VAL487 

> <Gold.Protein.RotatedAtoms>
   37.0977   32.9472   41.5862 H   0  0  0  0  0  0  0  0  0  0  0  0  # atno 496  bound_to 491 

> <Gold.Score>
     Score     S(PLP)   S(hbond)     S(cho)   S(metal)  DE(clash)   DE(tors)     intcor
     37.30     -37.38       0.00       0.00       0.00       0.00       0.04       0.01

> <Gold.PLP.Fitness>
37.3039

> <Gold.PLP.PLP>
-37.3764

> <Gold.PLP.part.hbond>
0.0000

> <Gold.PLP.part.metal>
0.0000

> <Gold.PLP.part.buried>
-2.1714

> <Gold.PLP.part.nonpolar>
-36.2683

> <Gold.PLP.part.repulsive>
0.0590

> <Gold.PLP.ligand.clash>
0.0000

> <Gold.PLP.ligand.torsion>
0.0388

> <Gold.PLP.Chemscore.Hbond>
0.0000

> <Gold.PLP.Chemscore.CHOScore>
0.0000

> <Gold.PLP.Chemscore.Metal>
0.0000

> <Gold.PLP.Chemscore.Internal.Correction>
0.0052

