#       Name:                EN300-195674_i001
#       Creating user name   aseyller
#       Creation time:       Fri Apr 21 19:55:56 2023


#       File generated by GOLD software.
#

@<TRIPOS>MOLECULE
EN300-195674_i001|benzaldehydes|mol2|988|dock16
    14    14     1
SMALL
USER_CHARGES


@<TRIPOS>ATOM
      1 F1          25.7986  36.9255  39.5768 F              1 <1>                0.0000
      2 C2          26.9044  37.2992  38.8967 C.ar           1 <1>                0.0000
      3 C3          26.8151  38.2476  37.8960 C.ar           1 <1>                0.0000
      4 C4          27.9458  38.6325  37.1983 C.ar           1 <1>                0.0000
      5 C5          29.1769  38.0729  37.4942 C.ar           1 <1>                0.0000
      6 Br6         30.7127  38.6108  36.5311 Br             1 <1>                0.0000
      7 C7          29.2869  37.1226  38.4918 C.ar           1 <1>                0.0000
      8 F8          30.4893  36.5776  38.7792 F              1 <1>                0.0000
      9 C9          28.1472  36.7301  39.2080 C.ar           1 <1>                0.0000
     10 C10         28.2528  35.7216  40.2696 C.2            1 <1>                0.0000
     11 O11         27.2839  35.4505  40.9471 O.2            1 <1>                0.0000
     12 H12         25.8591  38.6898  37.6573 H              1 <1>                0.0000
     13 H13         27.8675  39.3742  36.4172 H              1 <1>                0.0000
     14 H14         29.1931  35.2210  40.4472 H              1 <1>                0.0000
@<TRIPOS>BOND
    1    1    2 1     
    2    2    3 ar    
    3    2    9 ar    
    4    3    4 ar    
    5    3   12 1     
    6    4    5 ar    
    7    4   13 1     
    8    5    6 1     
    9    5    7 ar    
   10    7    8 1     
   11    7    9 ar    
   12    9   10 1     
   13   10   11 2     
   14   10   14 1     
@<TRIPOS>SUBSTRUCTURE
      1 ****           1
@<TRIPOS>COMMENT
> <Gold.Version>
2022.2.0

> <Gold.Id.Protein>
1qkm|1qkm_protein|mol2

> <Gold.Protein.RotatedTorsions>
[  496  491  490  487 ] final  116.68 input  -89.99 | X-H torsion

> <Gold.Protein.ActiveResidues>
 MET295  LEU298  THR299  LEU301  ALA302  GLU305  TRP335  MET336  LEU339  MET340 
 GLY342  LEU343  ARG346  PHE356  ILE373  ILE376  PHE377  LEU380  LYS471  GLY472 
 MET473  HIS475  LEU476  LEU477  ASN478  MET479  VAL484  VAL487 

> <Gold.Protein.RotatedAtoms>
   37.0545   32.9400   41.6666 H   0  0  0  0  0  0  0  0  0  0  0  0  # atno 496  bound_to 491 

> <Gold.Score>
     Score     S(PLP)   S(hbond)     S(cho)   S(metal)  DE(clash)   DE(tors)     intcor
     37.93     -37.93       0.00       0.00       0.00       0.00       0.01       0.01

> <Gold.PLP.Fitness>
37.9269

> <Gold.PLP.PLP>
-37.9343

> <Gold.PLP.part.hbond>
0.0000

> <Gold.PLP.part.metal>
0.0000

> <Gold.PLP.part.buried>
-2.2442

> <Gold.PLP.part.nonpolar>
-36.0772

> <Gold.PLP.part.repulsive>
0.1114

> <Gold.PLP.ligand.clash>
0.0000

> <Gold.PLP.ligand.torsion>
0.0063

> <Gold.PLP.Chemscore.Hbond>
0.0000

> <Gold.PLP.Chemscore.CHOScore>
0.0000

> <Gold.PLP.Chemscore.Metal>
0.0000

> <Gold.PLP.Chemscore.Internal.Correction>
0.0052

