#       Name:                EN300-195674_i001
#       Creating user name   aseyller
#       Creation time:       Fri Apr 21 19:55:57 2023


#       File generated by GOLD software.
#

@<TRIPOS>MOLECULE
EN300-195674_i001|benzaldehydes|mol2|988|dock19
    14    14     1
SMALL
USER_CHARGES


@<TRIPOS>ATOM
      1 F1          31.8046  33.7529  38.7351 F              1 <1>                0.0000
      2 C2          31.6627  34.9915  38.2147 C.ar           1 <1>                0.0000
      3 C3          32.6379  35.5104  37.3847 C.ar           1 <1>                0.0000
      4 C4          32.4950  36.7781  36.8500 C.ar           1 <1>                0.0000
      5 C5          31.3758  37.5395  37.1398 C.ar           1 <1>                0.0000
      6 Br6         31.1959  39.2704  36.4000 Br             1 <1>                0.0000
      7 C7          30.3892  37.0382  37.9680 C.ar           1 <1>                0.0000
      8 F8          29.2976  37.7827  38.2496 F              1 <1>                0.0000
      9 C9          30.5227  35.7521  38.5103 C.ar           1 <1>                0.0000
     10 C10         29.4809  35.2099  39.3910 C.2            1 <1>                0.0000
     11 O11         28.5692  35.9196  39.7603 O.2            1 <1>                0.0000
     12 H12         33.5149  34.9243  37.1530 H              1 <1>                0.0000
     13 H13         33.2620  37.1766  36.2024 H              1 <1>                0.0000
     14 H14         29.5261  34.1791  39.7099 H              1 <1>                0.0000
@<TRIPOS>BOND
    1    1    2 1     
    2    2    3 ar    
    3    2    9 ar    
    4    3    4 ar    
    5    3   12 1     
    6    4    5 ar    
    7    4   13 1     
    8    5    6 1     
    9    5    7 ar    
   10    7    8 1     
   11    7    9 ar    
   12    9   10 1     
   13   10   11 2     
   14   10   14 1     
@<TRIPOS>SUBSTRUCTURE
      1 ****           1
@<TRIPOS>COMMENT
> <Gold.Version>
2022.2.0

> <Gold.Id.Protein>
1qkm|1qkm_protein|mol2

> <Gold.Protein.RotatedTorsions>
[  496  491  490  487 ] final    4.51 input  -89.99 | X-H torsion

> <Gold.Protein.ActiveResidues>
 MET295  LEU298  THR299  LEU301  ALA302  GLU305  TRP335  MET336  LEU339  MET340 
 GLY342  LEU343  ARG346  PHE356  ILE373  ILE376  PHE377  LEU380  LYS471  GLY472 
 MET473  HIS475  LEU476  LEU477  ASN478  MET479  VAL484  VAL487 

> <Gold.Protein.RotatedAtoms>
   36.2638   34.1484   42.2710 H   0  0  0  0  0  0  0  0  0  0  0  0  # atno 496  bound_to 491 

> <Gold.Score>
     Score     S(PLP)   S(hbond)     S(cho)   S(metal)  DE(clash)   DE(tors)     intcor
     37.05     -37.07       0.00       0.00       0.00       0.00       0.01       0.01

> <Gold.PLP.Fitness>
37.0455

> <Gold.PLP.PLP>
-37.0677

> <Gold.PLP.part.hbond>
0.0000

> <Gold.PLP.part.metal>
0.0000

> <Gold.PLP.part.buried>
-2.0695

> <Gold.PLP.part.nonpolar>
-35.1409

> <Gold.PLP.part.repulsive>
0.0481

> <Gold.PLP.ligand.clash>
0.0000

> <Gold.PLP.ligand.torsion>
0.0137

> <Gold.PLP.Chemscore.Hbond>
0.0000

> <Gold.PLP.Chemscore.CHOScore>
0.0000

> <Gold.PLP.Chemscore.Metal>
0.0000

> <Gold.PLP.Chemscore.Internal.Correction>
0.0052

