#       Name:                EN300-195674_i001
#       Creating user name   aseyller
#       Creation time:       Fri Apr 21 19:55:55 2023


#       File generated by GOLD software.
#

@<TRIPOS>MOLECULE
EN300-195674_i001|benzaldehydes|mol2|988|dock12
    14    14     1
SMALL
USER_CHARGES


@<TRIPOS>ATOM
      1 F1          29.5023  37.6442  36.8030 F              1 <1>                0.0000
      2 C2          28.6081  37.4306  37.7930 C.ar           1 <1>                0.0000
      3 C3          27.3140  37.8991  37.6711 C.ar           1 <1>                0.0000
      4 C4          26.3963  37.6813  38.6829 C.ar           1 <1>                0.0000
      5 C5          26.7634  36.9930  39.8266 C.ar           1 <1>                0.0000
      6 Br6         25.4962  36.7035  41.1999 Br             1 <1>                0.0000
      7 C7          28.0531  36.5164  39.9674 C.ar           1 <1>                0.0000
      8 F8          28.4095  35.8448  41.0842 F              1 <1>                0.0000
      9 C9          28.9888  36.7276  38.9447 C.ar           1 <1>                0.0000
     10 C10         30.3613  36.2256  39.0839 C.2            1 <1>                0.0000
     11 O11         31.1708  36.4208  38.2020 O.2            1 <1>                0.0000
     12 H12         27.0181  38.4376  36.7830 H              1 <1>                0.0000
     13 H13         25.3868  38.0511  38.5801 H              1 <1>                0.0000
     14 H14         30.6502  35.6826  39.9716 H              1 <1>                0.0000
@<TRIPOS>BOND
    1    1    2 1     
    2    2    3 ar    
    3    2    9 ar    
    4    3    4 ar    
    5    3   12 1     
    6    4    5 ar    
    7    4   13 1     
    8    5    6 1     
    9    5    7 ar    
   10    7    8 1     
   11    7    9 ar    
   12    9   10 1     
   13   10   11 2     
   14   10   14 1     
@<TRIPOS>SUBSTRUCTURE
      1 ****           1
@<TRIPOS>COMMENT
> <Gold.Version>
2022.2.0

> <Gold.Id.Protein>
1qkm|1qkm_protein|mol2

> <Gold.Protein.RotatedTorsions>
[  496  491  490  487 ] final -170.08 input  -89.99 | X-H torsion

> <Gold.Protein.ActiveResidues>
 MET295  LEU298  THR299  LEU301  ALA302  GLU305  TRP335  MET336  LEU339  MET340 
 GLY342  LEU343  ARG346  PHE356  ILE373  ILE376  PHE377  LEU380  LYS471  GLY472 
 MET473  HIS475  LEU476  LEU477  ASN478  MET479  VAL484  VAL487 

> <Gold.Protein.RotatedAtoms>
   37.3045   33.6078   40.7962 H   0  0  0  0  0  0  0  0  0  0  0  0  # atno 496  bound_to 491 

> <Gold.Score>
     Score     S(PLP)   S(hbond)     S(cho)   S(metal)  DE(clash)   DE(tors)     intcor
     41.37     -41.46       0.00       0.00       0.00       0.10       0.00       0.01

> <Gold.PLP.Fitness>
41.3711

> <Gold.PLP.PLP>
-41.4648

> <Gold.PLP.part.hbond>
0.0000

> <Gold.PLP.part.metal>
0.0000

> <Gold.PLP.part.buried>
-2.4854

> <Gold.PLP.part.nonpolar>
-39.4776

> <Gold.PLP.part.repulsive>
0.0449

> <Gold.PLP.ligand.clash>
0.0988

> <Gold.PLP.ligand.torsion>
0.0000

> <Gold.PLP.Chemscore.Hbond>
0.0000

> <Gold.PLP.Chemscore.CHOScore>
0.0000

> <Gold.PLP.Chemscore.Metal>
0.0000

> <Gold.PLP.Chemscore.Internal.Correction>
0.0052

