#       Name:                EN300-195674_i001
#       Creating user name   aseyller
#       Creation time:       Fri Apr 21 19:55:56 2023


#       File generated by GOLD software.
#

@<TRIPOS>MOLECULE
EN300-195674_i001|benzaldehydes|mol2|988|dock17
    14    14     1
SMALL
USER_CHARGES


@<TRIPOS>ATOM
      1 F1          28.9182  39.3898  36.9927 F              1 <1>                0.0000
      2 C2          30.0166  38.7150  36.5886 C.ar           1 <1>                0.0000
      3 C3          30.6957  39.1129  35.4530 C.ar           1 <1>                0.0000
      4 C4          31.8208  38.4242  35.0372 C.ar           1 <1>                0.0000
      5 C5          32.2782  37.3308  35.7525 C.ar           1 <1>                0.0000
      6 Br6         33.8184  36.4009  35.1705 Br             1 <1>                0.0000
      7 C7          31.6127  36.9171  36.8912 C.ar           1 <1>                0.0000
      8 F8          32.0606  35.8499  37.5881 F              1 <1>                0.0000
      9 C9          30.4744  37.6123  37.3234 C.ar           1 <1>                0.0000
     10 C10         29.7601  37.1816  38.5314 C.2            1 <1>                0.0000
     11 O11         30.2162  36.2948  39.2219 O.2            1 <1>                0.0000
     12 H12         30.3465  39.9644  34.8878 H              1 <1>                0.0000
     13 H13         32.3458  38.7414  34.1482 H              1 <1>                0.0000
     14 H14         28.8285  37.6543  38.8053 H              1 <1>                0.0000
@<TRIPOS>BOND
    1    1    2 1     
    2    2    3 ar    
    3    2    9 ar    
    4    3    4 ar    
    5    3   12 1     
    6    4    5 ar    
    7    4   13 1     
    8    5    6 1     
    9    5    7 ar    
   10    7    8 1     
   11    7    9 ar    
   12    9   10 1     
   13   10   11 2     
   14   10   14 1     
@<TRIPOS>SUBSTRUCTURE
      1 ****           1
@<TRIPOS>COMMENT
> <Gold.Version>
2022.2.0

> <Gold.Id.Protein>
1qkm|1qkm_protein|mol2

> <Gold.Protein.RotatedTorsions>
[  496  491  490  487 ] final   48.94 input  -89.99 | X-H torsion

> <Gold.Protein.ActiveResidues>
 MET295  LEU298  THR299  LEU301  ALA302  GLU305  TRP335  MET336  LEU339  MET340 
 GLY342  LEU343  ARG346  PHE356  ILE373  ILE376  PHE377  LEU380  LYS471  GLY472 
 MET473  HIS475  LEU476  LEU477  ASN478  MET479  VAL484  VAL487 

> <Gold.Protein.RotatedAtoms>
   36.4650   33.4695   42.3575 H   0  0  0  0  0  0  0  0  0  0  0  0  # atno 496  bound_to 491 

> <Gold.Score>
     Score     S(PLP)   S(hbond)     S(cho)   S(metal)  DE(clash)   DE(tors)     intcor
     36.65     -36.66       0.00       0.00       0.00       0.00       0.01       0.01

> <Gold.PLP.Fitness>
36.6496

> <Gold.PLP.PLP>
-36.6606

> <Gold.PLP.part.hbond>
0.0000

> <Gold.PLP.part.metal>
0.0000

> <Gold.PLP.part.buried>
-1.9899

> <Gold.PLP.part.nonpolar>
-34.4943

> <Gold.PLP.part.repulsive>
0.0809

> <Gold.PLP.ligand.clash>
0.0000

> <Gold.PLP.ligand.torsion>
0.0081

> <Gold.PLP.Chemscore.Hbond>
0.0000

> <Gold.PLP.Chemscore.CHOScore>
0.0000

> <Gold.PLP.Chemscore.Metal>
0.0000

> <Gold.PLP.Chemscore.Internal.Correction>
0.0052

