#       Name:                EN300-195674_i001
#       Creating user name   aseyller
#       Creation time:       Fri Apr 21 19:55:57 2023


#       File generated by GOLD software.
#

@<TRIPOS>MOLECULE
EN300-195674_i001|benzaldehydes|mol2|988|dock18
    14    14     1
SMALL
USER_CHARGES


@<TRIPOS>ATOM
      1 F1          29.8741  38.9372  37.5688 F              1 <1>                0.0000
      2 C2          30.3131  37.6759  37.7730 C.ar           1 <1>                0.0000
      3 C3          29.6779  36.8610  38.6903 C.ar           1 <1>                0.0000
      4 C4          30.1249  35.5690  38.9010 C.ar           1 <1>                0.0000
      5 C5          31.2114  35.0791  38.1968 C.ar           1 <1>                0.0000
      6 Br6         31.8091  33.3104  38.4966 Br             1 <1>                0.0000
      7 C7          31.8602  35.8787  37.2748 C.ar           1 <1>                0.0000
      8 F8          32.9203  35.3988  36.5884 F              1 <1>                0.0000
      9 C9          31.4110  37.1879  37.0505 C.ar           1 <1>                0.0000
     10 C10         32.0927  38.0457  36.0736 C.2            1 <1>                0.0000
     11 O11         32.9178  37.5713  35.3216 O.2            1 <1>                0.0000
     12 H12         28.8297  37.2341  39.2450 H              1 <1>                0.0000
     13 H13         29.6232  34.9385  39.6202 H              1 <1>                0.0000
     14 H14         31.8596  39.0990  36.0243 H              1 <1>                0.0000
@<TRIPOS>BOND
    1    1    2 1     
    2    2    3 ar    
    3    2    9 ar    
    4    3    4 ar    
    5    3   12 1     
    6    4    5 ar    
    7    4   13 1     
    8    5    6 1     
    9    5    7 ar    
   10    7    8 1     
   11    7    9 ar    
   12    9   10 1     
   13   10   11 2     
   14   10   14 1     
@<TRIPOS>SUBSTRUCTURE
      1 ****           1
@<TRIPOS>COMMENT
> <Gold.Version>
2022.2.0

> <Gold.Id.Protein>
1qkm|1qkm_protein|mol2

> <Gold.Protein.RotatedTorsions>
[  496  491  490  487 ] final -118.24 input  -89.99 | X-H torsion

> <Gold.Protein.ActiveResidues>
 MET295  LEU298  THR299  LEU301  ALA302  GLU305  TRP335  MET336  LEU339  MET340 
 GLY342  LEU343  ARG346  PHE356  ILE373  ILE376  PHE377  LEU380  LYS471  GLY472 
 MET473  HIS475  LEU476  LEU477  ASN478  MET479  VAL484  VAL487 

> <Gold.Protein.RotatedAtoms>
   37.0114   34.3783   40.8117 H   0  0  0  0  0  0  0  0  0  0  0  0  # atno 496  bound_to 491 

> <Gold.Score>
     Score     S(PLP)   S(hbond)     S(cho)   S(metal)  DE(clash)   DE(tors)     intcor
     36.54     -36.58       0.00       0.00       0.00       0.00       0.02       0.01

> <Gold.PLP.Fitness>
36.5366

> <Gold.PLP.PLP>
-36.5799

> <Gold.PLP.part.hbond>
0.0000

> <Gold.PLP.part.metal>
0.0000

> <Gold.PLP.part.buried>
-2.0718

> <Gold.PLP.part.nonpolar>
-35.2097

> <Gold.PLP.part.repulsive>
0.1066

> <Gold.PLP.ligand.clash>
0.0000

> <Gold.PLP.ligand.torsion>
0.0242

> <Gold.PLP.Chemscore.Hbond>
0.0000

> <Gold.PLP.Chemscore.CHOScore>
0.0000

> <Gold.PLP.Chemscore.Metal>
0.0000

> <Gold.PLP.Chemscore.Internal.Correction>
0.0052

