#       Name:                plp ligand
#       Creating user name   aseyller
#       Creation time:       Fri Apr 21 19:55:52 2023


#       File generated by GOLD software.
#

@<TRIPOS>MOLECULE
plp ligand
    14    14     1
SMALL
USER_CHARGES


@<TRIPOS>ATOM
      1 F1          -2.3703   0.9968  -0.0017 NONPOLAR       1 <1>                0.0000
      2 C2          -1.0510   0.7059  -0.0016 NONPOLAR       1 <1>                0.0000
      3 C3          -0.1168   1.7239   0.0002 NONPOLAR       1 <1>                0.0000
      4 C4           1.2346   1.4290   0.0008 NONPOLAR       1 <1>                0.0000
      5 C5           1.6654   0.1134  -0.0004 NONPOLAR       1 <1>                0.0000
      6 Br6          3.5166  -0.2722   0.0011 NONPOLAR       1 <1>                0.0000
      7 C7           0.7465  -0.9191  -0.0022 NONPOLAR       1 <1>                0.0000
      8 F8           1.1688  -2.2024  -0.0033 NONPOLAR       1 <1>                0.0000
      9 C9          -0.6255  -0.6299   0.0026 NONPOLAR       1 <1>                0.0000
     10 C10         -1.6100  -1.7188   0.0008 NONPOLAR       1 <1>                0.0000
     11 O11         -2.7959  -1.4642   0.0049 ACCEPTOR       1 <1>                0.0000
     12 H12         -0.4429   2.7535   0.0007                1 <1>                0.0000
     13 H13          1.9585   2.2305   0.0018                1 <1>                0.0000
     14 H14         -1.2784  -2.7466  -0.0043                1 <1>                0.0000
@<TRIPOS>BOND
    1    1    2 1     
    2    2    3 ar    
    3    2    9 ar    
    4    3    4 ar    
    5    3   12 1     
    6    4    5 ar    
    7    4   13 1     
    8    5    6 1     
    9    5    7 ar    
   10    7    8 1     
   11    7    9 ar    
   12    9   10 1     
   13   10   11 2     
   14   10   14 1     
@<TRIPOS>SUBSTRUCTURE
      1 ****           1
@<TRIPOS>SET
DONOR_HYDROGENS      STATIC     ATOMS    <user>   **** ""
0
ATOM$RED        STATIC     ATOMS    COLORGROUP SYSTEM
0
