#       Name:                EN300-108085_i001
#       Creating user name   aseyller
#       Creation time:       Fri Apr 21 18:59:17 2023


#       File generated by GOLD software.
#

@<TRIPOS>MOLECULE
EN300-108085_i001|benzaldehydes|mol2|677|dock14
    22    23     1
SMALL
USER_CHARGES


@<TRIPOS>ATOM
      1 Cl1         34.8797  36.3994  35.2170 Cl             1 <1>                0.0000
      2 C2          33.3010  36.5769  35.9170 C.ar           1 <1>                0.0000
      3 C3          33.0369  36.0436  37.1675 C.ar           1 <1>                0.0000
      4 C4          31.7844  36.1816  37.7285 C.ar           1 <1>                0.0000
      5 C5          30.7827  36.8599  37.0337 C.ar           1 <1>                0.0000
      6 C6          31.0543  37.3951  35.7744 C.ar           1 <1>                0.0000
      7 C7          32.3120  37.2561  35.2254 C.ar           1 <1>                0.0000
      8 C8          29.4359  37.0109  37.6307 C.ar           1 <1>                0.0000
      9 N9          29.1034  36.2542  38.6700 N.ar           1 <1>                0.0000
     10 C10         27.9143  36.3575  39.2306 C.ar           1 <1>                0.0000
     11 C11         26.9959  37.2844  38.7123 C.ar           1 <1>                0.0000
     12 C12         25.6596  37.4346  39.3050 C.2            1 <1>                0.0000
     13 O13         25.4661  37.1047  40.4559 O.2            1 <1>                0.0000
     14 C14         27.3885  38.0643  37.6129 C.ar           1 <1>                0.0000
     15 N15         28.5986  37.9027  37.1143 N.ar           1 <1>                0.0000
     16 H16         33.8130  35.5183  37.7045 H              1 <1>                0.0000
     17 H17         31.5794  35.7651  38.7036 H              1 <1>                0.0000
     18 H18         30.2824  37.9211  35.2322 H              1 <1>                0.0000
     19 H19         32.5234  37.6700  34.2505 H              1 <1>                0.0000
     20 H20         27.6508  35.7384  40.0755 H              1 <1>                0.0000
     21 H21         24.8497  37.8387  38.7157 H              1 <1>                0.0000
     22 H22         26.7113  38.7885  37.1847 H              1 <1>                0.0000
@<TRIPOS>BOND
    1    1    2 1     
    2    2    3 ar    
    3    2    7 ar    
    4    3    4 ar    
    5    3   16 1     
    6    4    5 ar    
    7    4   17 1     
    8    5    6 ar    
    9    5    8 1     
   10    6    7 ar    
   11    6   18 1     
   12    7   19 1     
   13    8    9 ar    
   14    8   15 ar    
   15    9   10 ar    
   16   10   11 ar    
   17   10   20 1     
   18   11   12 1     
   19   11   14 ar    
   20   12   13 2     
   21   12   21 1     
   22   14   15 ar    
   23   14   22 1     
@<TRIPOS>SUBSTRUCTURE
      1 ****           1
@<TRIPOS>COMMENT
> <Gold.Version>
2022.2.0

> <Gold.Id.Protein>
1qkm|1qkm_protein|mol2

> <Gold.Protein.RotatedTorsions>
[  496  491  490  487 ] final    0.15 input  -89.99 | X-H torsion

> <Gold.Protein.ActiveResidues>
 MET295  LEU298  THR299  LEU301  ALA302  GLU305  TRP335  MET336  LEU339  MET340 
 GLY342  LEU343  ARG346  PHE356  ILE373  ILE376  PHE377  LEU380  LYS471  GLY472 
 MET473  HIS475  LEU476  LEU477  ASN478  MET479  VAL484  VAL487 

> <Gold.Protein.RotatedAtoms>
   36.2598   34.2114   42.2373 H   0  0  0  0  0  0  0  0  0  0  0  0  # atno 496  bound_to 491 

> <Gold.Score>
     Score     S(PLP)   S(hbond)     S(cho)   S(metal)  DE(clash)   DE(tors)     intcor
     42.74     -43.18       0.00       0.00       0.00       0.00       0.22       0.00

> <Gold.PLP.Fitness>
42.7406

> <Gold.PLP.PLP>
-43.1803

> <Gold.PLP.part.hbond>
0.0000

> <Gold.PLP.part.metal>
0.0000

> <Gold.PLP.part.buried>
-4.4227

> <Gold.PLP.part.nonpolar>
-39.9046

> <Gold.PLP.part.repulsive>
0.1566

> <Gold.PLP.ligand.clash>
0.0000

> <Gold.PLP.ligand.torsion>
0.2199

> <Gold.PLP.Chemscore.Hbond>
0.0000

> <Gold.PLP.Chemscore.CHOScore>
0.0000

> <Gold.PLP.Chemscore.Metal>
0.0000

> <Gold.PLP.Chemscore.Internal.Correction>
0.0000

