#       Name:                EN300-108085_i001
#       Creating user name   aseyller
#       Creation time:       Fri Apr 21 18:59:15 2023


#       File generated by GOLD software.
#

@<TRIPOS>MOLECULE
EN300-108085_i001|benzaldehydes|mol2|677|dock11
    22    23     1
SMALL
USER_CHARGES


@<TRIPOS>ATOM
      1 Cl1         24.9999  36.5700  41.4958 Cl             1 <1>                0.0000
      2 C2          26.1897  36.8995  40.2754 C.ar           1 <1>                0.0000
      3 C3          25.8332  37.6014  39.1360 C.ar           1 <1>                0.0000
      4 C4          26.7745  37.8660  38.1630 C.ar           1 <1>                0.0000
      5 C5          28.0877  37.4251  38.3284 C.ar           1 <1>                0.0000
      6 C6          28.4412  36.7184  39.4781 C.ar           1 <1>                0.0000
      7 C7          27.4932  36.4644  40.4472 C.ar           1 <1>                0.0000
      8 C8          29.1025  37.7057  37.2870 C.ar           1 <1>                0.0000
      9 N9          29.1333  38.9085  36.7252 N.ar           1 <1>                0.0000
     10 C10         30.0211  39.1990  35.7943 C.ar           1 <1>                0.0000
     11 C11         30.9411  38.2143  35.4005 C.ar           1 <1>                0.0000
     12 C12         31.9485  38.4930  34.3674 C.2            1 <1>                0.0000
     13 O13         32.7004  37.6148  34.0011 O.2            1 <1>                0.0000
     14 C14         30.8732  36.9564  36.0202 C.ar           1 <1>                0.0000
     15 N15         29.9580  36.7490  36.9467 N.ar           1 <1>                0.0000
     16 H16         24.8162  37.9420  39.0088 H              1 <1>                0.0000
     17 H17         26.4953  38.4132  37.2748 H              1 <1>                0.0000
     18 H18         29.4564  36.3748  39.6111 H              1 <1>                0.0000
     19 H19         27.7657  35.9174  41.3377 H              1 <1>                0.0000
     20 H20         30.0400  40.1794  35.3416 H              1 <1>                0.0000
     21 H21         32.0192  39.4799  33.9344 H              1 <1>                0.0000
     22 H22         31.5629  36.1719  35.7454 H              1 <1>                0.0000
@<TRIPOS>BOND
    1    1    2 1     
    2    2    3 ar    
    3    2    7 ar    
    4    3    4 ar    
    5    3   16 1     
    6    4    5 ar    
    7    4   17 1     
    8    5    6 ar    
    9    5    8 1     
   10    6    7 ar    
   11    6   18 1     
   12    7   19 1     
   13    8    9 ar    
   14    8   15 ar    
   15    9   10 ar    
   16   10   11 ar    
   17   10   20 1     
   18   11   12 1     
   19   11   14 ar    
   20   12   13 2     
   21   12   21 1     
   22   14   15 ar    
   23   14   22 1     
@<TRIPOS>SUBSTRUCTURE
      1 ****           1
@<TRIPOS>COMMENT
> <Gold.Version>
2022.2.0

> <Gold.Id.Protein>
1qkm|1qkm_protein|mol2

> <Gold.Protein.RotatedTorsions>
[  496  491  490  487 ] final -113.05 input  -89.99 | X-H torsion

> <Gold.Protein.ActiveResidues>
 MET295  LEU298  THR299  LEU301  ALA302  GLU305  TRP335  MET336  LEU339  MET340 
 GLY342  LEU343  ARG346  PHE356  ILE373  ILE376  PHE377  LEU380  LYS471  GLY472 
 MET473  HIS475  LEU476  LEU477  ASN478  MET479  VAL484  VAL487 

> <Gold.Protein.RotatedAtoms>
   36.9670   34.4410   40.8491 H   0  0  0  0  0  0  0  0  0  0  0  0  # atno 496  bound_to 491 

> <Gold.Score>
     Score     S(PLP)   S(hbond)     S(cho)   S(metal)  DE(clash)   DE(tors)     intcor
     43.86     -45.23       0.00       0.00       0.00       0.00       0.68       0.00

> <Gold.PLP.Fitness>
43.8626

> <Gold.PLP.PLP>
-45.2283

> <Gold.PLP.part.hbond>
0.0000

> <Gold.PLP.part.metal>
0.0000

> <Gold.PLP.part.buried>
-0.2340

> <Gold.PLP.part.nonpolar>
-44.8513

> <Gold.PLP.part.repulsive>
0.2950

> <Gold.PLP.ligand.clash>
0.0000

> <Gold.PLP.ligand.torsion>
0.6828

> <Gold.PLP.Chemscore.Hbond>
0.0000

> <Gold.PLP.Chemscore.CHOScore>
0.0000

> <Gold.PLP.Chemscore.Metal>
0.0000

> <Gold.PLP.Chemscore.Internal.Correction>
0.0000

