#       Name:                EN300-108085_i001
#       Creating user name   aseyller
#       Creation time:       Fri Apr 21 18:59:13 2023


#       File generated by GOLD software.
#

@<TRIPOS>MOLECULE
EN300-108085_i001|benzaldehydes|mol2|677|dock6
    22    23     1
SMALL
USER_CHARGES


@<TRIPOS>ATOM
      1 Cl1         24.9049  37.1797  41.8042 Cl             1 <1>                0.0000
      2 C2          26.3661  36.8898  40.9127 C.ar           1 <1>                0.0000
      3 C3          27.4994  36.4437  41.5718 C.ar           1 <1>                0.0000
      4 C4          28.6631  36.2117  40.8685 C.ar           1 <1>                0.0000
      5 C5          28.6970  36.4274  39.4906 C.ar           1 <1>                0.0000
      6 C6          27.5524  36.8768  38.8318 C.ar           1 <1>                0.0000
      7 C7          26.3925  37.1001  39.5441 C.ar           1 <1>                0.0000
      8 C8          29.9436  36.1805  38.7303 C.ar           1 <1>                0.0000
      9 N9          30.7713  35.2274  39.1422 N.ar           1 <1>                0.0000
     10 C10         31.8916  34.9759  38.4934 C.ar           1 <1>                0.0000
     11 C11         32.2019  35.7332  37.3527 C.ar           1 <1>                0.0000
     12 C12         33.4388  35.4879  36.5978 C.2            1 <1>                0.0000
     13 O13         33.6732  36.1264  35.5938 O.2            1 <1>                0.0000
     14 C14         31.2990  36.7308  36.9521 C.ar           1 <1>                0.0000
     15 N15         30.1977  36.9151  37.6538 N.ar           1 <1>                0.0000
     16 H16         27.4722  36.2774  42.6387 H              1 <1>                0.0000
     17 H17         29.5464  35.8641  41.3836 H              1 <1>                0.0000
     18 H18         27.5732  37.0453  37.7652 H              1 <1>                0.0000
     19 H19         25.5059  37.4480  39.0351 H              1 <1>                0.0000
     20 H20         32.5601  34.1992  38.8346 H              1 <1>                0.0000
     21 H21         34.1391  34.7389  36.9373 H              1 <1>                0.0000
     22 H22         31.5012  37.3352  36.0802 H              1 <1>                0.0000
@<TRIPOS>BOND
    1    1    2 1     
    2    2    3 ar    
    3    2    7 ar    
    4    3    4 ar    
    5    3   16 1     
    6    4    5 ar    
    7    4   17 1     
    8    5    6 ar    
    9    5    8 1     
   10    6    7 ar    
   11    6   18 1     
   12    7   19 1     
   13    8    9 ar    
   14    8   15 ar    
   15    9   10 ar    
   16   10   11 ar    
   17   10   20 1     
   18   11   12 1     
   19   11   14 ar    
   20   12   13 2     
   21   12   21 1     
   22   14   15 ar    
   23   14   22 1     
@<TRIPOS>SUBSTRUCTURE
      1 ****           1
@<TRIPOS>COMMENT
> <Gold.Version>
2022.2.0

> <Gold.Id.Protein>
1qkm|1qkm_protein|mol2

> <Gold.Protein.RotatedTorsions>
[  496  491  490  487 ] final  114.06 input  -89.99 | X-H torsion

> <Gold.Protein.ActiveResidues>
 MET295  LEU298  THR299  LEU301  ALA302  GLU305  TRP335  MET336  LEU339  MET340 
 GLY342  LEU343  ARG346  PHE356  ILE373  ILE376  PHE377  LEU380  LYS471  GLY472 
 MET473  HIS475  LEU476  LEU477  ASN478  MET479  VAL484  VAL487 

> <Gold.Protein.RotatedAtoms>
   37.0332   32.9395   41.7041 H   0  0  0  0  0  0  0  0  0  0  0  0  # atno 496  bound_to 491 

> <Gold.Score>
     Score     S(PLP)   S(hbond)     S(cho)   S(metal)  DE(clash)   DE(tors)     intcor
     46.50     -47.31       0.00       0.00       0.00       0.00       0.40       0.00

> <Gold.PLP.Fitness>
46.4972

> <Gold.PLP.PLP>
-47.3058

> <Gold.PLP.part.hbond>
0.0000

> <Gold.PLP.part.metal>
0.0000

> <Gold.PLP.part.buried>
0.4104

> <Gold.PLP.part.nonpolar>
-49.1361

> <Gold.PLP.part.repulsive>
0.3150

> <Gold.PLP.ligand.clash>
0.0000

> <Gold.PLP.ligand.torsion>
0.4048

> <Gold.PLP.Chemscore.Hbond>
0.0000

> <Gold.PLP.Chemscore.CHOScore>
0.0000

> <Gold.PLP.Chemscore.Metal>
0.0000

> <Gold.PLP.Chemscore.Internal.Correction>
0.0010

