#       Name:                EN300-108085_i001
#       Creating user name   aseyller
#       Creation time:       Fri Apr 21 18:59:17 2023


#       File generated by GOLD software.
#

@<TRIPOS>MOLECULE
EN300-108085_i001|benzaldehydes|mol2|677|dock15
    22    23     1
SMALL
USER_CHARGES


@<TRIPOS>ATOM
      1 Cl1         33.1869  36.8524  35.6583 Cl             1 <1>                0.0000
      2 C2          31.7284  36.8479  36.6000 C.ar           1 <1>                0.0000
      3 C3          31.6754  36.1353  37.7863 C.ar           1 <1>                0.0000
      4 C4          30.5192  36.1282  38.5385 C.ar           1 <1>                0.0000
      5 C5          29.4020  36.8406  38.1022 C.ar           1 <1>                0.0000
      6 C6          29.4610  37.5567  36.9064 C.ar           1 <1>                0.0000
      7 C7          30.6241  37.5614  36.1650 C.ar           1 <1>                0.0000
      8 C8          28.1577  36.8363  38.9053 C.ar           1 <1>                0.0000
      9 N9          27.0840  37.4586  38.4329 N.ar           1 <1>                0.0000
     10 C10         25.9566  37.4784  39.1167 C.ar           1 <1>                0.0000
     11 C11         25.9036  36.8286  40.3601 C.ar           1 <1>                0.0000
     12 C12         24.6687  36.8239  41.1569 C.2            1 <1>                0.0000
     13 O13         24.7254  36.7067  42.3626 O.2            1 <1>                0.0000
     14 C14         27.0616  36.1830  40.8219 C.ar           1 <1>                0.0000
     15 N15         28.1473  36.2058  40.0738 N.ar           1 <1>                0.0000
     16 H16         32.5409  35.5839  38.1231 H              1 <1>                0.0000
     17 H17         30.4789  35.5720  39.4634 H              1 <1>                0.0000
     18 H18         28.5989  38.1098  36.5640 H              1 <1>                0.0000
     19 H19         30.6709  38.1154  35.2391 H              1 <1>                0.0000
     20 H20         25.0874  37.9868  38.7262 H              1 <1>                0.0000
     21 H21         23.7106  36.9250  40.6686 H              1 <1>                0.0000
     22 H22         27.0619  35.6719  41.7734 H              1 <1>                0.0000
@<TRIPOS>BOND
    1    1    2 1     
    2    2    3 ar    
    3    2    7 ar    
    4    3    4 ar    
    5    3   16 1     
    6    4    5 ar    
    7    4   17 1     
    8    5    6 ar    
    9    5    8 1     
   10    6    7 ar    
   11    6   18 1     
   12    7   19 1     
   13    8    9 ar    
   14    8   15 ar    
   15    9   10 ar    
   16   10   11 ar    
   17   10   20 1     
   18   11   12 1     
   19   11   14 ar    
   20   12   13 2     
   21   12   21 1     
   22   14   15 ar    
   23   14   22 1     
@<TRIPOS>SUBSTRUCTURE
      1 ****           1
@<TRIPOS>COMMENT
> <Gold.Version>
2022.2.0

> <Gold.Id.Protein>
1qkm|1qkm_protein|mol2

> <Gold.Protein.RotatedTorsions>
[  496  491  490  487 ] final  -78.64 input  -89.99 | X-H torsion

> <Gold.Protein.ActiveResidues>
 MET295  LEU298  THR299  LEU301  ALA302  GLU305  TRP335  MET336  LEU339  MET340 
 GLY342  LEU343  ARG346  PHE356  ILE373  ILE376  PHE377  LEU380  LYS471  GLY472 
 MET473  HIS475  LEU476  LEU477  ASN478  MET479  VAL484  VAL487 

> <Gold.Protein.RotatedAtoms>
   36.6537   34.7114   41.2233 H   0  0  0  0  0  0  0  0  0  0  0  0  # atno 496  bound_to 491 

> <Gold.Score>
     Score     S(PLP)   S(hbond)     S(cho)   S(metal)  DE(clash)   DE(tors)     intcor
     44.37     -40.59       0.36       1.00       0.00       0.00       0.15       0.00

> <Gold.PLP.Fitness>
44.3697

> <Gold.PLP.PLP>
-40.5852

> <Gold.PLP.part.hbond>
0.7421

> <Gold.PLP.part.metal>
0.0000

> <Gold.PLP.part.buried>
0.7129

> <Gold.PLP.part.nonpolar>
-44.0618

> <Gold.PLP.part.repulsive>
1.8958

> <Gold.PLP.ligand.clash>
0.0000

> <Gold.PLP.ligand.torsion>
0.1514

> <Gold.PLP.Chemscore.Hbond>
0.3624

> <Gold.PLP.Chemscore.CHOScore>
1.0000

> <Gold.PLP.Chemscore.Metal>
0.0000

> <Gold.Chemscore.Hbonds>
donor molecule, donor type, donor heavy atom, donor atom, acceptor molecule, acceptor atom, score
      P1  H  1258  1270       L1    13  0.36
      L1  C    14    22       P1   582  1.00

> <Gold.PLP.Chemscore.Internal.Correction>
0.0000

