#       Name:                EN300-108085_i001
#       Creating user name   aseyller
#       Creation time:       Fri Apr 21 18:59:19 2023


#       File generated by GOLD software.
#

@<TRIPOS>MOLECULE
EN300-108085_i001|benzaldehydes|mol2|677|dock18
    22    23     1
SMALL
USER_CHARGES


@<TRIPOS>ATOM
      1 Cl1         34.9232  35.8755  36.3681 Cl             1 <1>                0.0000
      2 C2          33.3388  36.0364  37.0590 C.ar           1 <1>                0.0000
      3 C3          32.6002  37.1855  36.8309 C.ar           1 <1>                0.0000
      4 C4          31.3407  37.3188  37.3774 C.ar           1 <1>                0.0000
      5 C5          30.8112  36.2934  38.1611 C.ar           1 <1>                0.0000
      6 C6          31.5597  35.1381  38.3877 C.ar           1 <1>                0.0000
      7 C7          32.8157  35.0130  37.8316 C.ar           1 <1>                0.0000
      8 C8          29.4598  36.4310  38.7509 C.ar           1 <1>                0.0000
      9 N9          29.2086  35.8640  39.9250 N.ar           1 <1>                0.0000
     10 C10         28.0184  35.9628  40.4844 C.ar           1 <1>                0.0000
     11 C11         27.0115  36.6803  39.8193 C.ar           1 <1>                0.0000
     12 C12         25.6705  36.8173  40.4048 C.2            1 <1>                0.0000
     13 O13         25.5321  36.8178  41.6097 O.2            1 <1>                0.0000
     14 C14         27.3199  37.2638  38.5802 C.ar           1 <1>                0.0000
     15 N15         28.5369  37.1222  38.0924 N.ar           1 <1>                0.0000
     16 H16         33.0112  37.9790  36.2242 H              1 <1>                0.0000
     17 H17         30.7657  38.2155  37.1990 H              1 <1>                0.0000
     18 H18         31.1545  34.3412  38.9937 H              1 <1>                0.0000
     19 H19         33.3960  34.1191  38.0063 H              1 <1>                0.0000
     20 H20         27.8214  35.4987  41.4396 H              1 <1>                0.0000
     21 H21         24.8083  36.9175  39.7621 H              1 <1>                0.0000
     22 H22         26.5731  37.8237  38.0369 H              1 <1>                0.0000
@<TRIPOS>BOND
    1    1    2 1     
    2    2    3 ar    
    3    2    7 ar    
    4    3    4 ar    
    5    3   16 1     
    6    4    5 ar    
    7    4   17 1     
    8    5    6 ar    
    9    5    8 1     
   10    6    7 ar    
   11    6   18 1     
   12    7   19 1     
   13    8    9 ar    
   14    8   15 ar    
   15    9   10 ar    
   16   10   11 ar    
   17   10   20 1     
   18   11   12 1     
   19   11   14 ar    
   20   12   13 2     
   21   12   21 1     
   22   14   15 ar    
   23   14   22 1     
@<TRIPOS>SUBSTRUCTURE
      1 ****           1
@<TRIPOS>COMMENT
> <Gold.Version>
2022.2.0

> <Gold.Id.Protein>
1qkm|1qkm_protein|mol2

> <Gold.Protein.RotatedTorsions>
[  496  491  490  487 ] final  -83.37 input  -89.99 | X-H torsion

> <Gold.Protein.ActiveResidues>
 MET295  LEU298  THR299  LEU301  ALA302  GLU305  TRP335  MET336  LEU339  MET340 
 GLY342  LEU343  ARG346  PHE356  ILE373  ILE376  PHE377  LEU380  LYS471  GLY472 
 MET473  HIS475  LEU476  LEU477  ASN478  MET479  VAL484  VAL487 

> <Gold.Protein.RotatedAtoms>
   36.6964   34.6913   41.1614 H   0  0  0  0  0  0  0  0  0  0  0  0  # atno 496  bound_to 491 

> <Gold.Score>
     Score     S(PLP)   S(hbond)     S(cho)   S(metal)  DE(clash)   DE(tors)     intcor
     39.98     -41.20       0.00       0.00       0.00       0.00       0.61       0.00

> <Gold.PLP.Fitness>
39.9770

> <Gold.PLP.PLP>
-41.2001

> <Gold.PLP.part.hbond>
-0.8111

> <Gold.PLP.part.metal>
0.0000

> <Gold.PLP.part.buried>
-5.3939

> <Gold.PLP.part.nonpolar>
-36.9869

> <Gold.PLP.part.repulsive>
0.3291

> <Gold.PLP.ligand.clash>
0.0000

> <Gold.PLP.ligand.torsion>
0.6116

> <Gold.PLP.Chemscore.Hbond>
0.0000

> <Gold.PLP.Chemscore.CHOScore>
0.0000

> <Gold.PLP.Chemscore.Metal>
0.0000

> <Gold.PLP.Chemscore.Internal.Correction>
0.0000

