#       Name:                EN300-108085_i001
#       Creating user name   aseyller
#       Creation time:       Fri Apr 21 18:59:16 2023


#       File generated by GOLD software.
#

@<TRIPOS>MOLECULE
EN300-108085_i001|benzaldehydes|mol2|677|dock12
    22    23     1
SMALL
USER_CHARGES


@<TRIPOS>ATOM
      1 Cl1         25.4345  36.9625  40.8934 Cl             1 <1>                0.0000
      2 C2          26.7788  36.9959  39.7956 C.ar           1 <1>                0.0000
      3 C3          26.6934  37.7267  38.6223 C.ar           1 <1>                0.0000
      4 C4          27.7584  37.7568  37.7463 C.ar           1 <1>                0.0000
      5 C5          28.9233  37.0492  38.0441 C.ar           1 <1>                0.0000
      6 C6          29.0038  36.3147  39.2274 C.ar           1 <1>                0.0000
      7 C7          27.9348  36.2962  40.0988 C.ar           1 <1>                0.0000
      8 C8          30.0699  37.0773  37.1072 C.ar           1 <1>                0.0000
      9 N9          31.0864  36.2469  37.3082 N.ar           1 <1>                0.0000
     10 C10         32.1264  36.2402  36.4973 C.ar           1 <1>                0.0000
     11 C11         32.1471  37.1282  35.4100 C.ar           1 <1>                0.0000
     12 C12         33.2847  37.1557  34.4801 C.2            1 <1>                0.0000
     13 O13         34.2174  36.3972  34.6403 O.2            1 <1>                0.0000
     14 C14         31.0518  37.9888  35.2346 C.ar           1 <1>                0.0000
     15 N15         30.0484  37.9283  36.0882 N.ar           1 <1>                0.0000
     16 H16         25.7910  38.2739  38.3925 H              1 <1>                0.0000
     17 H17         27.6906  38.3268  36.8315 H              1 <1>                0.0000
     18 H18         29.9033  35.7650  39.4627 H              1 <1>                0.0000
     19 H19         27.9961  35.7279  41.0151 H              1 <1>                0.0000
     20 H20         32.9497  35.5621  36.6673 H              1 <1>                0.0000
     21 H21         33.2901  37.8514  33.6539 H              1 <1>                0.0000
     22 H22         31.0294  38.6866  34.4106 H              1 <1>                0.0000
@<TRIPOS>BOND
    1    1    2 1     
    2    2    3 ar    
    3    2    7 ar    
    4    3    4 ar    
    5    3   16 1     
    6    4    5 ar    
    7    4   17 1     
    8    5    6 ar    
    9    5    8 1     
   10    6    7 ar    
   11    6   18 1     
   12    7   19 1     
   13    8    9 ar    
   14    8   15 ar    
   15    9   10 ar    
   16   10   11 ar    
   17   10   20 1     
   18   11   12 1     
   19   11   14 ar    
   20   12   13 2     
   21   12   21 1     
   22   14   15 ar    
   23   14   22 1     
@<TRIPOS>SUBSTRUCTURE
      1 ****           1
@<TRIPOS>COMMENT
> <Gold.Version>
2022.2.0

> <Gold.Id.Protein>
1qkm|1qkm_protein|mol2

> <Gold.Protein.RotatedTorsions>
[  496  491  490  487 ] final  -24.11 input  -89.99 | X-H torsion

> <Gold.Protein.ActiveResidues>
 MET295  LEU298  THR299  LEU301  ALA302  GLU305  TRP335  MET336  LEU339  MET340 
 GLY342  LEU343  ARG346  PHE356  ILE373  ILE376  PHE377  LEU380  LYS471  GLY472 
 MET473  HIS475  LEU476  LEU477  ASN478  MET479  VAL484  VAL487 

> <Gold.Protein.RotatedAtoms>
   36.2930   34.5140   41.9833 H   0  0  0  0  0  0  0  0  0  0  0  0  # atno 496  bound_to 491 

> <Gold.Score>
     Score     S(PLP)   S(hbond)     S(cho)   S(metal)  DE(clash)   DE(tors)     intcor
     43.69     -43.77       0.00       0.00       0.00       0.00       0.04       0.00

> <Gold.PLP.Fitness>
43.6851

> <Gold.PLP.PLP>
-43.7715

> <Gold.PLP.part.hbond>
-0.4721

> <Gold.PLP.part.metal>
0.0000

> <Gold.PLP.part.buried>
-0.9044

> <Gold.PLP.part.nonpolar>
-43.9573

> <Gold.PLP.part.repulsive>
0.6927

> <Gold.PLP.ligand.clash>
0.0000

> <Gold.PLP.ligand.torsion>
0.0432

> <Gold.PLP.Chemscore.Hbond>
0.0000

> <Gold.PLP.Chemscore.CHOScore>
0.0000

> <Gold.PLP.Chemscore.Metal>
0.0000

> <Gold.PLP.Chemscore.Internal.Correction>
0.0000

