#       Name:                EN300-108085_i001
#       Creating user name   aseyller
#       Creation time:       Fri Apr 21 18:59:11 2023


#       File generated by GOLD software.
#

@<TRIPOS>MOLECULE
EN300-108085_i001|benzaldehydes|mol2|677|dock3
    22    23     1
SMALL
USER_CHARGES


@<TRIPOS>ATOM
      1 Cl1         34.0242  36.3975  35.1971 Cl             1 <1>                0.0000
      2 C2          32.5598  36.5186  36.1215 C.ar           1 <1>                0.0000
      3 C3          32.5155  36.0192  37.4124 C.ar           1 <1>                0.0000
      4 C4          31.3545  36.1127  38.1514 C.ar           1 <1>                0.0000
      5 C5          30.2237  36.7117  37.5961 C.ar           1 <1>                0.0000
      6 C6          30.2739  37.2132  36.2952 C.ar           1 <1>                0.0000
      7 C7          31.4418  37.1194  35.5673 C.ar           1 <1>                0.0000
      8 C8          28.9743  36.8146  38.3845 C.ar           1 <1>                0.0000
      9 N9          27.9211  37.4185  37.8466 N.ar           1 <1>                0.0000
     10 C10         26.7899  37.5311  38.5151 C.ar           1 <1>                0.0000
     11 C11         26.7108  37.0009  39.8127 C.ar           1 <1>                0.0000
     12 C12         25.4708  37.1026  40.5949 C.2            1 <1>                0.0000
     13 O13         25.5099  37.0349  41.8051 O.2            1 <1>                0.0000
     14 C14         27.8477  36.3707  40.3429 C.ar           1 <1>                0.0000
     15 N15         28.9388  36.2955  39.6061 N.ar           1 <1>                0.0000
     16 H16         33.3915  35.5553  37.8413 H              1 <1>                0.0000
     17 H17         31.3211  35.7226  39.1579 H              1 <1>                0.0000
     18 H18         29.4013  37.6778  35.8605 H              1 <1>                0.0000
     19 H19         31.4818  37.5071  34.5602 H              1 <1>                0.0000
     20 H20         25.9375  38.0239  38.0712 H              1 <1>                0.0000
     21 H21         24.5246  37.2377  40.0919 H              1 <1>                0.0000
     22 H22         27.8277  35.9500  41.3375 H              1 <1>                0.0000
@<TRIPOS>BOND
    1    1    2 1     
    2    2    3 ar    
    3    2    7 ar    
    4    3    4 ar    
    5    3   16 1     
    6    4    5 ar    
    7    4   17 1     
    8    5    6 ar    
    9    5    8 1     
   10    6    7 ar    
   11    6   18 1     
   12    7   19 1     
   13    8    9 ar    
   14    8   15 ar    
   15    9   10 ar    
   16   10   11 ar    
   17   10   20 1     
   18   11   12 1     
   19   11   14 ar    
   20   12   13 2     
   21   12   21 1     
   22   14   15 ar    
   23   14   22 1     
@<TRIPOS>SUBSTRUCTURE
      1 ****           1
@<TRIPOS>COMMENT
> <Gold.Version>
2022.2.0

> <Gold.Id.Protein>
1qkm|1qkm_protein|mol2

> <Gold.Protein.RotatedTorsions>
[  496  491  490  487 ] final   67.32 input  -89.99 | X-H torsion

> <Gold.Protein.ActiveResidues>
 MET295  LEU298  THR299  LEU301  ALA302  GLU305  TRP335  MET336  LEU339  MET340 
 GLY342  LEU343  ARG346  PHE356  ILE373  ILE376  PHE377  LEU380  LYS471  GLY472 
 MET473  HIS475  LEU476  LEU477  ASN478  MET479  VAL484  VAL487 

> <Gold.Protein.RotatedAtoms>
   36.6138   33.2300   42.2515 H   0  0  0  0  0  0  0  0  0  0  0  0  # atno 496  bound_to 491 

> <Gold.Score>
     Score     S(PLP)   S(hbond)     S(cho)   S(metal)  DE(clash)   DE(tors)     intcor
     48.62     -48.54       0.10       0.00       0.00       0.00       0.11       0.00

> <Gold.PLP.Fitness>
48.6233

> <Gold.PLP.PLP>
-48.5379

> <Gold.PLP.part.hbond>
-1.0000

> <Gold.PLP.part.metal>
0.0000

> <Gold.PLP.part.buried>
-5.3289

> <Gold.PLP.part.nonpolar>
-42.4528

> <Gold.PLP.part.repulsive>
0.3060

> <Gold.PLP.ligand.clash>
0.0000

> <Gold.PLP.ligand.torsion>
0.1142

> <Gold.PLP.Chemscore.Hbond>
0.1040

> <Gold.PLP.Chemscore.CHOScore>
0.0000

> <Gold.PLP.Chemscore.Metal>
0.0000

> <Gold.Chemscore.Hbonds>
donor molecule, donor type, donor heavy atom, donor atom, acceptor molecule, acceptor atom, score
      P1  H  1258  1270       L1    13  0.10

> <Gold.PLP.Chemscore.Internal.Correction>
0.0017

