#       Name:                EN300-108085_i001
#       Creating user name   aseyller
#       Creation time:       Fri Apr 21 18:59:14 2023


#       File generated by GOLD software.
#

@<TRIPOS>MOLECULE
EN300-108085_i001|benzaldehydes|mol2|677|dock8
    22    23     1
SMALL
USER_CHARGES


@<TRIPOS>ATOM
      1 Cl1         34.3185  36.8882  34.5991 Cl             1 <1>                0.0000
      2 C2          33.0034  36.7585  35.7248 C.ar           1 <1>                0.0000
      3 C3          31.7713  37.3083  35.4127 C.ar           1 <1>                0.0000
      4 C4          30.7228  37.2083  36.3034 C.ar           1 <1>                0.0000
      5 C5          30.9054  36.5517  37.5206 C.ar           1 <1>                0.0000
      6 C6          32.1487  35.9997  37.8300 C.ar           1 <1>                0.0000
      7 C7          33.1886  36.1008  36.9294 C.ar           1 <1>                0.0000
      8 C8          29.7836  36.4415  38.4812 C.ar           1 <1>                0.0000
      9 N9          30.0256  35.9858  39.7046 N.ar           1 <1>                0.0000
     10 C10         29.0547  35.8723  40.5898 C.ar           1 <1>                0.0000
     11 C11         27.7514  36.2420  40.2213 C.ar           1 <1>                0.0000
     12 C12         26.6382  36.1331  41.1746 C.2            1 <1>                0.0000
     13 O13         25.5355  36.5336  40.8676 O.2            1 <1>                0.0000
     14 C14         27.5399  36.7188  38.9178 C.ar           1 <1>                0.0000
     15 N15         28.5667  36.8065  38.0950 N.ar           1 <1>                0.0000
     16 H16         31.6310  37.8167  34.4701 H              1 <1>                0.0000
     17 H17         29.7625  37.6377  36.0590 H              1 <1>                0.0000
     18 H18         32.2955  35.4904  38.7710 H              1 <1>                0.0000
     19 H19         34.1515  35.6738  37.1678 H              1 <1>                0.0000
     20 H20         29.2591  35.5005  41.5831 H              1 <1>                0.0000
     21 H21         26.8023  35.6962  42.1487 H              1 <1>                0.0000
     22 H22         26.5521  37.0133  38.5953 H              1 <1>                0.0000
@<TRIPOS>BOND
    1    1    2 1     
    2    2    3 ar    
    3    2    7 ar    
    4    3    4 ar    
    5    3   16 1     
    6    4    5 ar    
    7    4   17 1     
    8    5    6 ar    
    9    5    8 1     
   10    6    7 ar    
   11    6   18 1     
   12    7   19 1     
   13    8    9 ar    
   14    8   15 ar    
   15    9   10 ar    
   16   10   11 ar    
   17   10   20 1     
   18   11   12 1     
   19   11   14 ar    
   20   12   13 2     
   21   12   21 1     
   22   14   15 ar    
   23   14   22 1     
@<TRIPOS>SUBSTRUCTURE
      1 ****           1
@<TRIPOS>COMMENT
> <Gold.Version>
2022.2.0

> <Gold.Id.Protein>
1qkm|1qkm_protein|mol2

> <Gold.Protein.RotatedTorsions>
[  496  491  490  487 ] final  -82.21 input  -89.99 | X-H torsion

> <Gold.Protein.ActiveResidues>
 MET295  LEU298  THR299  LEU301  ALA302  GLU305  TRP335  MET336  LEU339  MET340 
 GLY342  LEU343  ARG346  PHE356  ILE373  ILE376  PHE377  LEU380  LYS471  GLY472 
 MET473  HIS475  LEU476  LEU477  ASN478  MET479  VAL484  VAL487 

> <Gold.Protein.RotatedAtoms>
   36.6859   34.6968   41.1764 H   0  0  0  0  0  0  0  0  0  0  0  0  # atno 496  bound_to 491 

> <Gold.Score>
     Score     S(PLP)   S(hbond)     S(cho)   S(metal)  DE(clash)   DE(tors)     intcor
     43.00     -41.53       0.00       0.52       0.00       0.00       0.05       0.00

> <Gold.PLP.Fitness>
42.9992

> <Gold.PLP.PLP>
-41.5261

> <Gold.PLP.part.hbond>
0.0000

> <Gold.PLP.part.metal>
0.0000

> <Gold.PLP.part.buried>
0.5353

> <Gold.PLP.part.nonpolar>
-42.9519

> <Gold.PLP.part.repulsive>
0.4992

> <Gold.PLP.ligand.clash>
0.0000

> <Gold.PLP.ligand.torsion>
0.0453

> <Gold.PLP.Chemscore.Hbond>
0.0000

> <Gold.PLP.Chemscore.CHOScore>
0.5212

> <Gold.PLP.Chemscore.Metal>
0.0000

> <Gold.Chemscore.Hbonds>
donor molecule, donor type, donor heavy atom, donor atom, acceptor molecule, acceptor atom, score
      L1  C    10    20       P1   470  0.52

> <Gold.PLP.Chemscore.Internal.Correction>
0.0000

