#       Name:                EN300-108085_i001
#       Creating user name   aseyller
#       Creation time:       Fri Apr 21 18:59:12 2023


#       File generated by GOLD software.
#

@<TRIPOS>MOLECULE
EN300-108085_i001|benzaldehydes|mol2|677|dock5
    22    23     1
SMALL
USER_CHARGES


@<TRIPOS>ATOM
      1 Cl1         25.0933  36.6610  41.5519 Cl             1 <1>                0.0000
      2 C2          26.4205  36.8075  40.4424 C.ar           1 <1>                0.0000
      3 C3          27.7059  36.5063  40.8607 C.ar           1 <1>                0.0000
      4 C4          28.7641  36.6210  39.9835 C.ar           1 <1>                0.0000
      5 C5          28.5377  37.0413  38.6727 C.ar           1 <1>                0.0000
      6 C6          27.2408  37.3434  38.2567 C.ar           1 <1>                0.0000
      7 C7          26.1893  37.2198  39.1407 C.ar           1 <1>                0.0000
      8 C8          29.6700  37.1667  37.7264 C.ar           1 <1>                0.0000
      9 N9          29.4648  37.7469  36.5498 N.ar           1 <1>                0.0000
     10 C10         30.4462  37.8782  35.6788 C.ar           1 <1>                0.0000
     11 C11         31.7212  37.3941  36.0122 C.ar           1 <1>                0.0000
     12 C12         32.8449  37.5190  35.0733 C.2            1 <1>                0.0000
     13 O13         32.6833  38.0672  34.0037 O.2            1 <1>                0.0000
     14 C14         31.8941  36.7877  37.2666 C.ar           1 <1>                0.0000
     15 N15         30.8613  36.7007  38.0820 N.ar           1 <1>                0.0000
     16 H16         27.8801  36.1813  41.8759 H              1 <1>                0.0000
     17 H17         29.7661  36.3861  40.3109 H              1 <1>                0.0000
     18 H18         27.0600  37.6693  37.2430 H              1 <1>                0.0000
     19 H19         25.1849  37.4534  38.8197 H              1 <1>                0.0000
     20 H20         30.2718  38.3510  34.7234 H              1 <1>                0.0000
     21 H21         33.8147  37.1226  35.3360 H              1 <1>                0.0000
     22 H22         32.8591  36.4024  37.5609 H              1 <1>                0.0000
@<TRIPOS>BOND
    1    1    2 1     
    2    2    3 ar    
    3    2    7 ar    
    4    3    4 ar    
    5    3   16 1     
    6    4    5 ar    
    7    4   17 1     
    8    5    6 ar    
    9    5    8 1     
   10    6    7 ar    
   11    6   18 1     
   12    7   19 1     
   13    8    9 ar    
   14    8   15 ar    
   15    9   10 ar    
   16   10   11 ar    
   17   10   20 1     
   18   11   12 1     
   19   11   14 ar    
   20   12   13 2     
   21   12   21 1     
   22   14   15 ar    
   23   14   22 1     
@<TRIPOS>SUBSTRUCTURE
      1 ****           1
@<TRIPOS>COMMENT
> <Gold.Version>
2022.2.0

> <Gold.Id.Protein>
1qkm|1qkm_protein|mol2

> <Gold.Protein.RotatedTorsions>
[  496  491  490  487 ] final -178.09 input  -89.99 | X-H torsion

> <Gold.Protein.ActiveResidues>
 MET295  LEU298  THR299  LEU301  ALA302  GLU305  TRP335  MET336  LEU339  MET340 
 GLY342  LEU343  ARG346  PHE356  ILE373  ILE376  PHE377  LEU380  LYS471  GLY472 
 MET473  HIS475  LEU476  LEU477  ASN478  MET479  VAL484  VAL487 

> <Gold.Protein.RotatedAtoms>
   37.3165   33.4891   40.8520 H   0  0  0  0  0  0  0  0  0  0  0  0  # atno 496  bound_to 491 

> <Gold.Score>
     Score     S(PLP)   S(hbond)     S(cho)   S(metal)  DE(clash)   DE(tors)     intcor
     45.61     -45.69       0.00       0.00       0.00       0.00       0.04       0.00

> <Gold.PLP.Fitness>
45.6091

> <Gold.PLP.PLP>
-45.6899

> <Gold.PLP.part.hbond>
0.0000

> <Gold.PLP.part.metal>
0.0000

> <Gold.PLP.part.buried>
-1.0301

> <Gold.PLP.part.nonpolar>
-45.8686

> <Gold.PLP.part.repulsive>
0.8030

> <Gold.PLP.ligand.clash>
0.0000

> <Gold.PLP.ligand.torsion>
0.0409

> <Gold.PLP.Chemscore.Hbond>
0.0000

> <Gold.PLP.Chemscore.CHOScore>
0.0000

> <Gold.PLP.Chemscore.Metal>
0.0000

> <Gold.PLP.Chemscore.Internal.Correction>
0.0010

