#       Name:                EN300-108085_i001
#       Creating user name   aseyller
#       Creation time:       Fri Apr 21 18:59:14 2023


#       File generated by GOLD software.
#

@<TRIPOS>MOLECULE
EN300-108085_i001|benzaldehydes|mol2|677|dock9
    22    23     1
SMALL
USER_CHARGES


@<TRIPOS>ATOM
      1 Cl1         24.7808  36.9761  41.9514 Cl             1 <1>                0.0000
      2 C2          26.1311  36.9251  40.8615 C.ar           1 <1>                0.0000
      3 C3          27.4057  36.6964  41.3524 C.ar           1 <1>                0.0000
      4 C4          28.4822  36.6549  40.4910 C.ar           1 <1>                0.0000
      5 C5          28.2851  36.8439  39.1229 C.ar           1 <1>                0.0000
      6 C6          26.9990  37.0740  38.6339 C.ar           1 <1>                0.0000
      7 C7          25.9290  37.1078  39.5037 C.ar           1 <1>                0.0000
      8 C8          29.4371  36.8010  38.1932 C.ar           1 <1>                0.0000
      9 N9          30.6048  36.3487  38.6350 N.ar           1 <1>                0.0000
     10 C10         31.6552  36.2942  37.8394 C.ar           1 <1>                0.0000
     11 C11         31.5240  36.7230  36.5090 C.ar           1 <1>                0.0000
     12 C12         32.6670  36.6799  35.5863 C.2            1 <1>                0.0000
     13 O13         33.6015  35.9407  35.8126 O.2            1 <1>                0.0000
     14 C14         30.2716  37.1937  36.0835 C.ar           1 <1>                0.0000
     15 N15         29.2702  37.2107  36.9413 N.ar           1 <1>                0.0000
     16 H16         27.5572  36.5505  42.4118 H              1 <1>                0.0000
     17 H17         29.4758  36.4768  40.8749 H              1 <1>                0.0000
     18 H18         26.8409  37.2210  37.5757 H              1 <1>                0.0000
     19 H19         24.9330  37.2858  39.1262 H              1 <1>                0.0000
     20 H20         32.6019  35.9254  38.2059 H              1 <1>                0.0000
     21 H21         32.6749  37.3064  34.7066 H              1 <1>                0.0000
     22 H22         30.1295  37.5327  35.0679 H              1 <1>                0.0000
@<TRIPOS>BOND
    1    1    2 1     
    2    2    3 ar    
    3    2    7 ar    
    4    3    4 ar    
    5    3   16 1     
    6    4    5 ar    
    7    4   17 1     
    8    5    6 ar    
    9    5    8 1     
   10    6    7 ar    
   11    6   18 1     
   12    7   19 1     
   13    8    9 ar    
   14    8   15 ar    
   15    9   10 ar    
   16   10   11 ar    
   17   10   20 1     
   18   11   12 1     
   19   11   14 ar    
   20   12   13 2     
   21   12   21 1     
   22   14   15 ar    
   23   14   22 1     
@<TRIPOS>SUBSTRUCTURE
      1 ****           1
@<TRIPOS>COMMENT
> <Gold.Version>
2022.2.0

> <Gold.Id.Protein>
1qkm|1qkm_protein|mol2

> <Gold.Protein.RotatedTorsions>
[  496  491  490  487 ] final  137.41 input  -89.99 | X-H torsion

> <Gold.Protein.ActiveResidues>
 MET295  LEU298  THR299  LEU301  ALA302  GLU305  TRP335  MET336  LEU339  MET340 
 GLY342  LEU343  ARG346  PHE356  ILE373  ILE376  PHE377  LEU380  LYS471  GLY472 
 MET473  HIS475  LEU476  LEU477  ASN478  MET479  VAL484  VAL487 

> <Gold.Protein.RotatedAtoms>
   37.1996   33.0088   41.3676 H   0  0  0  0  0  0  0  0  0  0  0  0  # atno 496  bound_to 491 

> <Gold.Score>
     Score     S(PLP)   S(hbond)     S(cho)   S(metal)  DE(clash)   DE(tors)     intcor
     43.84     -44.16       0.00       0.00       0.00       0.00       0.16       0.00

> <Gold.PLP.Fitness>
43.8367

> <Gold.PLP.PLP>
-44.1633

> <Gold.PLP.part.hbond>
0.0000

> <Gold.PLP.part.metal>
0.0000

> <Gold.PLP.part.buried>
1.2471

> <Gold.PLP.part.nonpolar>
-45.6840

> <Gold.PLP.part.repulsive>
0.1290

> <Gold.PLP.ligand.clash>
0.0000

> <Gold.PLP.ligand.torsion>
0.1633

> <Gold.PLP.Chemscore.Hbond>
0.0000

> <Gold.PLP.Chemscore.CHOScore>
0.0000

> <Gold.PLP.Chemscore.Metal>
0.0000

> <Gold.PLP.Chemscore.Internal.Correction>
0.0000

