#       Name:                EN300-108085_i001
#       Creating user name   aseyller
#       Creation time:       Fri Apr 21 18:59:19 2023


#       File generated by GOLD software.
#

@<TRIPOS>MOLECULE
EN300-108085_i001|benzaldehydes|mol2|677|dock19
    22    23     1
SMALL
USER_CHARGES


@<TRIPOS>ATOM
      1 Cl1         24.3312  36.4443  41.8475 Cl             1 <1>                0.0000
      2 C2          25.6231  36.6356  40.7038 C.ar           1 <1>                0.0000
      3 C3          25.4893  37.5303  39.6551 C.ar           1 <1>                0.0000
      4 C4          26.5126  37.6863  38.7434 C.ar           1 <1>                0.0000
      5 C5          27.6839  36.9408  38.8791 C.ar           1 <1>                0.0000
      6 C6          27.8133  36.0410  39.9374 C.ar           1 <1>                0.0000
      7 C7          26.7860  35.8972  40.8465 C.ar           1 <1>                0.0000
      8 C8          28.7858  37.1037  37.9031 C.ar           1 <1>                0.0000
      9 N9          28.7386  38.1123  37.0409 N.ar           1 <1>                0.0000
     10 C10         29.6994  38.2926  36.1557 C.ar           1 <1>                0.0000
     11 C11         30.7819  37.3988  36.1351 C.ar           1 <1>                0.0000
     12 C12         31.8756  37.5608  35.1669 C.2            1 <1>                0.0000
     13 O13         32.7895  36.7639  35.1455 O.2            1 <1>                0.0000
     14 C14         30.7920  36.3465  37.0644 C.ar           1 <1>                0.0000
     15 N15         29.7941  36.2400  37.9199 N.ar           1 <1>                0.0000
     16 H16         24.5819  38.1067  39.5507 H              1 <1>                0.0000
     17 H17         26.4070  38.3841  37.9259 H              1 <1>                0.0000
     18 H18         28.7180  35.4614  40.0471 H              1 <1>                0.0000
     19 H19         26.8850  35.2009  41.6661 H              1 <1>                0.0000
     20 H20         29.6541  39.1151  35.4572 H              1 <1>                0.0000
     21 H21         31.8654  38.3895  34.4743 H              1 <1>                0.0000
     22 H22         31.6066  35.6376  37.0810 H              1 <1>                0.0000
@<TRIPOS>BOND
    1    1    2 1     
    2    2    3 ar    
    3    2    7 ar    
    4    3    4 ar    
    5    3   16 1     
    6    4    5 ar    
    7    4   17 1     
    8    5    6 ar    
    9    5    8 1     
   10    6    7 ar    
   11    6   18 1     
   12    7   19 1     
   13    8    9 ar    
   14    8   15 ar    
   15    9   10 ar    
   16   10   11 ar    
   17   10   20 1     
   18   11   12 1     
   19   11   14 ar    
   20   12   13 2     
   21   12   21 1     
   22   14   15 ar    
   23   14   22 1     
@<TRIPOS>SUBSTRUCTURE
      1 ****           1
@<TRIPOS>COMMENT
> <Gold.Version>
2022.2.0

> <Gold.Id.Protein>
1qkm|1qkm_protein|mol2

> <Gold.Protein.RotatedTorsions>
[  496  491  490  487 ] final  -14.19 input  -89.99 | X-H torsion

> <Gold.Protein.ActiveResidues>
 MET295  LEU298  THR299  LEU301  ALA302  GLU305  TRP335  MET336  LEU339  MET340 
 GLY342  LEU343  ARG346  PHE356  ILE373  ILE376  PHE377  LEU380  LYS471  GLY472 
 MET473  HIS475  LEU476  LEU477  ASN478  MET479  VAL484  VAL487 

> <Gold.Protein.RotatedAtoms>
   36.2681   34.4021   42.0994 H   0  0  0  0  0  0  0  0  0  0  0  0  # atno 496  bound_to 491 

> <Gold.Score>
     Score     S(PLP)   S(hbond)     S(cho)   S(metal)  DE(clash)   DE(tors)     intcor
     37.69     -37.80       0.00       0.00       0.00       0.00       0.05       0.00

> <Gold.PLP.Fitness>
37.6879

> <Gold.PLP.PLP>
-37.7971

> <Gold.PLP.part.hbond>
0.0000

> <Gold.PLP.part.metal>
0.0000

> <Gold.PLP.part.buried>
4.5946

> <Gold.PLP.part.nonpolar>
-42.9046

> <Gold.PLP.part.repulsive>
0.1352

> <Gold.PLP.ligand.clash>
0.0000

> <Gold.PLP.ligand.torsion>
0.0547

> <Gold.PLP.Chemscore.Hbond>
0.0000

> <Gold.PLP.Chemscore.CHOScore>
0.0000

> <Gold.PLP.Chemscore.Metal>
0.0000

> <Gold.PLP.Chemscore.Internal.Correction>
0.0000

