#       Name:                EN300-108085_i001
#       Creating user name   aseyller
#       Creation time:       Fri Apr 21 18:59:16 2023


#       File generated by GOLD software.
#

@<TRIPOS>MOLECULE
EN300-108085_i001|benzaldehydes|mol2|677|dock13
    22    23     1
SMALL
USER_CHARGES


@<TRIPOS>ATOM
      1 Cl1         33.5865  35.5775  36.8206 Cl             1 <1>                0.0000
      2 C2          32.1038  35.8727  37.6739 C.ar           1 <1>                0.0000
      3 C3          31.6327  34.9391  38.5819 C.ar           1 <1>                0.0000
      4 C4          30.4551  35.1683  39.2626 C.ar           1 <1>                0.0000
      5 C5          29.7384  36.3434  39.0351 C.ar           1 <1>                0.0000
      6 C6          30.2177  37.2805  38.1194 C.ar           1 <1>                0.0000
      7 C7          31.3992  37.0434  37.4484 C.ar           1 <1>                0.0000
      8 C8          28.4733  36.5950  39.7628 C.ar           1 <1>                0.0000
      9 N9          27.4236  37.0523  39.0904 N.ar           1 <1>                0.0000
     10 C10         26.2789  37.2894  39.7008 C.ar           1 <1>                0.0000
     11 C11         26.1814  37.0506  41.0809 C.ar           1 <1>                0.0000
     12 C12         24.9259  37.2997  41.8028 C.2            1 <1>                0.0000
     13 O13         24.1882  36.3758  42.0731 O.2            1 <1>                0.0000
     14 C14         27.3154  36.5671  41.7527 C.ar           1 <1>                0.0000
     15 N15         28.4209  36.3513  41.0670 N.ar           1 <1>                0.0000
     16 H16         32.1881  34.0295  38.7570 H              1 <1>                0.0000
     17 H17         30.0886  34.4394  39.9702 H              1 <1>                0.0000
     18 H18         29.6667  38.1918  37.9396 H              1 <1>                0.0000
     19 H19         31.7711  37.7681  36.7393 H              1 <1>                0.0000
     20 H20         25.4293  37.6616  39.1474 H              1 <1>                0.0000
     21 H21         24.6601  38.3056  42.0927 H              1 <1>                0.0000
     22 H22         27.2815  36.3707  42.8143 H              1 <1>                0.0000
@<TRIPOS>BOND
    1    1    2 1     
    2    2    3 ar    
    3    2    7 ar    
    4    3    4 ar    
    5    3   16 1     
    6    4    5 ar    
    7    4   17 1     
    8    5    6 ar    
    9    5    8 1     
   10    6    7 ar    
   11    6   18 1     
   12    7   19 1     
   13    8    9 ar    
   14    8   15 ar    
   15    9   10 ar    
   16   10   11 ar    
   17   10   20 1     
   18   11   12 1     
   19   11   14 ar    
   20   12   13 2     
   21   12   21 1     
   22   14   15 ar    
   23   14   22 1     
@<TRIPOS>SUBSTRUCTURE
      1 ****           1
@<TRIPOS>COMMENT
> <Gold.Version>
2022.2.0

> <Gold.Id.Protein>
1qkm|1qkm_protein|mol2

> <Gold.Protein.RotatedTorsions>
[  496  491  490  487 ] final  -34.37 input  -89.99 | X-H torsion

> <Gold.Protein.ActiveResidues>
 MET295  LEU298  THR299  LEU301  ALA302  GLU305  TRP335  MET336  LEU339  MET340 
 GLY342  LEU343  ARG346  PHE356  ILE373  ILE376  PHE377  LEU380  LYS471  GLY472 
 MET473  HIS475  LEU476  LEU477  ASN478  MET479  VAL484  VAL487 

> <Gold.Protein.RotatedAtoms>
   36.3343   34.6085   41.8498 H   0  0  0  0  0  0  0  0  0  0  0  0  # atno 496  bound_to 491 

> <Gold.Score>
     Score     S(PLP)   S(hbond)     S(cho)   S(metal)  DE(clash)   DE(tors)     intcor
     45.09     -44.32       0.35       0.88       0.00       0.00       1.47       0.00

> <Gold.PLP.Fitness>
45.0879

> <Gold.PLP.PLP>
-44.3233

> <Gold.PLP.part.hbond>
-0.1011

> <Gold.PLP.part.metal>
0.0000

> <Gold.PLP.part.buried>
2.0004

> <Gold.PLP.part.nonpolar>
-48.6630

> <Gold.PLP.part.repulsive>
2.3261

> <Gold.PLP.ligand.clash>
0.0000

> <Gold.PLP.ligand.torsion>
1.4722

> <Gold.PLP.Chemscore.Hbond>
0.3526

> <Gold.PLP.Chemscore.CHOScore>
0.8837

> <Gold.PLP.Chemscore.Metal>
0.0000

> <Gold.Chemscore.Hbonds>
donor molecule, donor type, donor heavy atom, donor atom, acceptor molecule, acceptor atom, score
      P1  H  1258  1270       L1    13  0.35
      L1  C    14    22       P1   582  0.88

> <Gold.PLP.Chemscore.Internal.Correction>
0.0000

