#       Name:                EN300-108085_i001
#       Creating user name   aseyller
#       Creation time:       Fri Apr 21 18:59:11 2023


#       File generated by GOLD software.
#

@<TRIPOS>MOLECULE
EN300-108085_i001|benzaldehydes|mol2|677|dock2
    22    23     1
SMALL
USER_CHARGES


@<TRIPOS>ATOM
      1 Cl1         25.4697  36.9369  41.4546 Cl             1 <1>                0.0000
      2 C2          26.8667  36.8181  40.4309 C.ar           1 <1>                0.0000
      3 C3          26.7504  37.0660  39.0734 C.ar           1 <1>                0.0000
      4 C4          27.8570  36.9730  38.2553 C.ar           1 <1>                0.0000
      5 C5          29.0952  36.6285  38.7979 C.ar           1 <1>                0.0000
      6 C6          29.2067  36.3799  40.1661 C.ar           1 <1>                0.0000
      7 C7          28.0946  36.4813  40.9757 C.ar           1 <1>                0.0000
      8 C8          30.2869  36.5266  37.9245 C.ar           1 <1>                0.0000
      9 N9          30.2457  37.0686  36.7130 N.ar           1 <1>                0.0000
     10 C10         31.2853  37.0000  35.9043 C.ar           1 <1>                0.0000
     11 C11         32.4457  36.3422  36.3423 C.ar           1 <1>                0.0000
     12 C12         33.6284  36.2416  35.4758 C.2            1 <1>                0.0000
     13 O13         33.5992  36.7016  34.3540 O.2            1 <1>                0.0000
     14 C14         32.4463  35.7836  37.6303 C.ar           1 <1>                0.0000
     15 N15         31.3665  35.9009  38.3782 N.ar           1 <1>                0.0000
     16 H16         25.7912  37.3323  38.6543 H              1 <1>                0.0000
     17 H17         27.7651  37.1662  37.1967 H              1 <1>                0.0000
     18 H18         30.1629  36.1128  40.5912 H              1 <1>                0.0000
     19 H19         28.1797  36.2890  42.0350 H              1 <1>                0.0000
     20 H20         31.2444  37.4429  34.9201 H              1 <1>                0.0000
     21 H21         34.5237  35.7581  35.8380 H              1 <1>                0.0000
     22 H22         33.3192  35.2693  38.0044 H              1 <1>                0.0000
@<TRIPOS>BOND
    1    1    2 1     
    2    2    3 ar    
    3    2    7 ar    
    4    3    4 ar    
    5    3   16 1     
    6    4    5 ar    
    7    4   17 1     
    8    5    6 ar    
    9    5    8 1     
   10    6    7 ar    
   11    6   18 1     
   12    7   19 1     
   13    8    9 ar    
   14    8   15 ar    
   15    9   10 ar    
   16   10   11 ar    
   17   10   20 1     
   18   11   12 1     
   19   11   14 ar    
   20   12   13 2     
   21   12   21 1     
   22   14   15 ar    
   23   14   22 1     
@<TRIPOS>SUBSTRUCTURE
      1 ****           1
@<TRIPOS>COMMENT
> <Gold.Version>
2022.2.0

> <Gold.Id.Protein>
1qkm|1qkm_protein|mol2

> <Gold.Protein.RotatedTorsions>
[  496  491  490  487 ] final  131.94 input  -89.99 | X-H torsion

> <Gold.Protein.ActiveResidues>
 MET295  LEU298  THR299  LEU301  ALA302  GLU305  TRP335  MET336  LEU339  MET340 
 GLY342  LEU343  ARG346  PHE356  ILE373  ILE376  PHE377  LEU380  LYS471  GLY472 
 MET473  HIS475  LEU476  LEU477  ASN478  MET479  VAL484  VAL487 

> <Gold.Protein.RotatedAtoms>
   37.1658   32.9796   41.4458 H   0  0  0  0  0  0  0  0  0  0  0  0  # atno 496  bound_to 491 

> <Gold.Score>
     Score     S(PLP)   S(hbond)     S(cho)   S(metal)  DE(clash)   DE(tors)     intcor
     49.94     -50.17       0.00       0.00       0.00       0.00       0.12       0.00

> <Gold.PLP.Fitness>
49.9356

> <Gold.PLP.PLP>
-50.1650

> <Gold.PLP.part.hbond>
-0.1834

> <Gold.PLP.part.metal>
0.0000

> <Gold.PLP.part.buried>
-4.0849

> <Gold.PLP.part.nonpolar>
-46.8335

> <Gold.PLP.part.repulsive>
1.0508

> <Gold.PLP.ligand.clash>
0.0000

> <Gold.PLP.ligand.torsion>
0.1156

> <Gold.PLP.Chemscore.Hbond>
0.0000

> <Gold.PLP.Chemscore.CHOScore>
0.0000

> <Gold.PLP.Chemscore.Metal>
0.0000

> <Gold.PLP.Chemscore.Internal.Correction>
0.0017

