#       Name:                EN300-108085_i001
#       Creating user name   aseyller
#       Creation time:       Fri Apr 21 18:59:18 2023


#       File generated by GOLD software.
#

@<TRIPOS>MOLECULE
EN300-108085_i001|benzaldehydes|mol2|677|dock16
    22    23     1
SMALL
USER_CHARGES


@<TRIPOS>ATOM
      1 Cl1         26.4564  36.5540  42.3384 Cl             1 <1>                0.0000
      2 C2          27.5237  36.6841  40.9755 C.ar           1 <1>                0.0000
      3 C3          27.0039  36.9021  39.7105 C.ar           1 <1>                0.0000
      4 C4          27.8473  37.0063  38.6240 C.ar           1 <1>                0.0000
      5 C5          29.2263  36.8916  38.8012 C.ar           1 <1>                0.0000
      6 C6          29.7444  36.6720  40.0778 C.ar           1 <1>                0.0000
      7 C7          28.8922  36.5751  41.1579 C.ar           1 <1>                0.0000
      8 C8          30.1367  37.0021  37.6384 C.ar           1 <1>                0.0000
      9 N9          31.1087  36.1090  37.4943 N.ar           1 <1>                0.0000
     10 C10         31.9407  36.1719  36.4730 C.ar           1 <1>                0.0000
     11 C11         31.7860  37.2022  35.5319 C.ar           1 <1>                0.0000
     12 C12         32.6892  37.3116  34.3777 C.2            1 <1>                0.0000
     13 O13         33.7285  36.6868  34.3597 O.2            1 <1>                0.0000
     14 C14         30.7453  38.1250  35.7226 C.ar           1 <1>                0.0000
     15 N15         29.9534  37.9880  36.7682 N.ar           1 <1>                0.0000
     16 H16         25.9361  36.9904  39.5743 H              1 <1>                0.0000
     17 H17         27.4408  37.1760  37.6379 H              1 <1>                0.0000
     18 H18         30.8112  36.5824  40.2205 H              1 <1>                0.0000
     19 H19         29.2922  36.4051  42.1466 H              1 <1>                0.0000
     20 H20         32.7292  35.4421  36.3624 H              1 <1>                0.0000
     21 H21         32.4274  37.9484  33.5456 H              1 <1>                0.0000
     22 H22         30.5929  38.9321  35.0213 H              1 <1>                0.0000
@<TRIPOS>BOND
    1    1    2 1     
    2    2    3 ar    
    3    2    7 ar    
    4    3    4 ar    
    5    3   16 1     
    6    4    5 ar    
    7    4   17 1     
    8    5    6 ar    
    9    5    8 1     
   10    6    7 ar    
   11    6   18 1     
   12    7   19 1     
   13    8    9 ar    
   14    8   15 ar    
   15    9   10 ar    
   16   10   11 ar    
   17   10   20 1     
   18   11   12 1     
   19   11   14 ar    
   20   12   13 2     
   21   12   21 1     
   22   14   15 ar    
   23   14   22 1     
@<TRIPOS>SUBSTRUCTURE
      1 ****           1
@<TRIPOS>COMMENT
> <Gold.Version>
2022.2.0

> <Gold.Id.Protein>
1qkm|1qkm_protein|mol2

> <Gold.Protein.RotatedTorsions>
[  496  491  490  487 ] final   84.95 input  -89.99 | X-H torsion

> <Gold.Protein.ActiveResidues>
 MET295  LEU298  THR299  LEU301  ALA302  GLU305  TRP335  MET336  LEU339  MET340 
 GLY342  LEU343  ARG346  PHE356  ILE373  ILE376  PHE377  LEU380  LYS471  GLY472 
 MET473  HIS475  LEU476  LEU477  ASN478  MET479  VAL484  VAL487 

> <Gold.Protein.RotatedAtoms>
   36.7735   33.0582   42.0826 H   0  0  0  0  0  0  0  0  0  0  0  0  # atno 496  bound_to 491 

> <Gold.Score>
     Score     S(PLP)   S(hbond)     S(cho)   S(metal)  DE(clash)   DE(tors)     intcor
     39.95     -41.61       0.00       0.00       0.00       0.00       0.83       0.00

> <Gold.PLP.Fitness>
39.9511

> <Gold.PLP.PLP>
-41.6133

> <Gold.PLP.part.hbond>
-0.3437

> <Gold.PLP.part.metal>
0.0000

> <Gold.PLP.part.buried>
0.6376

> <Gold.PLP.part.nonpolar>
-43.6986

> <Gold.PLP.part.repulsive>
1.4035

> <Gold.PLP.ligand.clash>
0.0000

> <Gold.PLP.ligand.torsion>
0.8311

> <Gold.PLP.Chemscore.Hbond>
0.0000

> <Gold.PLP.Chemscore.CHOScore>
0.0000

> <Gold.PLP.Chemscore.Metal>
0.0000

> <Gold.PLP.Chemscore.Internal.Correction>
0.0000

