#       Name:                EN300-108085_i001
#       Creating user name   aseyller
#       Creation time:       Fri Apr 21 18:59:10 2023


#       File generated by GOLD software.
#

@<TRIPOS>MOLECULE
EN300-108085_i001|benzaldehydes|mol2|677|dock1
    22    23     1
SMALL
USER_CHARGES


@<TRIPOS>ATOM
      1 Cl1         33.7618  36.1619  35.7228 Cl             1 <1>                0.0000
      2 C2          32.3578  36.1885  36.7435 C.ar           1 <1>                0.0000
      3 C3          32.2993  35.3681  37.8577 C.ar           1 <1>                0.0000
      4 C4          31.1862  35.3850  38.6722 C.ar           1 <1>                0.0000
      5 C5          30.1181  36.2306  38.3717 C.ar           1 <1>                0.0000
      6 C6          30.1824  37.0549  37.2481 C.ar           1 <1>                0.0000
      7 C7          31.3027  37.0340  36.4437 C.ar           1 <1>                0.0000
      8 C8          28.9202  36.2528  39.2422 C.ar           1 <1>                0.0000
      9 N9          27.8406  36.9102  38.8355 N.ar           1 <1>                0.0000
     10 C10         26.7534  36.9544  39.5807 C.ar           1 <1>                0.0000
     11 C11         26.7501  36.2930  40.8192 C.ar           1 <1>                0.0000
     12 C12         25.5612  36.3147  41.6828 C.2            1 <1>                0.0000
     13 O13         24.8949  37.3241  41.7721 O.2            1 <1>                0.0000
     14 C14         27.9127  35.6102  41.2104 C.ar           1 <1>                0.0000
     15 N15         28.9559  35.6103  40.4037 N.ar           1 <1>                0.0000
     16 H16         33.1266  34.7135  38.0892 H              1 <1>                0.0000
     17 H17         31.1416  34.7446  39.5406 H              1 <1>                0.0000
     18 H18         29.3583  37.7114  37.0109 H              1 <1>                0.0000
     19 H19         31.3536  37.6716  35.5736 H              1 <1>                0.0000
     20 H20         25.8791  37.4913  39.2435 H              1 <1>                0.0000
     21 H21         25.2808  35.4316  42.2379 H              1 <1>                0.0000
     22 H22         27.9506  35.0890  42.1556 H              1 <1>                0.0000
@<TRIPOS>BOND
    1    1    2 1     
    2    2    3 ar    
    3    2    7 ar    
    4    3    4 ar    
    5    3   16 1     
    6    4    5 ar    
    7    4   17 1     
    8    5    6 ar    
    9    5    8 1     
   10    6    7 ar    
   11    6   18 1     
   12    7   19 1     
   13    8    9 ar    
   14    8   15 ar    
   15    9   10 ar    
   16   10   11 ar    
   17   10   20 1     
   18   11   12 1     
   19   11   14 ar    
   20   12   13 2     
   21   12   21 1     
   22   14   15 ar    
   23   14   22 1     
@<TRIPOS>SUBSTRUCTURE
      1 ****           1
@<TRIPOS>COMMENT
> <Gold.Version>
2022.2.0

> <Gold.Id.Protein>
1qkm|1qkm_protein|mol2

> <Gold.Protein.RotatedTorsions>
[  496  491  490  487 ] final -152.39 input  -89.99 | X-H torsion

> <Gold.Protein.ActiveResidues>
 MET295  LEU298  THR299  LEU301  ALA302  GLU305  TRP335  MET336  LEU339  MET340 
 GLY342  LEU343  ARG346  PHE356  ILE373  ILE376  PHE377  LEU380  LYS471  GLY472 
 MET473  HIS475  LEU476  LEU477  ASN478  MET479  VAL484  VAL487 

> <Gold.Protein.RotatedAtoms>
   37.2430   33.8825   40.7264 H   0  0  0  0  0  0  0  0  0  0  0  0  # atno 496  bound_to 491 

> <Gold.Score>
     Score     S(PLP)   S(hbond)     S(cho)   S(metal)  DE(clash)   DE(tors)     intcor
     49.86     -46.76       0.26       1.00       0.00       0.00       0.33       0.00

> <Gold.PLP.Fitness>
49.8579

> <Gold.PLP.PLP>
-46.7553

> <Gold.PLP.part.hbond>
-0.5752

> <Gold.PLP.part.metal>
0.0000

> <Gold.PLP.part.buried>
-1.7174

> <Gold.PLP.part.nonpolar>
-45.1619

> <Gold.PLP.part.repulsive>
0.3602

> <Gold.PLP.ligand.clash>
0.0000

> <Gold.PLP.ligand.torsion>
0.3335

> <Gold.PLP.Chemscore.Hbond>
0.2560

> <Gold.PLP.Chemscore.CHOScore>
1.0000

> <Gold.PLP.Chemscore.Metal>
0.0000

> <Gold.Chemscore.Hbonds>
donor molecule, donor type, donor heavy atom, donor atom, acceptor molecule, acceptor atom, score
      P1  H  1258  1270       L1    13  0.26
      L1  C    14    22       P1   582  1.00

> <Gold.PLP.Chemscore.Internal.Correction>
0.0017

