#       Name:                EN300-108085_i001
#       Creating user name   aseyller
#       Creation time:       Fri Apr 21 18:59:12 2023


#       File generated by GOLD software.
#

@<TRIPOS>MOLECULE
EN300-108085_i001|benzaldehydes|mol2|677|dock4
    22    23     1
SMALL
USER_CHARGES


@<TRIPOS>ATOM
      1 Cl1         32.9568  37.3525  34.6235 Cl             1 <1>                0.0000
      2 C2          31.7759  37.2025  35.8870 C.ar           1 <1>                0.0000
      3 C3          30.4818  37.6495  35.6785 C.ar           1 <1>                0.0000
      4 C4          29.5394  37.5330  36.6789 C.ar           1 <1>                0.0000
      5 C5          29.8919  36.9635  37.9027 C.ar           1 <1>                0.0000
      6 C6          31.1970  36.5150  38.1074 C.ar           1 <1>                0.0000
      7 C7          32.1298  36.6314  37.0980 C.ar           1 <1>                0.0000
      8 C8          28.8846  36.8361  38.9808 C.ar           1 <1>                0.0000
      9 N9          29.2946  36.5907  40.2196 N.ar           1 <1>                0.0000
     10 C10         28.4300  36.4700  41.2081 C.ar           1 <1>                0.0000
     11 C11         27.0597  36.6054  40.9338 C.ar           1 <1>                0.0000
     12 C12         26.0601  36.4794  42.0037 C.2            1 <1>                0.0000
     13 O13         24.9031  36.7734  41.7903 O.2            1 <1>                0.0000
     14 C14         26.6699  36.8646  39.6102 C.ar           1 <1>                0.0000
     15 N15         27.5987  36.9761  38.6807 N.ar           1 <1>                0.0000
     16 H16         30.2100  38.0905  34.7308 H              1 <1>                0.0000
     17 H17         28.5306  37.8821  36.5152 H              1 <1>                0.0000
     18 H18         31.4752  36.0734  39.0529 H              1 <1>                0.0000
     19 H19         33.1404  36.2845  37.2553 H              1 <1>                0.0000
     20 H20         28.7708  36.2701  42.2133 H              1 <1>                0.0000
     21 H21         26.3560  36.1249  42.9801 H              1 <1>                0.0000
     22 H22         25.6256  36.9753  39.3579 H              1 <1>                0.0000
@<TRIPOS>BOND
    1    1    2 1     
    2    2    3 ar    
    3    2    7 ar    
    4    3    4 ar    
    5    3   16 1     
    6    4    5 ar    
    7    4   17 1     
    8    5    6 ar    
    9    5    8 1     
   10    6    7 ar    
   11    6   18 1     
   12    7   19 1     
   13    8    9 ar    
   14    8   15 ar    
   15    9   10 ar    
   16   10   11 ar    
   17   10   20 1     
   18   11   12 1     
   19   11   14 ar    
   20   12   13 2     
   21   12   21 1     
   22   14   15 ar    
   23   14   22 1     
@<TRIPOS>SUBSTRUCTURE
      1 ****           1
@<TRIPOS>COMMENT
> <Gold.Version>
2022.2.0

> <Gold.Id.Protein>
1qkm|1qkm_protein|mol2

> <Gold.Protein.RotatedTorsions>
[  496  491  490  487 ] final -125.46 input  -89.99 | X-H torsion

> <Gold.Protein.ActiveResidues>
 MET295  LEU298  THR299  LEU301  ALA302  GLU305  TRP335  MET336  LEU339  MET340 
 GLY342  LEU343  ARG346  PHE356  ILE373  ILE376  PHE377  LEU380  LYS471  GLY472 
 MET473  HIS475  LEU476  LEU477  ASN478  MET479  VAL484  VAL487 

> <Gold.Protein.RotatedAtoms>
   37.0701   34.2839   40.7699 H   0  0  0  0  0  0  0  0  0  0  0  0  # atno 496  bound_to 491 

> <Gold.Score>
     Score     S(PLP)   S(hbond)     S(cho)   S(metal)  DE(clash)   DE(tors)     intcor
     46.91     -45.49       0.56       0.00       0.00       0.00       0.13       0.00

> <Gold.PLP.Fitness>
46.9133

> <Gold.PLP.PLP>
-45.4916

> <Gold.PLP.part.hbond>
-1.0000

> <Gold.PLP.part.metal>
0.0000

> <Gold.PLP.part.buried>
-1.0430

> <Gold.PLP.part.nonpolar>
-44.8281

> <Gold.PLP.part.repulsive>
0.3762

> <Gold.PLP.ligand.clash>
0.0000

> <Gold.PLP.ligand.torsion>
0.1300

> <Gold.PLP.Chemscore.Hbond>
0.5600

> <Gold.PLP.Chemscore.CHOScore>
0.0000

> <Gold.PLP.Chemscore.Metal>
0.0000

> <Gold.Chemscore.Hbonds>
donor molecule, donor type, donor heavy atom, donor atom, acceptor molecule, acceptor atom, score
      P1  H  1258  1270       L1    13  0.56

> <Gold.PLP.Chemscore.Internal.Correction>
0.0017

