#       Name:                EN300-108085_i001
#       Creating user name   aseyller
#       Creation time:       Fri Apr 21 18:59:20 2023


#       File generated by GOLD software.
#

@<TRIPOS>MOLECULE
EN300-108085_i001|benzaldehydes|mol2|677|dock20
    22    23     1
SMALL
USER_CHARGES


@<TRIPOS>ATOM
      1 Cl1         33.6101  37.3121  34.2995 Cl             1 <1>                0.0000
      2 C2          32.1850  37.3100  35.2909 C.ar           1 <1>                0.0000
      3 C3          32.0539  36.3800  36.3086 C.ar           1 <1>                0.0000
      4 C4          30.9237  36.3737  37.0993 C.ar           1 <1>                0.0000
      5 C5          29.9115  37.3065  36.8722 C.ar           1 <1>                0.0000
      6 C6          30.0488  38.2411  35.8456 C.ar           1 <1>                0.0000
      7 C7          31.1858  38.2419  35.0647 C.ar           1 <1>                0.0000
      8 C8          28.6956  37.3043  37.7176 C.ar           1 <1>                0.0000
      9 N9          27.7268  38.1736  37.4547 N.ar           1 <1>                0.0000
     10 C10         26.6281  38.2045  38.1834 C.ar           1 <1>                0.0000
     11 C11         26.4927  37.3004  39.2490 C.ar           1 <1>                0.0000
     12 C12         25.2858  37.2979  40.0876 C.2            1 <1>                0.0000
     13 O13         25.3817  37.1527  41.2878 O.2            1 <1>                0.0000
     14 C14         27.5409  36.3985  39.4918 C.ar           1 <1>                0.0000
     15 N15         28.6042  36.4297  38.7124 N.ar           1 <1>                0.0000
     16 H16         32.8379  35.6580  36.4834 H              1 <1>                0.0000
     17 H17         30.8224  35.6478  37.8925 H              1 <1>                0.0000
     18 H18         29.2682  38.9654  35.6655 H              1 <1>                0.0000
     19 H19         31.2931  38.9649  34.2696 H              1 <1>                0.0000
     20 H20         25.8444  38.9145  37.9638 H              1 <1>                0.0000
     21 H21         24.3135  37.4256  39.6350 H              1 <1>                0.0000
     22 H22         27.4755  35.6872  40.3019 H              1 <1>                0.0000
@<TRIPOS>BOND
    1    1    2 1     
    2    2    3 ar    
    3    2    7 ar    
    4    3    4 ar    
    5    3   16 1     
    6    4    5 ar    
    7    4   17 1     
    8    5    6 ar    
    9    5    8 1     
   10    6    7 ar    
   11    6   18 1     
   12    7   19 1     
   13    8    9 ar    
   14    8   15 ar    
   15    9   10 ar    
   16   10   11 ar    
   17   10   20 1     
   18   11   12 1     
   19   11   14 ar    
   20   12   13 2     
   21   12   21 1     
   22   14   15 ar    
   23   14   22 1     
@<TRIPOS>SUBSTRUCTURE
      1 ****           1
@<TRIPOS>COMMENT
> <Gold.Version>
2022.2.0

> <Gold.Id.Protein>
1qkm|1qkm_protein|mol2

> <Gold.Protein.RotatedTorsions>
[  496  491  490  487 ] final    8.45 input  -89.99 | X-H torsion

> <Gold.Protein.ActiveResidues>
 MET295  LEU298  THR299  LEU301  ALA302  GLU305  TRP335  MET336  LEU339  MET340 
 GLY342  LEU343  ARG346  PHE356  ILE373  ILE376  PHE377  LEU380  LYS471  GLY472 
 MET473  HIS475  LEU476  LEU477  ASN478  MET479  VAL484  VAL487 

> <Gold.Protein.RotatedAtoms>
   36.2701   34.0897   42.2980 H   0  0  0  0  0  0  0  0  0  0  0  0  # atno 496  bound_to 491 

> <Gold.Score>
     Score     S(PLP)   S(hbond)     S(cho)   S(metal)  DE(clash)   DE(tors)     intcor
     39.81     -40.45       0.00       0.00       0.00       0.00       0.32       0.00

> <Gold.PLP.Fitness>
39.8087

> <Gold.PLP.PLP>
-40.4482

> <Gold.PLP.part.hbond>
-0.7392

> <Gold.PLP.part.metal>
0.0000

> <Gold.PLP.part.buried>
0.3046

> <Gold.PLP.part.nonpolar>
-40.0647

> <Gold.PLP.part.repulsive>
0.2057

> <Gold.PLP.ligand.clash>
0.0000

> <Gold.PLP.ligand.torsion>
0.3198

> <Gold.PLP.Chemscore.Hbond>
0.0000

> <Gold.PLP.Chemscore.CHOScore>
0.0000

> <Gold.PLP.Chemscore.Metal>
0.0000

> <Gold.PLP.Chemscore.Internal.Correction>
0.0000

