#       Name:                EN300-108085_i001
#       Creating user name   aseyller
#       Creation time:       Fri Apr 21 18:59:15 2023


#       File generated by GOLD software.
#

@<TRIPOS>MOLECULE
EN300-108085_i001|benzaldehydes|mol2|677|dock10
    22    23     1
SMALL
USER_CHARGES


@<TRIPOS>ATOM
      1 Cl1         34.4361  35.4977  36.4532 Cl             1 <1>                0.0000
      2 C2          32.9310  35.6618  37.3026 C.ar           1 <1>                0.0000
      3 C3          32.4291  36.9225  37.5796 C.ar           1 <1>                0.0000
      4 C4          31.2338  37.0589  38.2543 C.ar           1 <1>                0.0000
      5 C5          30.5302  35.9239  38.6579 C.ar           1 <1>                0.0000
      6 C6          31.0405  34.6564  38.3763 C.ar           1 <1>                0.0000
      7 C7          32.2340  34.5317  37.6960 C.ar           1 <1>                0.0000
      8 C8          29.2466  36.0640  39.3830 C.ar           1 <1>                0.0000
      9 N9          29.2522  36.5697  40.6107 N.ar           1 <1>                0.0000
     10 C10         28.1310  36.7112  41.2904 C.ar           1 <1>                0.0000
     11 C11         26.9211  36.3179  40.6966 C.ar           1 <1>                0.0000
     12 C12         25.6472  36.4574  41.4160 C.2            1 <1>                0.0000
     13 O13         25.5124  37.3307  42.2467 O.2            1 <1>                0.0000
     14 C14         26.9607  35.7882  39.3970 C.ar           1 <1>                0.0000
     15 N15         28.1237  35.6852  38.7841 N.ar           1 <1>                0.0000
     16 H16         32.9747  37.8006  37.2669 H              1 <1>                0.0000
     17 H17         30.8434  38.0425  38.4699 H              1 <1>                0.0000
     18 H18         30.4999  33.7744  38.6865 H              1 <1>                0.0000
     19 H19         32.6300  33.5510  37.4775 H              1 <1>                0.0000
     20 H20         28.1434  37.1231  42.2888 H              1 <1>                0.0000
     21 H21         24.8311  35.7822  41.2049 H              1 <1>                0.0000
     22 H22         26.0519  35.4739  38.9052 H              1 <1>                0.0000
@<TRIPOS>BOND
    1    1    2 1     
    2    2    3 ar    
    3    2    7 ar    
    4    3    4 ar    
    5    3   16 1     
    6    4    5 ar    
    7    4   17 1     
    8    5    6 ar    
    9    5    8 1     
   10    6    7 ar    
   11    6   18 1     
   12    7   19 1     
   13    8    9 ar    
   14    8   15 ar    
   15    9   10 ar    
   16   10   11 ar    
   17   10   20 1     
   18   11   12 1     
   19   11   14 ar    
   20   12   13 2     
   21   12   21 1     
   22   14   15 ar    
   23   14   22 1     
@<TRIPOS>SUBSTRUCTURE
      1 ****           1
@<TRIPOS>COMMENT
> <Gold.Version>
2022.2.0

> <Gold.Id.Protein>
1qkm|1qkm_protein|mol2

> <Gold.Protein.RotatedTorsions>
[  496  491  490  487 ] final -163.54 input  -89.99 | X-H torsion

> <Gold.Protein.ActiveResidues>
 MET295  LEU298  THR299  LEU301  ALA302  GLU305  TRP335  MET336  LEU339  MET340 
 GLY342  LEU343  ARG346  PHE356  ILE373  ILE376  PHE377  LEU380  LYS471  GLY472 
 MET473  HIS475  LEU476  LEU477  ASN478  MET479  VAL484  VAL487 

> <Gold.Protein.RotatedAtoms>
   37.2872   33.7083   40.7616 H   0  0  0  0  0  0  0  0  0  0  0  0  # atno 496  bound_to 491 

> <Gold.Score>
     Score     S(PLP)   S(hbond)     S(cho)   S(metal)  DE(clash)   DE(tors)     intcor
     42.96     -45.65       0.07       0.00       0.00       0.00       1.46       0.00

> <Gold.PLP.Fitness>
42.9592

> <Gold.PLP.PLP>
-45.6482

> <Gold.PLP.part.hbond>
-1.0000

> <Gold.PLP.part.metal>
0.0000

> <Gold.PLP.part.buried>
-4.5844

> <Gold.PLP.part.nonpolar>
-40.8200

> <Gold.PLP.part.repulsive>
0.3578

> <Gold.PLP.ligand.clash>
0.0000

> <Gold.PLP.ligand.torsion>
1.4568

> <Gold.PLP.Chemscore.Hbond>
0.0749

> <Gold.PLP.Chemscore.CHOScore>
0.0000

> <Gold.PLP.Chemscore.Metal>
0.0000

> <Gold.Chemscore.Hbonds>
donor molecule, donor type, donor heavy atom, donor atom, acceptor molecule, acceptor atom, score
      P1  H  1258  1270       L1    13  0.07

> <Gold.PLP.Chemscore.Internal.Correction>
0.0000

