#       Name:                EN300-108085_i001
#       Creating user name   aseyller
#       Creation time:       Fri Apr 21 18:59:13 2023


#       File generated by GOLD software.
#

@<TRIPOS>MOLECULE
EN300-108085_i001|benzaldehydes|mol2|677|dock7
    22    23     1
SMALL
USER_CHARGES


@<TRIPOS>ATOM
      1 Cl1         32.3967  38.2042  34.0227 Cl             1 <1>                0.0000
      2 C2          31.2217  37.8929  35.2622 C.ar           1 <1>                0.0000
      3 C3          30.1419  38.7457  35.4190 C.ar           1 <1>                0.0000
      4 C4          29.2054  38.5033  36.4022 C.ar           1 <1>                0.0000
      5 C5          29.3474  37.3965  37.2395 C.ar           1 <1>                0.0000
      6 C6          30.4371  36.5406  37.0770 C.ar           1 <1>                0.0000
      7 C7          31.3646  36.7895  36.0868 C.ar           1 <1>                0.0000
      8 C8          28.3454  37.1312  38.2971 C.ar           1 <1>                0.0000
      9 N9          27.1485  37.6994  38.2076 N.ar           1 <1>                0.0000
     10 C10         26.2280  37.4891  39.1282 C.ar           1 <1>                0.0000
     11 C11         26.5299  36.6507  40.2132 C.ar           1 <1>                0.0000
     12 C12         25.5353  36.3871  41.2625 C.2            1 <1>                0.0000
     13 O13         24.8952  37.3025  41.7350 O.2            1 <1>                0.0000
     14 C14         27.8072  36.0705  40.2687 C.ar           1 <1>                0.0000
     15 N15         28.6685  36.3281  39.3039 N.ar           1 <1>                0.0000
     16 H16         30.0331  39.6026  34.7705 H              1 <1>                0.0000
     17 H17         28.3639  39.1692  36.5238 H              1 <1>                0.0000
     18 H18         30.5519  35.6824  37.7224 H              1 <1>                0.0000
     19 H19         32.2086  36.1277  35.9602 H              1 <1>                0.0000
     20 H20         25.2568  37.9549  39.0489 H              1 <1>                0.0000
     21 H21         25.3744  35.3782  41.6128 H              1 <1>                0.0000
     22 H22         28.0787  35.4198  41.0868 H              1 <1>                0.0000
@<TRIPOS>BOND
    1    1    2 1     
    2    2    3 ar    
    3    2    7 ar    
    4    3    4 ar    
    5    3   16 1     
    6    4    5 ar    
    7    4   17 1     
    8    5    6 ar    
    9    5    8 1     
   10    6    7 ar    
   11    6   18 1     
   12    7   19 1     
   13    8    9 ar    
   14    8   15 ar    
   15    9   10 ar    
   16   10   11 ar    
   17   10   20 1     
   18   11   12 1     
   19   11   14 ar    
   20   12   13 2     
   21   12   21 1     
   22   14   15 ar    
   23   14   22 1     
@<TRIPOS>SUBSTRUCTURE
      1 ****           1
@<TRIPOS>COMMENT
> <Gold.Version>
2022.2.0

> <Gold.Id.Protein>
1qkm|1qkm_protein|mol2

> <Gold.Protein.RotatedTorsions>
[  496  491  490  487 ] final -154.13 input  -89.99 | X-H torsion

> <Gold.Protein.ActiveResidues>
 MET295  LEU298  THR299  LEU301  ALA302  GLU305  TRP335  MET336  LEU339  MET340 
 GLY342  LEU343  ARG346  PHE356  ILE373  ILE376  PHE377  LEU380  LYS471  GLY472 
 MET473  HIS475  LEU476  LEU477  ASN478  MET479  VAL484  VAL487 

> <Gold.Protein.RotatedAtoms>
   37.2511   33.8552   40.7298 H   0  0  0  0  0  0  0  0  0  0  0  0  # atno 496  bound_to 491 

> <Gold.Score>
     Score     S(PLP)   S(hbond)     S(cho)   S(metal)  DE(clash)   DE(tors)     intcor
     45.34     -45.61       0.27       0.00       0.00       0.00       0.54       0.00

> <Gold.PLP.Fitness>
45.3412

> <Gold.PLP.PLP>
-45.6096

> <Gold.PLP.part.hbond>
-0.6856

> <Gold.PLP.part.metal>
0.0000

> <Gold.PLP.part.buried>
-2.8839

> <Gold.PLP.part.nonpolar>
-42.6879

> <Gold.PLP.part.repulsive>
0.2818

> <Gold.PLP.ligand.clash>
0.0000

> <Gold.PLP.ligand.torsion>
0.5423

> <Gold.PLP.Chemscore.Hbond>
0.2720

> <Gold.PLP.Chemscore.CHOScore>
0.0000

> <Gold.PLP.Chemscore.Metal>
0.0000

> <Gold.Chemscore.Hbonds>
donor molecule, donor type, donor heavy atom, donor atom, acceptor molecule, acceptor atom, score
      P1  H  1258  1270       L1    13  0.27

> <Gold.PLP.Chemscore.Internal.Correction>
0.0000

