#       Name:                EN300-108085_i001
#       Creating user name   aseyller
#       Creation time:       Fri Apr 21 18:59:18 2023


#       File generated by GOLD software.
#

@<TRIPOS>MOLECULE
EN300-108085_i001|benzaldehydes|mol2|677|dock17
    22    23     1
SMALL
USER_CHARGES


@<TRIPOS>ATOM
      1 Cl1         32.1210  39.7337  33.9538 Cl             1 <1>                0.0000
      2 C2          31.0285  39.1409  35.1658 C.ar           1 <1>                0.0000
      3 C3          30.6073  37.8221  35.1292 C.ar           1 <1>                0.0000
      4 C4          29.7394  37.3457  36.0896 C.ar           1 <1>                0.0000
      5 C5          29.2858  38.1951  37.0990 C.ar           1 <1>                0.0000
      6 C6          29.7133  39.5227  37.1310 C.ar           1 <1>                0.0000
      7 C7          30.5858  39.9869  36.1689 C.ar           1 <1>                0.0000
      8 C8          28.3535  37.6894  38.1326 C.ar           1 <1>                0.0000
      9 N9          27.0634  37.9898  38.0388 N.ar           1 <1>                0.0000
     10 C10         26.2004  37.5594  38.9383 C.ar           1 <1>                0.0000
     11 C11         26.6645  36.7733  40.0050 C.ar           1 <1>                0.0000
     12 C12         25.7392  36.2711  41.0304 C.2            1 <1>                0.0000
     13 O13         24.9066  37.0108  41.5105 O.2            1 <1>                0.0000
     14 C14         28.0359  36.4795  40.0657 C.ar           1 <1>                0.0000
     15 N15         28.8315  36.9447  39.1225 N.ar           1 <1>                0.0000
     16 H16         30.9589  37.1654  34.3471 H              1 <1>                0.0000
     17 H17         29.4114  36.3172  36.0600 H              1 <1>                0.0000
     18 H18         29.3652  40.1845  37.9103 H              1 <1>                0.0000
     19 H19         30.9174  41.0144  36.1926 H              1 <1>                0.0000
     20 H20         25.1526  37.8080  38.8556 H              1 <1>                0.0000
     21 H21         25.8006  35.2433  41.3564 H              1 <1>                0.0000
     22 H22         28.4327  35.8781  40.8703 H              1 <1>                0.0000
@<TRIPOS>BOND
    1    1    2 1     
    2    2    3 ar    
    3    2    7 ar    
    4    3    4 ar    
    5    3   16 1     
    6    4    5 ar    
    7    4   17 1     
    8    5    6 ar    
    9    5    8 1     
   10    6    7 ar    
   11    6   18 1     
   12    7   19 1     
   13    8    9 ar    
   14    8   15 ar    
   15    9   10 ar    
   16   10   11 ar    
   17   10   20 1     
   18   11   12 1     
   19   11   14 ar    
   20   12   13 2     
   21   12   21 1     
   22   14   15 ar    
   23   14   22 1     
@<TRIPOS>SUBSTRUCTURE
      1 ****           1
@<TRIPOS>COMMENT
> <Gold.Version>
2022.2.0

> <Gold.Id.Protein>
1qkm|1qkm_protein|mol2

> <Gold.Protein.RotatedTorsions>
[  496  491  490  487 ] final  165.10 input  -89.99 | X-H torsion

> <Gold.Protein.ActiveResidues>
 MET295  LEU298  THR299  LEU301  ALA302  GLU305  TRP335  MET336  LEU339  MET340 
 GLY342  LEU343  ARG346  PHE356  ILE373  ILE376  PHE377  LEU380  LYS471  GLY472 
 MET473  HIS475  LEU476  LEU477  ASN478  MET479  VAL484  VAL487 

> <Gold.Protein.RotatedAtoms>
   37.3082   33.2645   41.0119 H   0  0  0  0  0  0  0  0  0  0  0  0  # atno 496  bound_to 491 

> <Gold.Score>
     Score     S(PLP)   S(hbond)     S(cho)   S(metal)  DE(clash)   DE(tors)     intcor
     39.46     -41.68       0.46       0.00       0.00       0.00       1.81       0.00

> <Gold.PLP.Fitness>
39.4558

> <Gold.PLP.PLP>
-41.6836

> <Gold.PLP.part.hbond>
-1.0000

> <Gold.PLP.part.metal>
0.0000

> <Gold.PLP.part.buried>
-3.4930

> <Gold.PLP.part.nonpolar>
-37.8942

> <Gold.PLP.part.repulsive>
0.2721

> <Gold.PLP.ligand.clash>
0.0000

> <Gold.PLP.ligand.torsion>
1.8099

> <Gold.PLP.Chemscore.Hbond>
0.4640

> <Gold.PLP.Chemscore.CHOScore>
0.0000

> <Gold.PLP.Chemscore.Metal>
0.0000

> <Gold.Chemscore.Hbonds>
donor molecule, donor type, donor heavy atom, donor atom, acceptor molecule, acceptor atom, score
      P1  H  1258  1270       L1    13  0.46

> <Gold.PLP.Chemscore.Internal.Correction>
0.0000

