#       Name:                EN300-108085_i001
#       Creating user name   aseyller
#       Creation time:       Fri Apr 21 18:59:10 2023


#       File generated by GOLD software.
#

@<TRIPOS>MOLECULE
EN300-108085_i001
    22    23     1
SMALL
USER_CHARGES


@<TRIPOS>ATOM
      1 Cl1         -5.6082   0.2044  -0.0013 Cl             1 <1>                0.0000
      2 C2          -3.8734   0.1395  -0.0007 C.ar           1 <1>                0.0000
      3 C3          -3.1391   1.3137   0.0008 C.ar           1 <1>                0.0000
      4 C4          -1.7605   1.2681   0.0012 C.ar           1 <1>                0.0000
      5 C5          -1.1060   0.0361   0.0001 C.ar           1 <1>                0.0000
      6 C6          -1.8507  -1.1436  -0.0014 C.ar           1 <1>                0.0000
      7 C7          -3.2288  -1.0862   0.0039 C.ar           1 <1>                0.0000
      8 C8           0.3739  -0.0192   0.0001 C.ar           1 <1>                0.0000
      9 N9           0.9742  -1.2036  -0.0010 N.ar           1 <1>                0.0000
     10 C10          2.2897  -1.2965  -0.0010 C.ar           1 <1>                0.0000
     11 C11          3.0549  -0.1194   0.0000 C.ar           1 <1>                0.0000
     12 C12          4.5235  -0.1743  -0.0005 C.2            1 <1>                0.0000
     13 O13          5.1687   0.8526   0.0005 O.2            1 <1>                0.0000
     14 C14          2.3797   1.1115   0.0011 C.ar           1 <1>                0.0000
     15 N15          1.0610   1.1170  -0.0043 N.ar           1 <1>                0.0000
     16 H16         -3.6468   2.2670   0.0013 H              1 <1>                0.0000
     17 H17         -1.1889   2.1844   0.0021 H              1 <1>                0.0000
     18 H18         -1.3490  -2.1000  -0.0023 H              1 <1>                0.0000
     19 H19         -3.8063  -1.9988   0.0027 H              1 <1>                0.0000
     20 H20          2.7710  -2.2634  -0.0016 H              1 <1>                0.0000
     21 H21          5.0282  -1.1292  -0.0017 H              1 <1>                0.0000
     22 H22          2.9319   2.0397   0.0020 H              1 <1>                0.0000
@<TRIPOS>BOND
    1    1    2 1     
    2    2    3 ar    
    3    2    7 ar    
    4    3    4 ar    
    5    3   16 1     
    6    4    5 ar    
    7    4   17 1     
    8    5    6 ar    
    9    5    8 1     
   10    6    7 ar    
   11    6   18 1     
   12    7   19 1     
   13    8    9 ar    
   14    8   15 ar    
   15    9   10 ar    
   16   10   11 ar    
   17   10   20 1     
   18   11   12 1     
   19   11   14 ar    
   20   12   13 2     
   21   12   21 1     
   22   14   15 ar    
   23   14   22 1     
@<TRIPOS>SUBSTRUCTURE
      1 ****           1
