#       Name:                amine_i001
#       Creating user name   fsindt
#       Creation time:       Fri Aug 11 18:07:58 2023


#       File generated by GOLD software.
#

@<TRIPOS>MOLECULE
amine_i001|amine|mol2|1|dock17
    26    26     1
SMALL
NO_CHARGES


@<TRIPOS>ATOM
      1 C1          -1.2473 -11.7644  10.8963 C.3            1 <1>                0.0000
      2 C2          -0.7005 -13.1903  10.8030 C.3            1 <1>                0.0000
      3 N3           0.3787 -13.2369   9.8074 N.4            1 <1>                0.0000
      4 H4           1.1676 -12.7001  10.1354 H              1 <1>                0.0000
      5 C5          -0.1032 -12.6806   8.5252 C.3            1 <1>                0.0000
      6 C6           0.5882 -13.5392   7.4368 C.3            1 <1>                0.0000
      7 C7           0.5738 -14.9456   8.0913 C.3            1 <1>                0.0000
      8 C8           0.7883 -14.6355   9.5847 C.3            1 <1>                0.0000
      9 C9          -0.0687 -15.5717  10.4390 C.3            1 <1>                0.0000
     10 N10          0.1015 -16.9541   9.9720 N.3            1 <1>                0.0000
     11 H11         -0.4472 -11.0873  11.1957 H              1 <1>                0.0000
     12 H12         -1.6362 -11.4601   9.9245 H              1 <1>                0.0000
     13 H13         -2.0480 -11.7299  11.6350 H              1 <1>                0.0000
     14 H14         -0.3116 -13.4946  11.7748 H              1 <1>                0.0000
     15 H15         -1.5005 -13.8674  10.5037 H              1 <1>                0.0000
     16 H16         -1.1865 -12.7766   8.4530 H              1 <1>                0.0000
     17 H17          0.1932 -11.6359   8.4294 H              1 <1>                0.0000
     18 H18          0.0129 -13.5333   6.5111 H              1 <1>                0.0000
     19 H19          1.6093 -13.2001   7.2623 H              1 <1>                0.0000
     20 H20         -0.3881 -15.4338   7.9344 H              1 <1>                0.0000
     21 H21          1.3866 -15.5596   7.7032 H              1 <1>                0.0000
     22 H22          1.8410 -14.7558   9.8409 H              1 <1>                0.0000
     23 H23          0.2424 -15.4994  11.4812 H              1 <1>                0.0000
     24 H24         -1.1168 -15.2854  10.3522 H              1 <1>                0.0000
     25 H25         -0.3950 -17.1072   9.1070 H              1 <1>                0.0000
     26 H26          1.0788 -17.1848   9.8737 H              1 <1>                0.0000
@<TRIPOS>BOND
    1    1    2 1     
    2    1   11 1     
    3    1   12 1     
    4    1   13 1     
    5    2    3 1     
    6    2   14 1     
    7    2   15 1     
    8    3    4 1     
    9    3    8 1     
   10    3    5 1     
   11    5    6 1     
   12    5   16 1     
   13    5   17 1     
   14    6    7 1     
   15    6   18 1     
   16    6   19 1     
   17    7    8 1     
   18    7   20 1     
   19    7   21 1     
   20    8    9 1     
   21    8   22 1     
   22    9   10 1     
   23    9   23 1     
   24    9   24 1     
   25   10   25 1     
   26   10   26 1     
@<TRIPOS>SUBSTRUCTURE
      1 ****           1
@<TRIPOS>SET
DONOR_HYDROGENS      STATIC     ATOMS    <user>   **** ""
3 4 25 26
ATOM$RED        STATIC     ATOMS    COLORGROUP SYSTEM
3 4 25 26
@<TRIPOS>COMMENT
> <Gold.Version>
2022.2.0

> <Gold.Id.Protein>
3pbl|protein|mol2

> <Gold.Protein.RotatedTorsions>
[ 1303 1298 1297 1294 ] final -103.28 input  179.99 | X-H torsion
[ 2461 2456 2455 2452 ] final   36.03 input   30.03 | X-H torsion
[ 2515 2510 2509 2506 ] final  -94.41 input  -89.99 | X-H torsion
[ 3721 3712 3711 3710 ] final   -8.59 input -179.91 | X-H torsion
[ 3841 3832 3831 3830 ] final  -66.46 input -179.91 | X-H torsion
[ 3767 3762 3761 3758 ] final  137.27 input  -89.99 | X-H torsion
[ 2472 2467 2466 2463 ] final -131.86 input  -89.97 | X-H torsion

> <Gold.Protein.ActiveResidues>
 VAL82   VAL86   LEU89   PHE106  VAL107  ASP110  VAL111  MET112  CYS114  THR115 
 CYS181  SER182  ILE183  PHE188  VAL189  ILE190  SER192  SER193  SER196  TRP342 
 PHE345  PHE346  HIS349  VAL350  TYR365  THR369  GLY372  TYR373 

> <Gold.Protein.RotatedAtoms>
    4.0030   -8.5322    3.9559 H   0  0  0  0  0  0  0  0  0  0  0  0  # atno 1303 bound_to 1298
    1.6050   -7.9263    7.1657 H   0  0  0  0  0  0  0  0  0  0  0  0  # atno 2461 bound_to 2456
   -4.6951   -5.4605    9.4212 H   0  0  0  0  0  0  0  0  0  0  0  0  # atno 2472 bound_to 2467
    2.8115   -8.9845    4.6594 H   0  0  0  0  0  0  0  0  0  0  0  0  # atno 2515 bound_to 2510
   -2.5096  -17.8994   14.3565 H   0  0  0  0  0  0  0  0  0  0  0  0  # atno 3721 bound_to 3712
   -3.9075  -23.0353   11.1367 H   0  0  0  0  0  0  0  0  0  0  0  0  # atno 3767 bound_to 3762
    1.6496  -19.7567    8.9588 H   0  0  0  0  0  0  0  0  0  0  0  0  # atno 3841 bound_to 3832
    4.8573   -9.5228    4.9333 LP  0  0  0  0  0  0  0  0  0  0  0  0  # atno 4297 bound_to 1298
    3.5020  -10.0667    4.2025 LP  0  0  0  0  0  0  0  0  0  0  0  0  # atno 4298 bound_to 1298
    0.3373   -8.8415    7.6374 LP  0  0  0  0  0  0  0  0  0  0  0  0  # atno 4299 bound_to 2456
    1.7956   -9.0401    8.3449 LP  0  0  0  0  0  0  0  0  0  0  0  0  # atno 4300 bound_to 2456
    2.1228   -8.5753    6.0821 LP  0  0  0  0  0  0  0  0  0  0  0  0  # atno 4301 bound_to 2510
    2.3622   -7.4390    4.9340 LP  0  0  0  0  0  0  0  0  0  0  0  0  # atno 4302 bound_to 2510
   -3.4862  -16.6252   14.3319 LP  0  0  0  0  0  0  0  0  0  0  0  0  # atno 4306 bound_to 3712
   -3.1441  -17.4359   12.9563 LP  0  0  0  0  0  0  0  0  0  0  0  0  # atno 4307 bound_to 3712
    3.0034  -20.2568    8.2566 LP  0  0  0  0  0  0  0  0  0  0  0  0  # atno 4314 bound_to 3832
    2.3205  -21.1265    9.4582 LP  0  0  0  0  0  0  0  0  0  0  0  0  # atno 4315 bound_to 3832
   -5.1425  -22.9222   10.0743 LP  0  0  0  0  0  0  0  0  0  0  0  0  # atno 4318 bound_to 3762
   -5.0770  -21.9177   11.3601 LP  0  0  0  0  0  0  0  0  0  0  0  0  # atno 4319 bound_to 3762
   -5.3161   -5.0087    7.9802 LP  0  0  0  0  0  0  0  0  0  0  0  0  # atno 4320 bound_to 2467
   -3.7058   -4.9244    8.2379 LP  0  0  0  0  0  0  0  0  0  0  0  0  # atno 4321 bound_to 2467

> <Gold.Score>
     Score     S(PLP)   S(hbond)     S(cho)   S(metal)  DE(clash)   DE(tors)     intcor
     30.70     -27.92       1.00       0.00       0.00       0.00       0.11       0.00

> <Gold.PLP.Fitness>
30.6965

> <Gold.PLP.PLP>
-27.9185

> <Gold.PLP.part.hbond>
-1.0000

> <Gold.PLP.part.metal>
0.0000

> <Gold.PLP.part.buried>
-2.7653

> <Gold.PLP.part.nonpolar>
-23.8466

> <Gold.PLP.part.repulsive>
0.0000

> <Gold.PLP.ligand.clash>
0.0000

> <Gold.PLP.ligand.torsion>
0.1118

> <Gold.PLP.Chemscore.Hbond>
1.0000

> <Gold.PLP.Chemscore.CHOScore>
0.0000

> <Gold.PLP.Chemscore.Metal>
0.0000

> <Gold.Chemscore.Hbonds>
donor molecule, donor type, donor heavy atom, donor atom, acceptor molecule, acceptor atom, score
      L1  H    10    26       P1  1227  1.00

> <Gold.PLP.Chemscore.Internal.Correction>
0.0017

