#       Name:                amine_i001
#       Creating user name   fsindt
#       Creation time:       Fri Aug 11 18:07:59 2023


#       File generated by GOLD software.
#

@<TRIPOS>MOLECULE
amine_i001|amine|mol2|1|dock19
    26    26     1
SMALL
NO_CHARGES


@<TRIPOS>ATOM
      1 C1           0.1576 -15.2017  11.7047 C.3            1 <1>                0.0000
      2 C2           0.2068 -15.0959  10.1792 C.3            1 <1>                0.0000
      3 N3           0.7459 -13.7841   9.7964 N.4            1 <1>                0.0000
      4 H4           1.6177 -13.6210  10.2775 H              1 <1>                0.0000
      5 C5          -0.2234 -12.7254  10.1505 C.3            1 <1>                0.0000
      6 C6          -0.1029 -11.6819   9.0119 C.3            1 <1>                0.0000
      7 C7           0.1172 -12.5919   7.7749 C.3            1 <1>                0.0000
      8 C8           0.9683 -13.7450   8.3395 C.3            1 <1>                0.0000
      9 C9           0.5328 -15.0698   7.7102 C.3            1 <1>                0.0000
     10 N10          1.6945 -15.9611   7.5920 N.3            1 <1>                0.0000
     11 H11          1.1635 -15.0902  12.1094 H              1 <1>                0.0000
     12 H12         -0.4835 -14.4152  12.1030 H              1 <1>                0.0000
     13 H13         -0.2424 -16.1751  11.9888 H              1 <1>                0.0000
     14 H14          0.8479 -15.8824   9.7810 H              1 <1>                0.0000
     15 H15         -0.7991 -15.2075   9.7746 H              1 <1>                0.0000
     16 H16         -1.2338 -13.1326  10.1867 H              1 <1>                0.0000
     17 H17          0.0395 -12.2748  11.1076 H              1 <1>                0.0000
     18 H18         -1.0217 -11.1040   8.9131 H              1 <1>                0.0000
     19 H19          0.7534 -11.0267   9.1719 H              1 <1>                0.0000
     20 H20         -0.8346 -12.9659   7.3975 H              1 <1>                0.0000
     21 H21          0.6591 -12.0574   6.9947 H              1 <1>                0.0000
     22 H22          2.0230 -13.5628   8.1330 H              1 <1>                0.0000
     23 H23         -0.2232 -15.5397   8.3394 H              1 <1>                0.0000
     24 H24          0.1164 -14.8825   6.7205 H              1 <1>                0.0000
     25 H25          2.5229 -15.4437   7.3389 H              1 <1>                0.0000
     26 H26          1.8394 -16.4813   8.4444 H              1 <1>                0.0000
@<TRIPOS>BOND
    1    1    2 1     
    2    1   11 1     
    3    1   12 1     
    4    1   13 1     
    5    2    3 1     
    6    2   14 1     
    7    2   15 1     
    8    3    4 1     
    9    3    8 1     
   10    3    5 1     
   11    5    6 1     
   12    5   16 1     
   13    5   17 1     
   14    6    7 1     
   15    6   18 1     
   16    6   19 1     
   17    7    8 1     
   18    7   20 1     
   19    7   21 1     
   20    8    9 1     
   21    8   22 1     
   22    9   10 1     
   23    9   23 1     
   24    9   24 1     
   25   10   25 1     
   26   10   26 1     
@<TRIPOS>SUBSTRUCTURE
      1 ****           1
@<TRIPOS>SET
DONOR_HYDROGENS      STATIC     ATOMS    <user>   **** ""
3 4 25 26
ATOM$RED        STATIC     ATOMS    COLORGROUP SYSTEM
3 4 25 26
@<TRIPOS>COMMENT
> <Gold.Version>
2022.2.0

> <Gold.Id.Protein>
3pbl|protein|mol2

> <Gold.Protein.RotatedTorsions>
[ 1303 1298 1297 1294 ] final   15.32 input  179.99 | X-H torsion
[ 2461 2456 2455 2452 ] final  -57.47 input   30.03 | X-H torsion
[ 2515 2510 2509 2506 ] final -140.42 input  -89.99 | X-H torsion
[ 3721 3712 3711 3710 ] final -168.87 input -179.91 | X-H torsion
[ 3841 3832 3831 3830 ] final  -65.06 input -179.91 | X-H torsion
[ 3767 3762 3761 3758 ] final  128.22 input  -89.99 | X-H torsion
[ 2472 2467 2466 2463 ] final  -31.16 input  -89.97 | X-H torsion

> <Gold.Protein.ActiveResidues>
 VAL82   VAL86   LEU89   PHE106  VAL107  ASP110  VAL111  MET112  CYS114  THR115 
 CYS181  SER182  ILE183  PHE188  VAL189  ILE190  SER192  SER193  SER196  TRP342 
 PHE345  PHE346  HIS349  VAL350  TYR365  THR369  GLY372  TYR373 

> <Gold.Protein.RotatedAtoms>
    3.4900  -10.0521    4.1892 H   0  0  0  0  0  0  0  0  0  0  0  0  # atno 1303 bound_to 1298
    0.3833   -8.5295    7.3419 H   0  0  0  0  0  0  0  0  0  0  0  0  # atno 2461 bound_to 2456
   -3.6359   -5.0228    8.5301 H   0  0  0  0  0  0  0  0  0  0  0  0  # atno 2472 bound_to 2467
    2.5963   -9.2573    5.3089 H   0  0  0  0  0  0  0  0  0  0  0  0  # atno 2515 bound_to 2510
   -3.3372  -16.5560   13.7058 H   0  0  0  0  0  0  0  0  0  0  0  0  # atno 3721 bound_to 3712
   -3.9234  -23.1214   11.0165 H   0  0  0  0  0  0  0  0  0  0  0  0  # atno 3767 bound_to 3762
    1.6409  -19.7681    8.9745 H   0  0  0  0  0  0  0  0  0  0  0  0  # atno 3841 bound_to 3832
    4.0224   -8.5247    3.9659 LP  0  0  0  0  0  0  0  0  0  0  0  0  # atno 4297 bound_to 1298
    4.8500   -9.5442    4.9366 LP  0  0  0  0  0  0  0  0  0  0  0  0  # atno 4298 bound_to 1298
    1.4113   -9.2299    8.4003 LP  0  0  0  0  0  0  0  0  0  0  0  0  # atno 4299 bound_to 2456
    1.9429   -8.0487    7.4059 LP  0  0  0  0  0  0  0  0  0  0  0  0  # atno 4300 bound_to 2456
    2.0307   -7.8593    5.9345 LP  0  0  0  0  0  0  0  0  0  0  0  0  # atno 4301 bound_to 2510
    2.6696   -7.8821    4.4318 LP  0  0  0  0  0  0  0  0  0  0  0  0  # atno 4302 bound_to 2510
   -2.8019  -17.9914   13.2253 LP  0  0  0  0  0  0  0  0  0  0  0  0  # atno 4306 bound_to 3712
   -2.8729  -17.6208   14.8141 LP  0  0  0  0  0  0  0  0  0  0  0  0  # atno 4307 bound_to 3712
    2.9922  -20.2385    8.2472 LP  0  0  0  0  0  0  0  0  0  0  0  0  # atno 4314 bound_to 3832
    2.3417  -21.1316    9.4496 LP  0  0  0  0  0  0  0  0  0  0  0  0  # atno 4315 bound_to 3832
   -5.2433  -22.8170   10.1043 LP  0  0  0  0  0  0  0  0  0  0  0  0  # atno 4318 bound_to 3762
   -4.9604  -21.9368   11.4503 LP  0  0  0  0  0  0  0  0  0  0  0  0  # atno 4319 bound_to 3762
   -4.9956   -5.4574    9.3231 LP  0  0  0  0  0  0  0  0  0  0  0  0  # atno 4320 bound_to 2467
   -5.0853   -4.9133    7.7860 LP  0  0  0  0  0  0  0  0  0  0  0  0  # atno 4321 bound_to 2467

> <Gold.Score>
     Score     S(PLP)   S(hbond)     S(cho)   S(metal)  DE(clash)   DE(tors)     intcor
     30.95     -26.42       1.83       0.00       0.00       0.00       0.48       0.00

> <Gold.PLP.Fitness>
30.9505

> <Gold.PLP.PLP>
-26.4165

> <Gold.PLP.part.hbond>
-2.5247

> <Gold.PLP.part.metal>
0.0000

> <Gold.PLP.part.buried>
-0.7803

> <Gold.PLP.part.nonpolar>
-23.5546

> <Gold.PLP.part.repulsive>
0.0000

> <Gold.PLP.ligand.clash>
0.0000

> <Gold.PLP.ligand.torsion>
0.4779

> <Gold.PLP.Chemscore.Hbond>
1.8294

> <Gold.PLP.Chemscore.CHOScore>
0.0000

> <Gold.PLP.Chemscore.Metal>
0.0000

> <Gold.Chemscore.Hbonds>
donor molecule, donor type, donor heavy atom, donor atom, acceptor molecule, acceptor atom, score
      L1  H    10    25       P1  1223  0.83
      L1  H    10    26       P1  1227  1.00

> <Gold.PLP.Chemscore.Internal.Correction>
0.0017

