#       Name:                amine_i001
#       Creating user name   fsindt
#       Creation time:       Fri Aug 11 18:07:54 2023


#       File generated by GOLD software.
#

@<TRIPOS>MOLECULE
amine_i001|amine|mol2|1|dock10
    26    26     1
SMALL
NO_CHARGES


@<TRIPOS>ATOM
      1 C1          -0.8425 -11.3184  10.4546 C.3            1 <1>                0.0000
      2 C2          -0.3790 -12.6833   9.9417 C.3            1 <1>                0.0000
      3 N3           0.7568 -12.5030   9.0276 N.4            1 <1>                0.0000
      4 H4           1.5091 -12.0329   9.5082 H              1 <1>                0.0000
      5 C5           0.3335 -11.7001   7.8606 C.3            1 <1>                0.0000
      6 C6           1.1117 -12.3013   6.6636 C.3            1 <1>                0.0000
      7 C7           1.1013 -13.8132   7.0107 C.3            1 <1>                0.0000
      8 C8           1.2199 -13.8174   8.5465 C.3            1 <1>                0.0000
      9 C9           0.3432 -14.9255   9.1332 C.3            1 <1>                0.0000
     10 N10          0.9001 -15.3603  10.4212 N.3            1 <1>                0.0000
     11 H11         -0.0233 -10.8320  10.9844 H              1 <1>                0.0000
     12 H12         -1.1491 -10.6985   9.6121 H              1 <1>                0.0000
     13 H13         -1.6852 -11.4521  11.1329 H              1 <1>                0.0000
     14 H14         -0.0724 -13.3031  10.7843 H              1 <1>                0.0000
     15 H15         -1.1981 -13.1697   9.4120 H              1 <1>                0.0000
     16 H16         -0.7406 -11.7975   7.7023 H              1 <1>                0.0000
     17 H17          0.6037 -10.6535   8.0017 H              1 <1>                0.0000
     18 H18          0.5909 -12.1125   5.7249 H              1 <1>                0.0000
     19 H19          2.1306 -11.9159   6.6273 H              1 <1>                0.0000
     20 H20          0.1650 -14.2744   6.6964 H              1 <1>                0.0000
     21 H21          1.9530 -14.3190   6.5557 H              1 <1>                0.0000
     22 H22          2.2592 -13.9704   8.8376 H              1 <1>                0.0000
     23 H23         -0.6680 -14.5474   9.2837 H              1 <1>                0.0000
     24 H24          0.3165 -15.7704   8.4452 H              1 <1>                0.0000
     25 H25          0.1655 -15.5972  11.0711 H              1 <1>                0.0000
     26 H26          1.5367 -16.1333  10.2974 H              1 <1>                0.0000
@<TRIPOS>BOND
    1    1    2 1     
    2    1   11 1     
    3    1   12 1     
    4    1   13 1     
    5    2    3 1     
    6    2   14 1     
    7    2   15 1     
    8    3    4 1     
    9    3    8 1     
   10    3    5 1     
   11    5    6 1     
   12    5   16 1     
   13    5   17 1     
   14    6    7 1     
   15    6   18 1     
   16    6   19 1     
   17    7    8 1     
   18    7   20 1     
   19    7   21 1     
   20    8    9 1     
   21    8   22 1     
   22    9   10 1     
   23    9   23 1     
   24    9   24 1     
   25   10   25 1     
   26   10   26 1     
@<TRIPOS>SUBSTRUCTURE
      1 ****           1
@<TRIPOS>SET
DONOR_HYDROGENS      STATIC     ATOMS    <user>   **** ""
3 4 25 26
ATOM$RED        STATIC     ATOMS    COLORGROUP SYSTEM
3 4 25 26
@<TRIPOS>COMMENT
> <Gold.Version>
2022.2.0

> <Gold.Id.Protein>
3pbl|protein|mol2

> <Gold.Protein.RotatedTorsions>
[ 1303 1298 1297 1294 ] final   88.35 input  179.99 | X-H torsion
[ 2461 2456 2455 2452 ] final   25.64 input   30.03 | X-H torsion
[ 2515 2510 2509 2506 ] final -109.30 input  -89.99 | X-H torsion
[ 3721 3712 3711 3710 ] final  169.31 input -179.91 | X-H torsion
[ 3841 3832 3831 3830 ] final -108.29 input -179.91 | X-H torsion
[ 3767 3762 3761 3758 ] final   -7.25 input  -89.99 | X-H torsion
[ 2472 2467 2466 2463 ] final  -75.03 input  -89.97 | X-H torsion

> <Gold.Protein.ActiveResidues>
 VAL82   VAL86   LEU89   PHE106  VAL107  ASP110  VAL111  MET112  CYS114  THR115 
 CYS181  SER182  ILE183  PHE188  VAL189  ILE190  SER192  SER193  SER196  TRP342 
 PHE345  PHE346  HIS349  VAL350  TYR365  THR369  GLY372  TYR373 

> <Gold.Protein.RotatedAtoms>
    4.3935  -10.1345    4.8490 H   0  0  0  0  0  0  0  0  0  0  0  0  # atno 1303 bound_to 1298
    1.4473   -7.9167    7.1011 H   0  0  0  0  0  0  0  0  0  0  0  0  # atno 2461 bound_to 2456
   -3.8613   -5.2709    9.1495 H   0  0  0  0  0  0  0  0  0  0  0  0  # atno 2472 bound_to 2467
    2.7632   -9.1312    4.8487 H   0  0  0  0  0  0  0  0  0  0  0  0  # atno 2515 bound_to 2510
   -3.2922  -16.6810   13.4061 H   0  0  0  0  0  0  0  0  0  0  0  0  # atno 3721 bound_to 3712
   -5.3834  -22.6270   10.1978 H   0  0  0  0  0  0  0  0  0  0  0  0  # atno 3767 bound_to 3762
    2.0688  -19.5796    8.5407 H   0  0  0  0  0  0  0  0  0  0  0  0  # atno 3841 bound_to 3832
    3.3411   -9.4066    3.8346 LP  0  0  0  0  0  0  0  0  0  0  0  0  # atno 4297 bound_to 1298
    4.6275   -8.5799    4.4078 LP  0  0  0  0  0  0  0  0  0  0  0  0  # atno 4298 bound_to 1298
    0.3720   -8.9535    7.7614 LP  0  0  0  0  0  0  0  0  0  0  0  0  # atno 4299 bound_to 2456
    1.9185   -8.9377    8.2855 LP  0  0  0  0  0  0  0  0  0  0  0  0  # atno 4300 bound_to 2456
    2.0666   -8.3378    6.0941 LP  0  0  0  0  0  0  0  0  0  0  0  0  # atno 4301 bound_to 2510
    2.4667   -7.5298    4.7326 LP  0  0  0  0  0  0  0  0  0  0  0  0  # atno 4302 bound_to 2510
   -2.6788  -18.1603   13.5214 LP  0  0  0  0  0  0  0  0  0  0  0  0  # atno 4306 bound_to 3712
   -3.0480  -17.3075   14.8641 LP  0  0  0  0  0  0  0  0  0  0  0  0  # atno 4307 bound_to 3712
    3.1131  -20.7918    8.6677 LP  0  0  0  0  0  0  0  0  0  0  0  0  # atno 4314 bound_to 3832
    1.7265  -20.7961    9.5302 LP  0  0  0  0  0  0  0  0  0  0  0  0  # atno 4315 bound_to 3832
   -4.7482  -22.0087   11.5693 LP  0  0  0  0  0  0  0  0  0  0  0  0  # atno 4318 bound_to 3762
   -3.9960  -23.2394   10.8037 LP  0  0  0  0  0  0  0  0  0  0  0  0  # atno 4319 bound_to 3762
   -5.4573   -5.3228    8.8086 LP  0  0  0  0  0  0  0  0  0  0  0  0  # atno 4320 bound_to 2467
   -4.3982   -4.7999    7.6811 LP  0  0  0  0  0  0  0  0  0  0  0  0  # atno 4321 bound_to 2467

> <Gold.Score>
     Score     S(PLP)   S(hbond)     S(cho)   S(metal)  DE(clash)   DE(tors)     intcor
     32.77     -30.44       1.00       0.00       0.00       0.00       0.34       0.00

> <Gold.PLP.Fitness>
32.7657

> <Gold.PLP.PLP>
-30.4359

> <Gold.PLP.part.hbond>
-1.0000

> <Gold.PLP.part.metal>
0.0000

> <Gold.PLP.part.buried>
-3.3437

> <Gold.PLP.part.nonpolar>
-26.5349

> <Gold.PLP.part.repulsive>
0.0000

> <Gold.PLP.ligand.clash>
0.0000

> <Gold.PLP.ligand.torsion>
0.3359

> <Gold.PLP.Chemscore.Hbond>
1.0000

> <Gold.PLP.Chemscore.CHOScore>
0.0000

> <Gold.PLP.Chemscore.Metal>
0.0000

> <Gold.Chemscore.Hbonds>
donor molecule, donor type, donor heavy atom, donor atom, acceptor molecule, acceptor atom, score
      L1  H    10    26       P1  1227  1.00

> <Gold.PLP.Chemscore.Internal.Correction>
0.0017

