#       Name:                amine_i001
#       Creating user name   fsindt
#       Creation time:       Fri Aug 11 18:07:52 2023


#       File generated by GOLD software.
#

@<TRIPOS>MOLECULE
amine_i001|amine|mol2|1|dock8
    26    26     1
SMALL
NO_CHARGES


@<TRIPOS>ATOM
      1 C1           0.2536 -14.6183   8.8541 C.3            1 <1>                0.0000
      2 C2          -0.1004 -15.5395  10.0233 C.3            1 <1>                0.0000
      3 N3           0.1895 -16.9317   9.6550 N.4            1 <1>                0.0000
      4 H4           1.1540 -17.0147   9.3707 H              1 <1>                0.0000
      5 C5          -0.6940 -17.3468   8.5447 C.3            1 <1>                0.0000
      6 C6          -1.0195 -18.8336   8.8327 C.3            1 <1>                0.0000
      7 C7          -1.1356 -18.8349  10.3797 C.3            1 <1>                0.0000
      8 C8          -0.0655 -17.8135  10.8088 C.3            1 <1>                0.0000
      9 C9          -0.5774 -16.9890  11.9915 C.3            1 <1>                0.0000
     10 N10         -0.8186 -17.8750  13.1382 N.3            1 <1>                0.0000
     11 H11          1.3134 -14.7191   8.6200 H              1 <1>                0.0000
     12 H12         -0.3390 -14.8942   7.9818 H              1 <1>                0.0000
     13 H13          0.0385 -13.5852   9.1273 H              1 <1>                0.0000
     14 H14          0.4922 -15.2635  10.8955 H              1 <1>                0.0000
     15 H15         -1.1602 -15.4386  10.2574 H              1 <1>                0.0000
     16 H16         -1.6072 -16.7517   8.5435 H              1 <1>                0.0000
     17 H17         -0.1757 -17.2498   7.5906 H              1 <1>                0.0000
     18 H18         -1.9629 -19.1235   8.3701 H              1 <1>                0.0000
     19 H19         -0.2084 -19.4821   8.5015 H              1 <1>                0.0000
     20 H20         -2.1271 -18.5068  10.6920 H              1 <1>                0.0000
     21 H21         -0.9108 -19.8226  10.7823 H              1 <1>                0.0000
     22 H22          0.8525 -18.3323  11.0852 H              1 <1>                0.0000
     23 H23          0.1669 -16.2399  12.2615 H              1 <1>                0.0000
     24 H24         -1.5074 -16.4933  11.7135 H              1 <1>                0.0000
     25 H25         -0.3890 -17.5089  13.9746 H              1 <1>                0.0000
     26 H26         -1.8064 -18.0273  13.2760 H              1 <1>                0.0000
@<TRIPOS>BOND
    1    1    2 1     
    2    1   11 1     
    3    1   12 1     
    4    1   13 1     
    5    2    3 1     
    6    2   14 1     
    7    2   15 1     
    8    3    4 1     
    9    3    8 1     
   10    3    5 1     
   11    5    6 1     
   12    5   16 1     
   13    5   17 1     
   14    6    7 1     
   15    6   18 1     
   16    6   19 1     
   17    7    8 1     
   18    7   20 1     
   19    7   21 1     
   20    8    9 1     
   21    8   22 1     
   22    9   10 1     
   23    9   23 1     
   24    9   24 1     
   25   10   25 1     
   26   10   26 1     
@<TRIPOS>SUBSTRUCTURE
      1 ****           1
@<TRIPOS>SET
DONOR_HYDROGENS      STATIC     ATOMS    <user>   **** ""
3 4 25 26
ATOM$RED        STATIC     ATOMS    COLORGROUP SYSTEM
3 4 25 26
@<TRIPOS>COMMENT
> <Gold.Version>
2022.2.0

> <Gold.Id.Protein>
3pbl|protein|mol2

> <Gold.Protein.RotatedTorsions>
[ 1303 1298 1297 1294 ] final   57.10 input  179.99 | X-H torsion
[ 2461 2456 2455 2452 ] final  -82.79 input   30.03 | X-H torsion
[ 2515 2510 2509 2506 ] final  -73.69 input  -89.99 | X-H torsion
[ 3721 3712 3711 3710 ] final -146.87 input -179.91 | X-H torsion
[ 3841 3832 3831 3830 ] final    5.53 input -179.91 | X-H torsion
[ 3767 3762 3761 3758 ] final -172.79 input  -89.99 | X-H torsion
[ 2472 2467 2466 2463 ] final   13.80 input  -89.97 | X-H torsion

> <Gold.Protein.ActiveResidues>
 VAL82   VAL86   LEU89   PHE106  VAL107  ASP110  VAL111  MET112  CYS114  THR115 
 CYS181  SER182  ILE183  PHE188  VAL189  ILE190  SER192  SER193  SER196  TRP342 
 PHE345  PHE346  HIS349  VAL350  TYR365  THR369  GLY372  TYR373 

> <Gold.Protein.RotatedAtoms>
    3.9686  -10.2717    4.6070 H   0  0  0  0  0  0  0  0  0  0  0  0  # atno 1303 bound_to 1298
    0.3349   -8.8282    7.6233 H   0  0  0  0  0  0  0  0  0  0  0  0  # atno 2461 bound_to 2456
   -3.9463   -4.8327    7.9077 H   0  0  0  0  0  0  0  0  0  0  0  0  # atno 2472 bound_to 2467
    2.8358   -8.7103    4.4616 H   0  0  0  0  0  0  0  0  0  0  0  0  # atno 2515 bound_to 2510
   -3.3198  -16.5352   14.0353 H   0  0  0  0  0  0  0  0  0  0  0  0  # atno 3721 bound_to 3712
   -4.1642  -22.4450   11.6052 H   0  0  0  0  0  0  0  0  0  0  0  0  # atno 3767 bound_to 3762
    1.7873  -20.5487    9.5827 H   0  0  0  0  0  0  0  0  0  0  0  0  # atno 3841 bound_to 3832
    3.5243   -8.9360    3.7793 LP  0  0  0  0  0  0  0  0  0  0  0  0  # atno 4297 bound_to 1298
    4.8693   -8.9133    4.7052 LP  0  0  0  0  0  0  0  0  0  0  0  0  # atno 4298 bound_to 1298
    1.7803   -9.0510    8.3504 LP  0  0  0  0  0  0  0  0  0  0  0  0  # atno 4299 bound_to 2456
    1.6223   -7.9290    7.1744 LP  0  0  0  0  0  0  0  0  0  0  0  0  # atno 4300 bound_to 2456
    2.2346   -8.8754    5.9706 LP  0  0  0  0  0  0  0  0  0  0  0  0  # atno 4301 bound_to 2510
    2.2261   -7.4132    5.2435 LP  0  0  0  0  0  0  0  0  0  0  0  0  # atno 4302 bound_to 2510
   -2.9674  -17.7334   13.0264 LP  0  0  0  0  0  0  0  0  0  0  0  0  # atno 4306 bound_to 3712
   -2.7275  -17.9027   14.6327 LP  0  0  0  0  0  0  0  0  0  0  0  0  # atno 4307 bound_to 3712
    2.0620  -19.6408    8.2879 LP  0  0  0  0  0  0  0  0  0  0  0  0  # atno 4314 bound_to 3832
    3.1027  -20.8277    8.7063 LP  0  0  0  0  0  0  0  0  0  0  0  0  # atno 4315 bound_to 3832
   -4.4715  -23.3104   10.2549 LP  0  0  0  0  0  0  0  0  0  0  0  0  # atno 4318 bound_to 3762
   -5.4915  -22.1196   10.7113 LP  0  0  0  0  0  0  0  0  0  0  0  0  # atno 4319 bound_to 3762
   -4.2805   -5.4063    9.3996 LP  0  0  0  0  0  0  0  0  0  0  0  0  # atno 4320 bound_to 2467
   -5.4900   -5.1545    8.3317 LP  0  0  0  0  0  0  0  0  0  0  0  0  # atno 4321 bound_to 2467

> <Gold.Score>
     Score     S(PLP)   S(hbond)     S(cho)   S(metal)  DE(clash)   DE(tors)     intcor
     30.78     -21.80       3.00       0.00       0.00       0.00       0.01       0.00

> <Gold.PLP.Fitness>
30.7764

> <Gold.PLP.PLP>
-21.7955

> <Gold.PLP.part.hbond>
-1.9622

> <Gold.PLP.part.metal>
0.0000

> <Gold.PLP.part.buried>
-1.1503

> <Gold.PLP.part.nonpolar>
-18.7765

> <Gold.PLP.part.repulsive>
0.0000

> <Gold.PLP.ligand.clash>
0.0000

> <Gold.PLP.ligand.torsion>
0.0104

> <Gold.PLP.Chemscore.Hbond>
3.0000

> <Gold.PLP.Chemscore.CHOScore>
0.0000

> <Gold.PLP.Chemscore.Metal>
0.0000

> <Gold.Chemscore.Hbonds>
donor molecule, donor type, donor heavy atom, donor atom, acceptor molecule, acceptor atom, score
      L1  H     3     4       P1  1227  2.00
      L1  H    10    26       P1  3712  1.00

> <Gold.PLP.Chemscore.Internal.Correction>
0.0017

