#       Name:                amine_i001
#       Creating user name   fsindt
#       Creation time:       Fri Aug 11 18:07:50 2023


#       File generated by GOLD software.
#

@<TRIPOS>MOLECULE
amine_i001|amine|mol2|1|dock4
    26    26     1
SMALL
NO_CHARGES


@<TRIPOS>ATOM
      1 C1          -1.5967 -11.1849  10.4774 C.3            1 <1>                0.0000
      2 C2          -0.8674 -12.5299  10.4794 C.3            1 <1>                0.0000
      3 N3           0.3043 -12.4529   9.5968 N.4            1 <1>                0.0000
      4 H4           0.9033 -11.6965   9.8916 H              1 <1>                0.0000
      5 C5          -0.1362 -12.2249   8.2040 C.3            1 <1>                0.0000
      6 C6           0.8592 -13.0352   7.3366 C.3            1 <1>                0.0000
      7 C7           1.0913 -14.2914   8.2169 C.3            1 <1>                0.0000
      8 C8           1.0487 -13.7245   9.6485 C.3            1 <1>                0.0000
      9 C9           0.3348 -14.7088  10.5770 C.3            1 <1>                0.0000
     10 N10          1.2820 -15.7420  11.0169 N.3            1 <1>                0.0000
     11 H11         -0.9232 -10.4058  10.8347 H              1 <1>                0.0000
     12 H12         -1.9204 -10.9485   9.4637 H              1 <1>                0.0000
     13 H13         -2.4661 -11.2419  11.1324 H              1 <1>                0.0000
     14 H14         -0.5438 -12.7662  11.4931 H              1 <1>                0.0000
     15 H15         -1.5410 -13.3089  10.1222 H              1 <1>                0.0000
     16 H16         -1.1516 -12.5946   8.0618 H              1 <1>                0.0000
     17 H17         -0.0793 -11.1648   7.9567 H              1 <1>                0.0000
     18 H18          0.4127 -13.3058   6.3798 H              1 <1>                0.0000
     19 H19          1.7880 -12.4838   7.1903 H              1 <1>                0.0000
     20 H20          0.2935 -15.0191   8.0678 H              1 <1>                0.0000
     21 H21          2.0640 -14.7356   8.0056 H              1 <1>                0.0000
     22 H22          2.0625 -13.5430  10.0056 H              1 <1>                0.0000
     23 H23         -0.0498 -14.1749  11.4460 H              1 <1>                0.0000
     24 H24         -0.4920 -15.1774  10.0433 H              1 <1>                0.0000
     25 H25          1.6290 -16.2722  10.2317 H              1 <1>                0.0000
     26 H26          2.0412 -15.3361  11.5431 H              1 <1>                0.0000
@<TRIPOS>BOND
    1    1    2 1     
    2    1   11 1     
    3    1   12 1     
    4    1   13 1     
    5    2    3 1     
    6    2   14 1     
    7    2   15 1     
    8    3    4 1     
    9    3    8 1     
   10    3    5 1     
   11    5    6 1     
   12    5   16 1     
   13    5   17 1     
   14    6    7 1     
   15    6   18 1     
   16    6   19 1     
   17    7    8 1     
   18    7   20 1     
   19    7   21 1     
   20    8    9 1     
   21    8   22 1     
   22    9   10 1     
   23    9   23 1     
   24    9   24 1     
   25   10   25 1     
   26   10   26 1     
@<TRIPOS>SUBSTRUCTURE
      1 ****           1
@<TRIPOS>SET
DONOR_HYDROGENS      STATIC     ATOMS    <user>   **** ""
3 4 25 26
ATOM$RED        STATIC     ATOMS    COLORGROUP SYSTEM
3 4 25 26
@<TRIPOS>COMMENT
> <Gold.Version>
2022.2.0

> <Gold.Id.Protein>
3pbl|protein|mol2

> <Gold.Protein.RotatedTorsions>
[ 1303 1298 1297 1294 ] final  -84.69 input  179.99 | X-H torsion
[ 2461 2456 2455 2452 ] final  -97.72 input   30.03 | X-H torsion
[ 2515 2510 2509 2506 ] final  133.74 input  -89.99 | X-H torsion
[ 3721 3712 3711 3710 ] final   93.81 input -179.91 | X-H torsion
[ 3841 3832 3831 3830 ] final  162.59 input -179.91 | X-H torsion
[ 3767 3762 3761 3758 ] final   13.26 input  -89.99 | X-H torsion
[ 2472 2467 2466 2463 ] final  175.62 input  -89.97 | X-H torsion

> <Gold.Protein.ActiveResidues>
 VAL82   VAL86   LEU89   PHE106  VAL107  ASP110  VAL111  MET112  CYS114  THR115 
 CYS181  SER182  ILE183  PHE188  VAL189  ILE190  SER192  SER193  SER196  TRP342 
 PHE345  PHE346  HIS349  VAL350  TYR365  THR369  GLY372  TYR373 

> <Gold.Protein.RotatedAtoms>
    3.7597   -8.6762    3.8427 H   0  0  0  0  0  0  0  0  0  0  0  0  # atno 1303 bound_to 1298
    0.3892   -8.9875    7.8015 H   0  0  0  0  0  0  0  0  0  0  0  0  # atno 2461 bound_to 2456
   -5.3848   -5.3703    8.9605 H   0  0  0  0  0  0  0  0  0  0  0  0  # atno 2472 bound_to 2467
    2.0765   -8.3869    6.0962 H   0  0  0  0  0  0  0  0  0  0  0  0  # atno 2515 bound_to 2510
   -2.8118  -17.5696   13.0827 H   0  0  0  0  0  0  0  0  0  0  0  0  # atno 3721 bound_to 3712
   -5.1884  -22.8759   10.0846 H   0  0  0  0  0  0  0  0  0  0  0  0  # atno 3767 bound_to 3762
    3.0780  -20.2555    8.5210 H   0  0  0  0  0  0  0  0  0  0  0  0  # atno 3841 bound_to 3832
    4.9111   -9.2326    4.8581 LP  0  0  0  0  0  0  0  0  0  0  0  0  # atno 4297 bound_to 1298
    3.6915  -10.2128    4.3909 LP  0  0  0  0  0  0  0  0  0  0  0  0  # atno 4298 bound_to 1298
    1.9537   -8.9021    8.2622 LP  0  0  0  0  0  0  0  0  0  0  0  0  # atno 4299 bound_to 2456
    1.3946   -7.9186    7.0845 LP  0  0  0  0  0  0  0  0  0  0  0  0  # atno 4300 bound_to 2456
    2.4453   -7.5066    4.7715 LP  0  0  0  0  0  0  0  0  0  0  0  0  # atno 4301 bound_to 2510
    2.7750   -9.1056    4.8072 LP  0  0  0  0  0  0  0  0  0  0  0  0  # atno 4302 bound_to 2510
   -2.7405  -17.8762   14.6571 LP  0  0  0  0  0  0  0  0  0  0  0  0  # atno 4306 bound_to 3712
   -3.5409  -16.5656   14.1017 LP  0  0  0  0  0  0  0  0  0  0  0  0  # atno 4307 bound_to 3712
    2.1102  -21.0531    9.5227 LP  0  0  0  0  0  0  0  0  0  0  0  0  # atno 4314 bound_to 3832
    1.5636  -19.7540    8.6980 LP  0  0  0  0  0  0  0  0  0  0  0  0  # atno 4315 bound_to 3832
   -5.0265  -21.9240   11.4016 LP  0  0  0  0  0  0  0  0  0  0  0  0  # atno 4318 bound_to 3762
   -3.9127  -23.0752   11.0845 LP  0  0  0  0  0  0  0  0  0  0  0  0  # atno 4319 bound_to 3762
   -4.5716   -4.8112    7.6596 LP  0  0  0  0  0  0  0  0  0  0  0  0  # atno 4320 bound_to 2467
   -3.7607   -5.2120    9.0192 LP  0  0  0  0  0  0  0  0  0  0  0  0  # atno 4321 bound_to 2467

> <Gold.Score>
     Score     S(PLP)   S(hbond)     S(cho)   S(metal)  DE(clash)   DE(tors)     intcor
     32.86     -30.30       1.00       0.00       0.00       0.00       0.22       0.00

> <Gold.PLP.Fitness>
32.8608

> <Gold.PLP.PLP>
-30.3032

> <Gold.PLP.part.hbond>
-1.0000

> <Gold.PLP.part.metal>
0.0000

> <Gold.PLP.part.buried>
-3.1163

> <Gold.PLP.part.nonpolar>
-26.5812

> <Gold.PLP.part.repulsive>
0.0000

> <Gold.PLP.ligand.clash>
0.0000

> <Gold.PLP.ligand.torsion>
0.2223

> <Gold.PLP.Chemscore.Hbond>
1.0000

> <Gold.PLP.Chemscore.CHOScore>
0.0000

> <Gold.PLP.Chemscore.Metal>
0.0000

> <Gold.Chemscore.Hbonds>
donor molecule, donor type, donor heavy atom, donor atom, acceptor molecule, acceptor atom, score
      L1  H    10    25       P1  1227  1.00

> <Gold.PLP.Chemscore.Internal.Correction>
0.0022

