#       Name:                amine_i001
#       Creating user name   fsindt
#       Creation time:       Fri Aug 11 18:07:54 2023


#       File generated by GOLD software.
#

@<TRIPOS>MOLECULE
amine_i001|amine|mol2|1|dock11
    26    26     1
SMALL
NO_CHARGES


@<TRIPOS>ATOM
      1 C1           0.9790 -12.3444   7.5748 C.3            1 <1>                0.0000
      2 C2          -0.0834 -11.5249   8.3101 C.3            1 <1>                0.0000
      3 N3           0.0447 -11.7429   9.7572 N.4            1 <1>                0.0000
      4 H4           0.9867 -11.5323  10.0509 H              1 <1>                0.0000
      5 C5          -0.2736 -13.1505  10.0782 C.3            1 <1>                0.0000
      6 C6          -1.0023 -13.0897  11.4439 C.3            1 <1>                0.0000
      7 C7          -1.8335 -11.7879  11.2978 C.3            1 <1>                0.0000
      8 C8          -0.9052 -10.8740  10.4758 C.3            1 <1>                0.0000
      9 C9          -1.7283 -10.0615   9.4743 C.3            1 <1>                0.0000
     10 N10         -2.7823  -9.3278  10.1876 N.3            1 <1>                0.0000
     11 H11          1.9704 -12.0321   7.9030 H              1 <1>                0.0000
     12 H12          0.8396 -13.4025   7.7965 H              1 <1>                0.0000
     13 H13          0.8840 -12.1827   6.5011 H              1 <1>                0.0000
     14 H14          0.0562 -10.4669   8.0883 H              1 <1>                0.0000
     15 H15         -1.0748 -11.8373   7.9819 H              1 <1>                0.0000
     16 H16         -0.9286 -13.5746   9.3172 H              1 <1>                0.0000
     17 H17          0.6414 -13.7370  10.1622 H              1 <1>                0.0000
     18 H18         -1.6517 -13.9546  11.5788 H              1 <1>                0.0000
     19 H19         -0.2888 -13.0075  12.2638 H              1 <1>                0.0000
     20 H20         -2.7600 -11.9809  10.7570 H              1 <1>                0.0000
     21 H21         -2.0402 -11.3509  12.2748 H              1 <1>                0.0000
     22 H22         -0.3602 -10.2043  11.1411 H              1 <1>                0.0000
     23 H23         -1.0784  -9.3542   8.9589 H              1 <1>                0.0000
     24 H24         -2.1825 -10.7341   8.7468 H              1 <1>                0.0000
     25 H25         -2.8349  -9.6178  11.1527 H              1 <1>                0.0000
     26 H26         -2.6408  -8.3313  10.1166 H              1 <1>                0.0000
@<TRIPOS>BOND
    1    1    2 1     
    2    1   11 1     
    3    1   12 1     
    4    1   13 1     
    5    2    3 1     
    6    2   14 1     
    7    2   15 1     
    8    3    4 1     
    9    3    8 1     
   10    3    5 1     
   11    5    6 1     
   12    5   16 1     
   13    5   17 1     
   14    6    7 1     
   15    6   18 1     
   16    6   19 1     
   17    7    8 1     
   18    7   20 1     
   19    7   21 1     
   20    8    9 1     
   21    8   22 1     
   22    9   10 1     
   23    9   23 1     
   24    9   24 1     
   25   10   25 1     
   26   10   26 1     
@<TRIPOS>SUBSTRUCTURE
      1 ****           1
@<TRIPOS>SET
DONOR_HYDROGENS      STATIC     ATOMS    <user>   **** ""
3 4 25 26
ATOM$RED        STATIC     ATOMS    COLORGROUP SYSTEM
3 4 25 26
@<TRIPOS>COMMENT
> <Gold.Version>
2022.2.0

> <Gold.Id.Protein>
3pbl|protein|mol2

> <Gold.Protein.RotatedTorsions>
[ 1303 1298 1297 1294 ] final  -22.49 input  179.99 | X-H torsion
[ 2461 2456 2455 2452 ] final   58.15 input   30.03 | X-H torsion
[ 2515 2510 2509 2506 ] final -148.25 input  -89.99 | X-H torsion
[ 3721 3712 3711 3710 ] final -102.05 input -179.91 | X-H torsion
[ 3841 3832 3831 3830 ] final   24.00 input -179.91 | X-H torsion
[ 3767 3762 3761 3758 ] final    4.30 input  -89.99 | X-H torsion
[ 2472 2467 2466 2463 ] final  -74.96 input  -89.97 | X-H torsion

> <Gold.Protein.ActiveResidues>
 VAL82   VAL86   LEU89   PHE106  VAL107  ASP110  VAL111  MET112  CYS114  THR115 
 CYS181  SER182  ILE183  PHE188  VAL189  ILE190  SER192  SER193  SER196  TRP342 
 PHE345  PHE346  HIS349  VAL350  TYR365  THR369  GLY372  TYR373 

> <Gold.Protein.RotatedAtoms>
    3.3295   -9.5490    3.8824 H   0  0  0  0  0  0  0  0  0  0  0  0  # atno 1303 bound_to 1298
    1.8958   -8.0193    7.3601 H   0  0  0  0  0  0  0  0  0  0  0  0  # atno 2461 bound_to 2456
   -3.8605   -5.2705    9.1487 H   0  0  0  0  0  0  0  0  0  0  0  0  # atno 2472 bound_to 2467
    2.5445   -9.2469    5.4263 H   0  0  0  0  0  0  0  0  0  0  0  0  # atno 2515 bound_to 2510
   -3.1094  -16.8156   14.5950 H   0  0  0  0  0  0  0  0  0  0  0  0  # atno 3721 bound_to 3712
   -5.2827  -22.7693   10.1226 H   0  0  0  0  0  0  0  0  0  0  0  0  # atno 3767 bound_to 3762
    1.9909  -20.7336    9.6221 H   0  0  0  0  0  0  0  0  0  0  0  0  # atno 3841 bound_to 3832
    4.5244   -8.5232    4.3141 LP  0  0  0  0  0  0  0  0  0  0  0  0  # atno 4297 bound_to 1298
    4.5086  -10.0491    4.8953 LP  0  0  0  0  0  0  0  0  0  0  0  0  # atno 4298 bound_to 1298
    0.3627   -8.5818    7.3868 LP  0  0  0  0  0  0  0  0  0  0  0  0  # atno 4299 bound_to 2456
    1.4795   -9.2069    8.4011 LP  0  0  0  0  0  0  0  0  0  0  0  0  # atno 4300 bound_to 2456
    2.0403   -7.7554    5.8588 LP  0  0  0  0  0  0  0  0  0  0  0  0  # atno 4301 bound_to 2510
    2.7119   -7.9964    4.3900 LP  0  0  0  0  0  0  0  0  0  0  0  0  # atno 4302 bound_to 2510
   -3.3300  -17.0999   13.0303 LP  0  0  0  0  0  0  0  0  0  0  0  0  # atno 4306 bound_to 3712
   -2.6078  -18.2125   13.9827 LP  0  0  0  0  0  0  0  0  0  0  0  0  # atno 4307 bound_to 3712
    1.8039  -19.6483    8.4545 LP  0  0  0  0  0  0  0  0  0  0  0  0  # atno 4314 bound_to 3832
    3.1256  -20.6065    8.4941 LP  0  0  0  0  0  0  0  0  0  0  0  0  # atno 4315 bound_to 3832
   -4.9078  -21.9504   11.4849 LP  0  0  0  0  0  0  0  0  0  0  0  0  # atno 4318 bound_to 3762
   -3.9370  -23.1554   10.9633 LP  0  0  0  0  0  0  0  0  0  0  0  0  # atno 4319 bound_to 3762
   -5.4570   -5.3231    8.8097 LP  0  0  0  0  0  0  0  0  0  0  0  0  # atno 4320 bound_to 2467
   -4.3993   -4.7999    7.6808 LP  0  0  0  0  0  0  0  0  0  0  0  0  # atno 4321 bound_to 2467

> <Gold.Score>
     Score     S(PLP)   S(hbond)     S(cho)   S(metal)  DE(clash)   DE(tors)     intcor
     33.83     -30.89       1.00       0.00       0.00       0.00       0.03       0.00

> <Gold.PLP.Fitness>
33.8316

> <Gold.PLP.PLP>
-30.8935

> <Gold.PLP.part.hbond>
-1.0000

> <Gold.PLP.part.metal>
0.0000

> <Gold.PLP.part.buried>
-3.6221

> <Gold.PLP.part.nonpolar>
-27.3100

> <Gold.PLP.part.repulsive>
0.0000

> <Gold.PLP.ligand.clash>
0.0000

> <Gold.PLP.ligand.torsion>
0.0318

> <Gold.PLP.Chemscore.Hbond>
1.0000

> <Gold.PLP.Chemscore.CHOScore>
0.0000

> <Gold.PLP.Chemscore.Metal>
0.0000

> <Gold.Chemscore.Hbonds>
donor molecule, donor type, donor heavy atom, donor atom, acceptor molecule, acceptor atom, score
      L1  H    10    26       P1  2398  1.00

> <Gold.PLP.Chemscore.Internal.Correction>
0.0017

