#       Name:                amine_i001
#       Creating user name   fsindt
#       Creation time:       Fri Aug 11 18:07:51 2023


#       File generated by GOLD software.
#

@<TRIPOS>MOLECULE
amine_i001|amine|mol2|1|dock6
    26    26     1
SMALL
NO_CHARGES


@<TRIPOS>ATOM
      1 C1          -0.5040 -18.7023  10.9306 C.3            1 <1>                0.0000
      2 C2          -0.3351 -17.3919  11.7019 C.3            1 <1>                0.0000
      3 N3           1.0856 -17.1875  12.0150 N.4            1 <1>                0.0000
      4 H4           1.6254 -17.1883  11.1626 H              1 <1>                0.0000
      5 C5           1.5593 -18.2689  12.9049 C.3            1 <1>                0.0000
      6 C6           2.5658 -17.5817  13.8613 C.3            1 <1>                0.0000
      7 C7           1.8948 -16.2006  14.0824 C.3            1 <1>                0.0000
      8 C8           1.2599 -15.8999  12.7117 C.3            1 <1>                0.0000
      9 C9          -0.0990 -15.2238  12.9046 C.3            1 <1>                0.0000
     10 N10         -0.4006 -14.3879  11.7348 N.3            1 <1>                0.0000
     11 H11          0.0691 -18.6554  10.0045 H              1 <1>                0.0000
     12 H12         -0.1433 -19.5314  11.5394 H              1 <1>                0.0000
     13 H13         -1.5581 -18.8540  10.6982 H              1 <1>                0.0000
     14 H14         -0.6958 -16.5628  11.0931 H              1 <1>                0.0000
     15 H15         -0.9081 -17.4388  12.6279 H              1 <1>                0.0000
     16 H16          0.7263 -18.6889  13.4686 H              1 <1>                0.0000
     17 H17          2.0569 -19.0467  12.3255 H              1 <1>                0.0000
     18 H18          2.6494 -18.1300  14.7996 H              1 <1>                0.0000
     19 H19          3.5411 -17.4707  13.3875 H              1 <1>                0.0000
     20 H20          1.1288 -16.2636  14.8553 H              1 <1>                0.0000
     21 H21          2.6397 -15.4466  14.3372 H              1 <1>                0.0000
     22 H22          1.9189 -15.2539  12.1315 H              1 <1>                0.0000
     23 H23         -0.8711 -15.9851  13.0159 H              1 <1>                0.0000
     24 H24         -0.0714 -14.6010  13.7987 H              1 <1>                0.0000
     25 H25         -0.5216 -13.4224  12.0019 H              1 <1>                0.0000
     26 H26          0.3150 -14.4811  11.0296 H              1 <1>                0.0000
@<TRIPOS>BOND
    1    1    2 1     
    2    1   11 1     
    3    1   12 1     
    4    1   13 1     
    5    2    3 1     
    6    2   14 1     
    7    2   15 1     
    8    3    4 1     
    9    3    8 1     
   10    3    5 1     
   11    5    6 1     
   12    5   16 1     
   13    5   17 1     
   14    6    7 1     
   15    6   18 1     
   16    6   19 1     
   17    7    8 1     
   18    7   20 1     
   19    7   21 1     
   20    8    9 1     
   21    8   22 1     
   22    9   10 1     
   23    9   23 1     
   24    9   24 1     
   25   10   25 1     
   26   10   26 1     
@<TRIPOS>SUBSTRUCTURE
      1 ****           1
@<TRIPOS>SET
DONOR_HYDROGENS      STATIC     ATOMS    <user>   **** ""
3 4 25 26
ATOM$RED        STATIC     ATOMS    COLORGROUP SYSTEM
3 4 25 26
@<TRIPOS>COMMENT
> <Gold.Version>
2022.2.0

> <Gold.Id.Protein>
3pbl|protein|mol2

> <Gold.Protein.RotatedTorsions>
[ 1303 1298 1297 1294 ] final -157.29 input  179.99 | X-H torsion
[ 2461 2456 2455 2452 ] final  -84.02 input   30.03 | X-H torsion
[ 2515 2510 2509 2506 ] final -157.11 input  -89.99 | X-H torsion
[ 3721 3712 3711 3710 ] final  -31.19 input -179.91 | X-H torsion
[ 3841 3832 3831 3830 ] final   27.92 input -179.91 | X-H torsion
[ 3767 3762 3761 3758 ] final -167.04 input  -89.99 | X-H torsion
[ 2472 2467 2466 2463 ] final   58.57 input  -89.97 | X-H torsion

> <Gold.Protein.ActiveResidues>
 VAL82   VAL86   LEU89   PHE106  VAL107  ASP110  VAL111  MET112  CYS114  THR115 
 CYS181  SER182  ILE183  PHE188  VAL189  ILE190  SER192  SER193  SER196  TRP342 
 PHE345  PHE346  HIS349  VAL350  TYR365  THR369  GLY372  TYR373 

> <Gold.Protein.RotatedAtoms>
    4.6845   -8.6252    4.4655 H   0  0  0  0  0  0  0  0  0  0  0  0  # atno 1303 bound_to 1298
    0.3371   -8.8421    7.6380 H   0  0  0  0  0  0  0  0  0  0  0  0  # atno 2461 bound_to 2456
   -4.6197   -4.8170    7.6587 H   0  0  0  0  0  0  0  0  0  0  0  0  # atno 2472 bound_to 2467
    2.4835   -9.2146    5.5544 H   0  0  0  0  0  0  0  0  0  0  0  0  # atno 2515 bound_to 2510
   -2.6097  -17.6867   14.6015 H   0  0  0  0  0  0  0  0  0  0  0  0  # atno 3721 bound_to 3712
   -4.2259  -22.3770   11.6279 H   0  0  0  0  0  0  0  0  0  0  0  0  # atno 3767 bound_to 3762
    2.0397  -20.7672    9.6221 H   0  0  0  0  0  0  0  0  0  0  0  0  # atno 3841 bound_to 3832
    4.3194  -10.1782    4.8138 LP  0  0  0  0  0  0  0  0  0  0  0  0  # atno 4297 bound_to 1298
    3.3581   -9.3183    3.8122 LP  0  0  0  0  0  0  0  0  0  0  0  0  # atno 4298 bound_to 1298
    1.7962   -9.0397    8.3446 LP  0  0  0  0  0  0  0  0  0  0  0  0  # atno 4299 bound_to 2456
    1.6042   -7.9264    7.1655 LP  0  0  0  0  0  0  0  0  0  0  0  0  # atno 4300 bound_to 2456
    2.0598   -7.6511    5.7592 LP  0  0  0  0  0  0  0  0  0  0  0  0  # atno 4301 bound_to 2510
    2.7534   -8.1330    4.3615 LP  0  0  0  0  0  0  0  0  0  0  0  0  # atno 4302 bound_to 2510
   -3.5584  -16.5555   13.9703 LP  0  0  0  0  0  0  0  0  0  0  0  0  # atno 4306 bound_to 3712
   -2.9564  -17.7512   13.0351 LP  0  0  0  0  0  0  0  0  0  0  0  0  # atno 4307 bound_to 3712
    1.7543  -19.6600    8.4957 LP  0  0  0  0  0  0  0  0  0  0  0  0  # atno 4314 bound_to 3832
    3.1189  -20.5560    8.4530 LP  0  0  0  0  0  0  0  0  0  0  0  0  # atno 4315 bound_to 3832
   -4.3960  -23.3258   10.3096 LP  0  0  0  0  0  0  0  0  0  0  0  0  # atno 4318 bound_to 3762
   -5.5053  -22.1722   10.6339 LP  0  0  0  0  0  0  0  0  0  0  0  0  # atno 4319 bound_to 3762
   -3.7375   -5.1952    8.9797 LP  0  0  0  0  0  0  0  0  0  0  0  0  # atno 4320 bound_to 2467
   -5.3597   -5.3812    9.0005 LP  0  0  0  0  0  0  0  0  0  0  0  0  # atno 4321 bound_to 2467

> <Gold.Score>
     Score     S(PLP)   S(hbond)     S(cho)   S(metal)  DE(clash)   DE(tors)     intcor
     31.56     -26.24       2.00       0.00       0.00       0.00       0.34       0.00

> <Gold.PLP.Fitness>
31.5605

> <Gold.PLP.PLP>
-26.2355

> <Gold.PLP.part.hbond>
-1.0000

> <Gold.PLP.part.metal>
0.0000

> <Gold.PLP.part.buried>
-3.3980

> <Gold.PLP.part.nonpolar>
-22.3353

> <Gold.PLP.part.repulsive>
0.0000

> <Gold.PLP.ligand.clash>
0.0000

> <Gold.PLP.ligand.torsion>
0.3386

> <Gold.PLP.Chemscore.Hbond>
2.0000

> <Gold.PLP.Chemscore.CHOScore>
0.0000

> <Gold.PLP.Chemscore.Metal>
0.0000

> <Gold.Chemscore.Hbonds>
donor molecule, donor type, donor heavy atom, donor atom, acceptor molecule, acceptor atom, score
      L1  H     3     4       P1  1227  2.00

> <Gold.PLP.Chemscore.Internal.Correction>
0.0022

