#       Name:                amine_i001
#       Creating user name   fsindt
#       Creation time:       Fri Aug 11 18:07:47 2023


#       File generated by GOLD software.
#

@<TRIPOS>MOLECULE
amine_i001
    26    26     1
SMALL
NO_CHARGES


@<TRIPOS>ATOM
      1 C1           2.5827   1.2483  -0.0641 C.3            1 <1>                0.0000
      2 C2           1.0584   1.1366  -0.1341 C.3            1 <1>                0.0000
      3 N3           0.6257  -0.0921   0.5449 N.4            1 <1>                0.0000
      4 H4           0.9843  -0.1041   1.4879 H              1 <1>                0.0000
      5 C5           1.1269  -1.2711  -0.1930 C.3            1 <1>                0.0000
      6 C6          -0.0007  -2.3257  -0.0665 C.3            1 <1>                0.0000
      7 C7          -1.2705  -1.4391  -0.1574 C.3            1 <1>                0.0000
      8 C8          -0.8472  -0.1509   0.5733 C.3            1 <1>                0.0000
      9 C9          -1.4312   1.0690  -0.1419 C.3            1 <1>                0.0000
     10 N10         -2.8981   1.0147  -0.0844 N.3            1 <1>                0.0000
     11 H11          2.8972   1.2796   0.9791 H              1 <1>                0.0000
     12 H12          3.0332   0.3848  -0.5536 H              1 <1>                0.0000
     13 H13          2.9038   2.1600  -0.5679 H              1 <1>                0.0000
     14 H14          0.6080   2.0001   0.3554 H              1 <1>                0.0000
     15 H15          0.7439   1.1053  -1.1773 H              1 <1>                0.0000
     16 H16          1.2958  -1.0199  -1.2401 H              1 <1>                0.0000
     17 H17          2.0456  -1.6414   0.2622 H              1 <1>                0.0000
     18 H18          0.0375  -3.0388  -0.8899 H              1 <1>                0.0000
     19 H19          0.0499  -2.8380   0.8943 H              1 <1>                0.0000
     20 H20         -1.5188  -1.2271  -1.1974 H              1 <1>                0.0000
     21 H21         -2.1095  -1.9142   0.3511 H              1 <1>                0.0000
     22 H22         -1.1944  -0.1794   1.6062 H              1 <1>                0.0000
     23 H23         -1.0819   1.9785   0.3469 H              1 <1>                0.0000
     24 H24         -1.1082   1.0691  -1.1829 H              1 <1>                0.0000
     25 H25         -3.2234   1.0327   0.8706 H              1 <1>                0.0000
     26 H26         -3.3090   1.7642  -0.6206 H              1 <1>                0.0000
@<TRIPOS>BOND
    1    1    2 1     
    2    1   11 1     
    3    1   12 1     
    4    1   13 1     
    5    2    3 1     
    6    2   14 1     
    7    2   15 1     
    8    3    4 1     
    9    3    8 1     
   10    3    5 1     
   11    5    6 1     
   12    5   16 1     
   13    5   17 1     
   14    6    7 1     
   15    6   18 1     
   16    6   19 1     
   17    7    8 1     
   18    7   20 1     
   19    7   21 1     
   20    8    9 1     
   21    8   22 1     
   22    9   10 1     
   23    9   23 1     
   24    9   24 1     
   25   10   25 1     
   26   10   26 1     
@<TRIPOS>SUBSTRUCTURE
      1 ****           1
@<TRIPOS>SET
DONOR_HYDROGENS      STATIC     ATOMS    <user>   **** ""
3 4 25 26
ATOM$RED        STATIC     ATOMS    COLORGROUP SYSTEM
3 4 25 26
