#       Name:                amine_i001
#       Creating user name   fsindt
#       Creation time:       Fri Aug 11 18:07:57 2023


#       File generated by GOLD software.
#

@<TRIPOS>MOLECULE
amine_i001|amine|mol2|1|dock15
    26    26     1
SMALL
NO_CHARGES


@<TRIPOS>ATOM
      1 C1          -0.3387 -11.1421  10.4693 C.3            1 <1>                0.0000
      2 C2           0.5326 -11.4994   9.2635 C.3            1 <1>                0.0000
      3 N3           0.0146 -12.7190   8.6292 N.4            1 <1>                0.0000
      4 H4          -0.9942 -12.7036   8.6354 H              1 <1>                0.0000
      5 C5           0.4986 -13.9064   9.3652 C.3            1 <1>                0.0000
      6 C6           0.7457 -14.9758   8.2720 C.3            1 <1>                0.0000
      7 C7           1.2986 -14.1120   7.1080 C.3            1 <1>                0.0000
      8 C8           0.5012 -12.8008   7.2399 C.3            1 <1>                0.0000
      9 C9           1.4082 -11.6071   6.9344 C.3            1 <1>                0.0000
     10 N10          1.9992 -11.7701   5.5994 N.3            1 <1>                0.0000
     11 H11         -1.3638 -10.9729  10.1396 H              1 <1>                0.0000
     12 H12         -0.3187 -11.9617  11.1877 H              1 <1>                0.0000
     13 H13          0.0456 -10.2371  10.9399 H              1 <1>                0.0000
     14 H14          0.5125 -10.6797   8.5452 H              1 <1>                0.0000
     15 H15          1.5576 -11.6685   9.5932 H              1 <1>                0.0000
     16 H16          1.4270 -13.6765   9.8879 H              1 <1>                0.0000
     17 H17         -0.2588 -14.2514  10.0692 H              1 <1>                0.0000
     18 H18          1.4842 -15.7068   8.6008 H              1 <1>                0.0000
     19 H19         -0.1857 -15.4651   7.9869 H              1 <1>                0.0000
     20 H20          2.3651 -13.9279   7.2377 H              1 <1>                0.0000
     21 H21          1.1027 -14.5887   6.1475 H              1 <1>                0.0000
     22 H22         -0.3456 -12.8112   6.5535 H              1 <1>                0.0000
     23 H23          0.8218 -10.6887   6.9625 H              1 <1>                0.0000
     24 H24          2.2022 -11.5540   7.6792 H              1 <1>                0.0000
     25 H25          2.9930 -11.9332   5.6615 H              1 <1>                0.0000
     26 H26          1.5422 -12.5113   5.0897 H              1 <1>                0.0000
@<TRIPOS>BOND
    1    1    2 1     
    2    1   11 1     
    3    1   12 1     
    4    1   13 1     
    5    2    3 1     
    6    2   14 1     
    7    2   15 1     
    8    3    4 1     
    9    3    8 1     
   10    3    5 1     
   11    5    6 1     
   12    5   16 1     
   13    5   17 1     
   14    6    7 1     
   15    6   18 1     
   16    6   19 1     
   17    7    8 1     
   18    7   20 1     
   19    7   21 1     
   20    8    9 1     
   21    8   22 1     
   22    9   10 1     
   23    9   23 1     
   24    9   24 1     
   25   10   25 1     
   26   10   26 1     
@<TRIPOS>SUBSTRUCTURE
      1 ****           1
@<TRIPOS>SET
DONOR_HYDROGENS      STATIC     ATOMS    <user>   **** ""
3 4 25 26
ATOM$RED        STATIC     ATOMS    COLORGROUP SYSTEM
3 4 25 26
@<TRIPOS>COMMENT
> <Gold.Version>
2022.2.0

> <Gold.Id.Protein>
3pbl|protein|mol2

> <Gold.Protein.RotatedTorsions>
[ 1303 1298 1297 1294 ] final  146.75 input  179.99 | X-H torsion
[ 2461 2456 2455 2452 ] final   42.34 input   30.03 | X-H torsion
[ 2515 2510 2509 2506 ] final  129.59 input  -89.99 | X-H torsion
[ 3721 3712 3711 3710 ] final -107.20 input -179.91 | X-H torsion
[ 3841 3832 3831 3830 ] final  144.67 input -179.91 | X-H torsion
[ 3767 3762 3761 3758 ] final -150.06 input  -89.99 | X-H torsion
[ 2472 2467 2466 2463 ] final -156.83 input  -89.97 | X-H torsion

> <Gold.Protein.ActiveResidues>
 VAL82   VAL86   LEU89   PHE106  VAL107  ASP110  VAL111  MET112  CYS114  THR115 
 CYS181  SER182  ILE183  PHE188  VAL189  ILE190  SER192  SER193  SER196  TRP342 
 PHE345  PHE346  HIS349  VAL350  TYR365  THR369  GLY372  TYR373 

> <Gold.Protein.RotatedAtoms>
    4.8960   -9.3660    4.9000 H   0  0  0  0  0  0  0  0  0  0  0  0  # atno 1303 bound_to 1298
    1.6954   -7.9430    7.2140 H   0  0  0  0  0  0  0  0  0  0  0  0  # atno 2461 bound_to 2456
   -5.0762   -5.4503    9.2766 H   0  0  0  0  0  0  0  0  0  0  0  0  # atno 2472 bound_to 2467
    2.0637   -8.3200    6.0924 H   0  0  0  0  0  0  0  0  0  0  0  0  # atno 2515 bound_to 2510
   -3.1429  -16.7645   14.5468 H   0  0  0  0  0  0  0  0  0  0  0  0  # atno 3721 bound_to 3712
   -4.4341  -22.1932   11.6489 H   0  0  0  0  0  0  0  0  0  0  0  0  # atno 3767 bound_to 3762
    3.1317  -20.4680    8.6780 H   0  0  0  0  0  0  0  0  0  0  0  0  # atno 3841 bound_to 3832
    3.5972  -10.1556    4.3032 LP  0  0  0  0  0  0  0  0  0  0  0  0  # atno 4297 bound_to 1298
    3.8687   -8.5997    3.8881 LP  0  0  0  0  0  0  0  0  0  0  0  0  # atno 4298 bound_to 1298
    0.3307   -8.7694    7.5630 LP  0  0  0  0  0  0  0  0  0  0  0  0  # atno 4299 bound_to 2456
    1.7118   -9.0956    8.3710 LP  0  0  0  0  0  0  0  0  0  0  0  0  # atno 4300 bound_to 2456
    2.4745   -7.5388    4.7188 LP  0  0  0  0  0  0  0  0  0  0  0  0  # atno 4301 bound_to 2510
    2.7587   -9.1403    4.8637 LP  0  0  0  0  0  0  0  0  0  0  0  0  # atno 4302 bound_to 2510
   -3.2919  -17.1711   13.0007 LP  0  0  0  0  0  0  0  0  0  0  0  0  # atno 4306 bound_to 3712
   -2.6072  -18.2003   14.0678 LP  0  0  0  0  0  0  0  0  0  0  0  0  # atno 4307 bound_to 3712
    1.8539  -20.9026    9.5466 LP  0  0  0  0  0  0  0  0  0  0  0  0  # atno 4314 bound_to 3832
    1.7579  -19.6590    8.4926 LP  0  0  0  0  0  0  0  0  0  0  0  0  # atno 4315 bound_to 3832
   -4.1939  -23.3298   10.5012 LP  0  0  0  0  0  0  0  0  0  0  0  0  # atno 4318 bound_to 3762
   -5.4992  -22.3518   10.4213 LP  0  0  0  0  0  0  0  0  0  0  0  0  # atno 4319 bound_to 3762
   -5.0054   -4.8896    7.7446 LP  0  0  0  0  0  0  0  0  0  0  0  0  # atno 4320 bound_to 2467
   -3.6355   -5.0537    8.6181 LP  0  0  0  0  0  0  0  0  0  0  0  0  # atno 4321 bound_to 2467

> <Gold.Score>
     Score     S(PLP)   S(hbond)     S(cho)   S(metal)  DE(clash)   DE(tors)     intcor
     31.98     -29.44       0.99       0.00       0.00       0.00       0.22       0.00

> <Gold.PLP.Fitness>
31.9791

> <Gold.PLP.PLP>
-29.4374

> <Gold.PLP.part.hbond>
-1.0000

> <Gold.PLP.part.metal>
0.0000

> <Gold.PLP.part.buried>
-3.6044

> <Gold.PLP.part.nonpolar>
-26.1241

> <Gold.PLP.part.repulsive>
0.0000

> <Gold.PLP.ligand.clash>
0.0000

> <Gold.PLP.ligand.torsion>
0.2169

> <Gold.PLP.Chemscore.Hbond>
0.9913

> <Gold.PLP.Chemscore.CHOScore>
0.0000

> <Gold.PLP.Chemscore.Metal>
0.0000

> <Gold.Chemscore.Hbonds>
donor molecule, donor type, donor heavy atom, donor atom, acceptor molecule, acceptor atom, score
      L1  H    10    25       P1  1235  0.99

> <Gold.PLP.Chemscore.Internal.Correction>
0.0017

