#       Name:                amine_i001
#       Creating user name   fsindt
#       Creation time:       Fri Aug 11 18:08:00 2023


#       File generated by GOLD software.
#

@<TRIPOS>MOLECULE
amine_i001|amine|mol2|1|dock20
    26    26     1
SMALL
NO_CHARGES


@<TRIPOS>ATOM
      1 C1           1.1055 -12.6215   6.7630 C.3            1 <1>                0.0000
      2 C2           1.0601 -11.9437   8.1339 C.3            1 <1>                0.0000
      3 N3          -0.2782 -12.1075   8.7171 N.4            1 <1>                0.0000
      4 H4          -0.9727 -12.0899   7.9854 H              1 <1>                0.0000
      5 C5          -0.5394 -11.0144   9.6776 C.3            1 <1>                0.0000
      6 C6          -1.3607 -11.6738  10.8135 C.3            1 <1>                0.0000
      7 C7          -0.6994 -13.0741  10.9060 C.3            1 <1>                0.0000
      8 C8          -0.3509 -13.3907   9.4395 C.3            1 <1>                0.0000
      9 C9           0.9996 -14.1061   9.3682 C.3            1 <1>                0.0000
     10 N10          0.9211 -15.3751  10.1040 N.3            1 <1>                0.0000
     11 H11          0.8855 -13.6832   6.8750 H              1 <1>                0.0000
     12 H12          0.3649 -12.1643   6.1068 H              1 <1>                0.0000
     13 H13          2.0986 -12.5000   6.3302 H              1 <1>                0.0000
     14 H14          1.8008 -12.4010   8.7899 H              1 <1>                0.0000
     15 H15          1.2802 -10.8821   8.0218 H              1 <1>                0.0000
     16 H16          0.3987 -10.6195  10.0675 H              1 <1>                0.0000
     17 H17         -1.1174 -10.2217   9.2024 H              1 <1>                0.0000
     18 H18         -1.2452 -11.1249  11.7481 H              1 <1>                0.0000
     19 H19         -2.4121 -11.7559  10.5381 H              1 <1>                0.0000
     20 H20          0.2034 -13.0344  11.5156 H              1 <1>                0.0000
     21 H21         -1.4021 -13.8067  11.3034 H              1 <1>                0.0000
     22 H22         -1.1281 -14.0165   9.0005 H              1 <1>                0.0000
     23 H23          1.2508 -14.3051   8.3264 H              1 <1>                0.0000
     24 H24          1.7690 -13.4751   9.8132 H              1 <1>                0.0000
     25 H25          1.7746 -15.9041  10.0046 H              1 <1>                0.0000
     26 H26          0.7053 -15.2163  11.0768 H              1 <1>                0.0000
@<TRIPOS>BOND
    1    1    2 1     
    2    1   11 1     
    3    1   12 1     
    4    1   13 1     
    5    2    3 1     
    6    2   14 1     
    7    2   15 1     
    8    3    4 1     
    9    3    8 1     
   10    3    5 1     
   11    5    6 1     
   12    5   16 1     
   13    5   17 1     
   14    6    7 1     
   15    6   18 1     
   16    6   19 1     
   17    7    8 1     
   18    7   20 1     
   19    7   21 1     
   20    8    9 1     
   21    8   22 1     
   22    9   10 1     
   23    9   23 1     
   24    9   24 1     
   25   10   25 1     
   26   10   26 1     
@<TRIPOS>SUBSTRUCTURE
      1 ****           1
@<TRIPOS>SET
DONOR_HYDROGENS      STATIC     ATOMS    <user>   **** ""
3 4 25 26
ATOM$RED        STATIC     ATOMS    COLORGROUP SYSTEM
3 4 25 26
@<TRIPOS>COMMENT
> <Gold.Version>
2022.2.0

> <Gold.Id.Protein>
3pbl|protein|mol2

> <Gold.Protein.RotatedTorsions>
[ 1303 1298 1297 1294 ] final   47.98 input  179.99 | X-H torsion
[ 2461 2456 2455 2452 ] final   90.87 input   30.03 | X-H torsion
[ 2515 2510 2509 2506 ] final  -10.38 input  -89.99 | X-H torsion
[ 3721 3712 3711 3710 ] final  132.36 input -179.91 | X-H torsion
[ 3841 3832 3831 3830 ] final  144.95 input -179.91 | X-H torsion
[ 3767 3762 3761 3758 ] final  -25.03 input  -89.99 | X-H torsion
[ 2472 2467 2466 2463 ] final -143.00 input  -89.97 | X-H torsion

> <Gold.Protein.ActiveResidues>
 VAL82   VAL86   LEU89   PHE106  VAL107  ASP110  VAL111  MET112  CYS114  THR115 
 CYS181  SER182  ILE183  PHE188  VAL189  ILE190  SER192  SER193  SER196  TRP342 
 PHE345  PHE346  HIS349  VAL350  TYR365  THR369  GLY372  TYR373 

> <Gold.Protein.RotatedAtoms>
    3.8475  -10.2624    4.5192 H   0  0  0  0  0  0  0  0  0  0  0  0  # atno 1303 bound_to 1298
    2.1413   -8.3069    7.7331 H   0  0  0  0  0  0  0  0  0  0  0  0  # atno 2461 bound_to 2456
   -4.8724   -5.4637    9.3760 H   0  0  0  0  0  0  0  0  0  0  0  0  # atno 2472 bound_to 2467
    2.6091   -7.7485    4.5073 H   0  0  0  0  0  0  0  0  0  0  0  0  # atno 2515 bound_to 2510
   -3.0965  -17.0737   13.0760 H   0  0  0  0  0  0  0  0  0  0  0  0  # atno 3721 bound_to 3712
   -5.4838  -22.4099   10.3643 H   0  0  0  0  0  0  0  0  0  0  0  0  # atno 3767 bound_to 3762
    3.1314  -20.4648    8.6753 H   0  0  0  0  0  0  0  0  0  0  0  0  # atno 3841 bound_to 3832
    3.6143   -8.8173    3.7957 LP  0  0  0  0  0  0  0  0  0  0  0  0  # atno 4297 bound_to 1298
    4.9005   -9.0413    4.7765 LP  0  0  0  0  0  0  0  0  0  0  0  0  # atno 4298 bound_to 1298
    0.6327   -8.2146    7.1142 LP  0  0  0  0  0  0  0  0  0  0  0  0  # atno 4299 bound_to 2456
    0.9641   -9.2865    8.3008 LP  0  0  0  0  0  0  0  0  0  0  0  0  # atno 4300 bound_to 2456
    2.6580   -9.2459    5.1564 LP  0  0  0  0  0  0  0  0  0  0  0  0  # atno 4301 bound_to 2510
    2.0295   -8.0050    6.0119 LP  0  0  0  0  0  0  0  0  0  0  0  0  # atno 4302 bound_to 2510
   -2.6090  -18.1886   14.1236 LP  0  0  0  0  0  0  0  0  0  0  0  0  # atno 4306 bound_to 3712
   -3.3437  -16.8258   14.6430 LP  0  0  0  0  0  0  0  0  0  0  0  0  # atno 4307 bound_to 3712
    1.8576  -20.9054    9.5468 LP  0  0  0  0  0  0  0  0  0  0  0  0  # atno 4314 bound_to 3832
    1.7544  -19.6600    8.4956 LP  0  0  0  0  0  0  0  0  0  0  0  0  # atno 4315 bound_to 3832
   -4.5017  -22.1460   11.6421 LP  0  0  0  0  0  0  0  0  0  0  0  0  # atno 4318 bound_to 3762
   -4.1422  -23.3191   10.5645 LP  0  0  0  0  0  0  0  0  0  0  0  0  # atno 4319 bound_to 3762
   -5.1917   -4.9513    7.8588 LP  0  0  0  0  0  0  0  0  0  0  0  0  # atno 4320 bound_to 2467
   -3.6529   -4.9786    8.4045 LP  0  0  0  0  0  0  0  0  0  0  0  0  # atno 4321 bound_to 2467

> <Gold.Score>
     Score     S(PLP)   S(hbond)     S(cho)   S(metal)  DE(clash)   DE(tors)     intcor
     31.50     -29.09       1.00       0.00       0.00       0.00       0.29       0.00

> <Gold.PLP.Fitness>
31.4994

> <Gold.PLP.PLP>
-29.0874

> <Gold.PLP.part.hbond>
-1.0000

> <Gold.PLP.part.metal>
0.0000

> <Gold.PLP.part.buried>
-3.2875

> <Gold.PLP.part.nonpolar>
-24.9782

> <Gold.PLP.part.repulsive>
0.0000

> <Gold.PLP.ligand.clash>
0.0000

> <Gold.PLP.ligand.torsion>
0.2949

> <Gold.PLP.Chemscore.Hbond>
1.0000

> <Gold.PLP.Chemscore.CHOScore>
0.0000

> <Gold.PLP.Chemscore.Metal>
0.0000

> <Gold.Chemscore.Hbonds>
donor molecule, donor type, donor heavy atom, donor atom, acceptor molecule, acceptor atom, score
      L1  H    10    25       P1  1227  1.00

> <Gold.PLP.Chemscore.Internal.Correction>
0.0017

