#       Name:                amine_i001
#       Creating user name   fsindt
#       Creation time:       Fri Aug 11 18:07:48 2023


#       File generated by GOLD software.
#

@<TRIPOS>MOLECULE
amine_i001|amine|mol2|1|dock1
    26    26     1
SMALL
NO_CHARGES


@<TRIPOS>ATOM
      1 C1          -0.9344 -11.9136  10.7623 C.3            1 <1>                0.0000
      2 C2          -0.4011 -13.1866  10.1021 C.3            1 <1>                0.0000
      3 N3           0.6977 -12.8418   9.1899 N.4            1 <1>                0.0000
      4 H4           1.4984 -12.5358   9.7221 H              1 <1>                0.0000
      5 C5           0.2657 -11.7627   8.2763 C.3            1 <1>                0.0000
      6 C6           0.9488 -12.0911   6.9253 C.3            1 <1>                0.0000
      7 C7           0.8675 -13.6401   6.9015 C.3            1 <1>                0.0000
      8 C8           1.0599 -14.0204   8.3817 C.3            1 <1>                0.0000
      9 C9           0.1497 -15.1971   8.7392 C.3            1 <1>                0.0000
     10 N10          0.5155 -16.3641   7.9254 N.3            1 <1>                0.0000
     11 H11         -0.1334 -11.4325  11.3237 H              1 <1>                0.0000
     12 H12         -1.3000 -11.2318   9.9945 H              1 <1>                0.0000
     13 H13         -1.7496 -12.1694  11.4391 H              1 <1>                0.0000
     14 H14         -0.0354 -13.8683  10.8699 H              1 <1>                0.0000
     15 H15         -1.2020 -13.6676   9.5406 H              1 <1>                0.0000
     16 H16         -0.8186 -11.7708   8.1652 H              1 <1>                0.0000
     17 H17          0.6027 -10.7943   8.6465 H              1 <1>                0.0000
     18 H18          0.3950 -11.6580   6.0924 H              1 <1>                0.0000
     19 H19          1.9855 -11.7543   6.9200 H              1 <1>                0.0000
     20 H20         -0.1082 -13.9693   6.5438 H              1 <1>                0.0000
     21 H21          1.6654 -14.0585   6.2879 H              1 <1>                0.0000
     22 H22          2.1014 -14.2856   8.5640 H              1 <1>                0.0000
     23 H23          0.2673 -15.4395   9.7954 H              1 <1>                0.0000
     24 H24         -0.8877 -14.9272   8.5418 H              1 <1>                0.0000
     25 H25          0.5925 -16.1153   6.9506 H              1 <1>                0.0000
     26 H26          1.3694 -16.7849   8.2598 H              1 <1>                0.0000
@<TRIPOS>BOND
    1    1    2 1     
    2    1   11 1     
    3    1   12 1     
    4    1   13 1     
    5    2    3 1     
    6    2   14 1     
    7    2   15 1     
    8    3    4 1     
    9    3    8 1     
   10    3    5 1     
   11    5    6 1     
   12    5   16 1     
   13    5   17 1     
   14    6    7 1     
   15    6   18 1     
   16    6   19 1     
   17    7    8 1     
   18    7   20 1     
   19    7   21 1     
   20    8    9 1     
   21    8   22 1     
   22    9   10 1     
   23    9   23 1     
   24    9   24 1     
   25   10   25 1     
   26   10   26 1     
@<TRIPOS>SUBSTRUCTURE
      1 ****           1
@<TRIPOS>SET
DONOR_HYDROGENS      STATIC     ATOMS    <user>   **** ""
3 4 25 26
ATOM$RED        STATIC     ATOMS    COLORGROUP SYSTEM
3 4 25 26
@<TRIPOS>COMMENT
> <Gold.Version>
2022.2.0

> <Gold.Id.Protein>
3pbl|protein|mol2

> <Gold.Protein.RotatedTorsions>
[ 1303 1298 1297 1294 ] final -104.45 input  179.99 | X-H torsion
[ 2461 2456 2455 2452 ] final  -22.05 input   30.03 | X-H torsion
[ 2515 2510 2509 2506 ] final  119.64 input  -89.99 | X-H torsion
[ 3721 3712 3711 3710 ] final -140.00 input -179.91 | X-H torsion
[ 3841 3832 3831 3830 ] final  -19.76 input -179.91 | X-H torsion
[ 3767 3762 3761 3758 ] final   -2.74 input  -89.99 | X-H torsion
[ 2472 2467 2466 2463 ] final -129.62 input  -89.97 | X-H torsion

> <Gold.Protein.ActiveResidues>
 VAL82   VAL86   LEU89   PHE106  VAL107  ASP110  VAL111  MET112  CYS114  THR115 
 CYS181  SER182  ILE183  PHE188  VAL189  ILE190  SER192  SER193  SER196  TRP342 
 PHE345  PHE346  HIS349  VAL350  TYR365  THR369  GLY372  TYR373 

> <Gold.Protein.RotatedAtoms>
    4.0190   -8.5260    3.9646 H   0  0  0  0  0  0  0  0  0  0  0  0  # atno 1303 bound_to 1298
    0.7210   -8.1477    7.0783 H   0  0  0  0  0  0  0  0  0  0  0  0  # atno 2461 bound_to 2456
   -4.6587   -5.4584    9.4264 H   0  0  0  0  0  0  0  0  0  0  0  0  # atno 2472 bound_to 2467
    2.0409   -8.1605    6.0649 H   0  0  0  0  0  0  0  0  0  0  0  0  # atno 2515 bound_to 2510
   -3.3016  -16.5513   14.1362 H   0  0  0  0  0  0  0  0  0  0  0  0  # atno 3721 bound_to 3712
   -5.3471  -22.6830   10.1650 H   0  0  0  0  0  0  0  0  0  0  0  0  # atno 3767 bound_to 3762
    1.6053  -20.2530    9.4306 H   0  0  0  0  0  0  0  0  0  0  0  0  # atno 3841 bound_to 3832
    4.8512   -9.5408    4.9361 LP  0  0  0  0  0  0  0  0  0  0  0  0  # atno 4297 bound_to 1298
    3.4920  -10.0548    4.1911 LP  0  0  0  0  0  0  0  0  0  0  0  0  # atno 4298 bound_to 1298
    0.8589   -9.2747    8.2522 LP  0  0  0  0  0  0  0  0  0  0  0  0  # atno 4299 bound_to 2456
    2.1578   -8.3856    7.8174 LP  0  0  0  0  0  0  0  0  0  0  0  0  # atno 4300 bound_to 2456
    2.5433   -7.6326    4.6038 LP  0  0  0  0  0  0  0  0  0  0  0  0  # atno 4301 bound_to 2510
    2.7128   -9.2061    5.0062 LP  0  0  0  0  0  0  0  0  0  0  0  0  # atno 4302 bound_to 2510
   -3.0238  -17.6405   12.9898 LP  0  0  0  0  0  0  0  0  0  0  0  0  # atno 4306 bound_to 3712
   -2.6921  -17.9770   14.5529 LP  0  0  0  0  0  0  0  0  0  0  0  0  # atno 4307 bound_to 3712
    2.4427  -19.7555    8.1550 LP  0  0  0  0  0  0  0  0  0  0  0  0  # atno 4314 bound_to 3832
    2.9323  -21.0545    9.0149 LP  0  0  0  0  0  0  0  0  0  0  0  0  # atno 4315 bound_to 3832
   -4.8112  -21.9828   11.5396 LP  0  0  0  0  0  0  0  0  0  0  0  0  # atno 4318 bound_to 3762
   -3.9693  -23.2093   10.8662 LP  0  0  0  0  0  0  0  0  0  0  0  0  # atno 4319 bound_to 3762
   -5.3378   -5.0208    8.0073 LP  0  0  0  0  0  0  0  0  0  0  0  0  # atno 4320 bound_to 2467
   -3.7204   -4.9144    8.2057 LP  0  0  0  0  0  0  0  0  0  0  0  0  # atno 4321 bound_to 2467

> <Gold.Score>
     Score     S(PLP)   S(hbond)     S(cho)   S(metal)  DE(clash)   DE(tors)     intcor
     33.90     -30.98       1.00       0.00       0.00       0.00       0.04       0.00

> <Gold.PLP.Fitness>
33.8987

> <Gold.PLP.PLP>
-30.9846

> <Gold.PLP.part.hbond>
-1.0000

> <Gold.PLP.part.metal>
0.0000

> <Gold.PLP.part.buried>
-3.4985

> <Gold.PLP.part.nonpolar>
-26.6785

> <Gold.PLP.part.repulsive>
0.0000

> <Gold.PLP.ligand.clash>
0.0000

> <Gold.PLP.ligand.torsion>
0.0441

> <Gold.PLP.Chemscore.Hbond>
1.0000

> <Gold.PLP.Chemscore.CHOScore>
0.0000

> <Gold.PLP.Chemscore.Metal>
0.0000

> <Gold.Chemscore.Hbonds>
donor molecule, donor type, donor heavy atom, donor atom, acceptor molecule, acceptor atom, score
      L1  H    10    26       P1  1227  1.00

> <Gold.PLP.Chemscore.Internal.Correction>
0.0023

