#       Name:                amine_i001
#       Creating user name   fsindt
#       Creation time:       Fri Aug 11 18:07:55 2023


#       File generated by GOLD software.
#

@<TRIPOS>MOLECULE
amine_i001|amine|mol2|1|dock12
    26    26     1
SMALL
NO_CHARGES


@<TRIPOS>ATOM
      1 C1          -4.3416 -10.9919   9.8982 C.3            1 <1>                0.0000
      2 C2          -2.9724 -11.3844   9.3396 C.3            1 <1>                0.0000
      3 N3          -2.0152 -11.5269  10.4447 N.4            1 <1>                0.0000
      4 H4          -2.2390 -12.3491  10.9849 H              1 <1>                0.0000
      5 C5          -2.0746 -10.3308  11.3117 C.3            1 <1>                0.0000
      6 C6          -0.6121 -10.0987  11.7665 C.3            1 <1>                0.0000
      7 C7           0.1783 -10.4827  10.4880 C.3            1 <1>                0.0000
      8 C8          -0.6482 -11.6445   9.9051 C.3            1 <1>                0.0000
      9 C9          -0.6804 -11.5457   8.3787 C.3            1 <1>                0.0000
     10 N10          0.6911 -11.4222   7.8669 N.3            1 <1>                0.0000
     11 H11         -4.6898 -11.7650  10.5831 H              1 <1>                0.0000
     12 H12         -4.2587 -10.0447  10.4313 H              1 <1>                0.0000
     13 H13         -5.0519 -10.8861   9.0782 H              1 <1>                0.0000
     14 H14         -3.0554 -12.3315   8.8065 H              1 <1>                0.0000
     15 H15         -2.6242 -10.6112   8.6547 H              1 <1>                0.0000
     16 H16         -2.4377  -9.4713  10.7482 H              1 <1>                0.0000
     17 H17         -2.7149 -10.5183  12.1738 H              1 <1>                0.0000
     18 H18         -0.4461  -9.0541  12.0294 H              1 <1>                0.0000
     19 H19         -0.3530 -10.7548  12.5976 H              1 <1>                0.0000
     20 H20          0.2114  -9.6464   9.7898 H              1 <1>                0.0000
     21 H21          1.1852 -10.8139  10.7423 H              1 <1>                0.0000
     22 H22         -0.2137 -12.5972  10.2082 H              1 <1>                0.0000
     23 H23         -1.1427 -12.4425   7.9662 H              1 <1>                0.0000
     24 H24         -1.2586 -10.6703   8.0833 H              1 <1>                0.0000
     25 H25          1.0072 -10.4648   7.9072 H              1 <1>                0.0000
     26 H26          1.3201 -12.0321   8.3673 H              1 <1>                0.0000
@<TRIPOS>BOND
    1    1    2 1     
    2    1   11 1     
    3    1   12 1     
    4    1   13 1     
    5    2    3 1     
    6    2   14 1     
    7    2   15 1     
    8    3    4 1     
    9    3    8 1     
   10    3    5 1     
   11    5    6 1     
   12    5   16 1     
   13    5   17 1     
   14    6    7 1     
   15    6   18 1     
   16    6   19 1     
   17    7    8 1     
   18    7   20 1     
   19    7   21 1     
   20    8    9 1     
   21    8   22 1     
   22    9   10 1     
   23    9   23 1     
   24    9   24 1     
   25   10   25 1     
   26   10   26 1     
@<TRIPOS>SUBSTRUCTURE
      1 ****           1
@<TRIPOS>SET
DONOR_HYDROGENS      STATIC     ATOMS    <user>   **** ""
3 4 25 26
ATOM$RED        STATIC     ATOMS    COLORGROUP SYSTEM
3 4 25 26
@<TRIPOS>COMMENT
> <Gold.Version>
2022.2.0

> <Gold.Id.Protein>
3pbl|protein|mol2

> <Gold.Protein.RotatedTorsions>
[ 1303 1298 1297 1294 ] final -156.52 input  179.99 | X-H torsion
[ 2461 2456 2455 2452 ] final   53.20 input   30.03 | X-H torsion
[ 2515 2510 2509 2506 ] final  -40.98 input  -89.99 | X-H torsion
[ 3721 3712 3711 3710 ] final  162.85 input -179.91 | X-H torsion
[ 3841 3832 3831 3830 ] final -116.07 input -179.91 | X-H torsion
[ 3767 3762 3761 3758 ] final -100.99 input  -89.99 | X-H torsion
[ 2472 2467 2466 2463 ] final   26.09 input  -89.97 | X-H torsion

> <Gold.Protein.ActiveResidues>
 VAL82   VAL86   LEU89   PHE106  VAL107  ASP110  VAL111  MET112  CYS114  THR115 
 CYS181  SER182  ILE183  PHE188  VAL189  ILE190  SER192  SER193  SER196  TRP342 
 PHE345  PHE346  HIS349  VAL350  TYR365  THR369  GLY372  TYR373 

> <Gold.Protein.RotatedAtoms>
    4.6769   -8.6185    4.4577 H   0  0  0  0  0  0  0  0  0  0  0  0  # atno 1303 bound_to 1298
    1.8376   -7.9903    7.3108 H   0  0  0  0  0  0  0  0  0  0  0  0  # atno 2461 bound_to 2456
   -4.1093   -4.8086    7.7911 H   0  0  0  0  0  0  0  0  0  0  0  0  # atno 2472 bound_to 2467
    2.7692   -8.1945    4.3559 H   0  0  0  0  0  0  0  0  0  0  0  0  # atno 2515 bound_to 2510
   -3.2677  -16.7358   13.3290 H   0  0  0  0  0  0  0  0  0  0  0  0  # atno 3721 bound_to 3712
   -5.0983  -21.9154   11.3409 H   0  0  0  0  0  0  0  0  0  0  0  0  # atno 3767 bound_to 3762
    2.1708  -19.5856    8.4829 H   0  0  0  0  0  0  0  0  0  0  0  0  # atno 3841 bound_to 3832
    4.3297  -10.1727    4.8189 LP  0  0  0  0  0  0  0  0  0  0  0  0  # atno 4297 bound_to 1298
    3.3554   -9.3304    3.8150 LP  0  0  0  0  0  0  0  0  0  0  0  0  # atno 4298 bound_to 1298
    0.3453   -8.6411    7.4400 LP  0  0  0  0  0  0  0  0  0  0  0  0  # atno 4299 bound_to 2456
    1.5551   -9.1766    8.3972 LP  0  0  0  0  0  0  0  0  0  0  0  0  # atno 4300 bound_to 2456
    2.4562   -9.1941    5.6083 LP  0  0  0  0  0  0  0  0  0  0  0  0  # atno 4301 bound_to 2510
    2.0712   -7.6105    5.7115 LP  0  0  0  0  0  0  0  0  0  0  0  0  # atno 4302 bound_to 2510
   -2.6529  -18.1898   13.6219 LP  0  0  0  0  0  0  0  0  0  0  0  0  # atno 4306 bound_to 3712
   -3.1021  -17.2148   14.8525 LP  0  0  0  0  0  0  0  0  0  0  0  0  # atno 4307 bound_to 3712
    3.0834  -20.8762    8.7617 LP  0  0  0  0  0  0  0  0  0  0  0  0  # atno 4314 bound_to 3832
    1.6384  -20.7047    9.5029 LP  0  0  0  0  0  0  0  0  0  0  0  0  # atno 4315 bound_to 3832
   -3.9073  -23.0179   11.1596 LP  0  0  0  0  0  0  0  0  0  0  0  0  # atno 4318 bound_to 3762
   -5.1219  -22.9416   10.0708 LP  0  0  0  0  0  0  0  0  0  0  0  0  # atno 4319 bound_to 3762
   -4.0974   -5.3603    9.3279 LP  0  0  0  0  0  0  0  0  0  0  0  0  # atno 4320 bound_to 2467
   -5.5101   -5.2246    8.5200 LP  0  0  0  0  0  0  0  0  0  0  0  0  # atno 4321 bound_to 2467

> <Gold.Score>
     Score     S(PLP)   S(hbond)     S(cho)   S(metal)  DE(clash)   DE(tors)     intcor
     35.95     -33.15       1.00       0.00       0.00       0.00       0.10       0.00

> <Gold.PLP.Fitness>
35.9541

> <Gold.PLP.PLP>
-33.1459

> <Gold.PLP.part.hbond>
-1.0000

> <Gold.PLP.part.metal>
0.0000

> <Gold.PLP.part.buried>
-4.1516

> <Gold.PLP.part.nonpolar>
-28.7901

> <Gold.PLP.part.repulsive>
0.0374

> <Gold.PLP.ligand.clash>
0.0000

> <Gold.PLP.ligand.torsion>
0.0967

> <Gold.PLP.Chemscore.Hbond>
1.0000

> <Gold.PLP.Chemscore.CHOScore>
0.0000

> <Gold.PLP.Chemscore.Metal>
0.0000

> <Gold.Chemscore.Hbonds>
donor molecule, donor type, donor heavy atom, donor atom, acceptor molecule, acceptor atom, score
      L1  H    10    25       P1  2456  1.00

> <Gold.PLP.Chemscore.Internal.Correction>
0.0017

