#       Name:                amine_i001
#       Creating user name   fsindt
#       Creation time:       Fri Aug 11 18:07:52 2023


#       File generated by GOLD software.
#

@<TRIPOS>MOLECULE
amine_i001|amine|mol2|1|dock7
    26    26     1
SMALL
NO_CHARGES


@<TRIPOS>ATOM
      1 C1           0.5697 -14.5524   9.4209 C.3            1 <1>                0.0000
      2 C2           0.2990 -15.0099  10.8555 C.3            1 <1>                0.0000
      3 N3           0.6189 -16.4380  10.9828 N.4            1 <1>                0.0000
      4 H4           1.5167 -16.6244  10.5618 H              1 <1>                0.0000
      5 C5          -0.4228 -17.2429  10.3100 C.3            1 <1>                0.0000
      6 C6          -0.5758 -18.5078  11.1910 C.3            1 <1>                0.0000
      7 C7          -0.4002 -17.9202  12.6160 C.3            1 <1>                0.0000
      8 C8           0.6513 -16.8141  12.4080 C.3            1 <1>                0.0000
      9 C9           0.3090 -15.6009  13.2749 C.3            1 <1>                0.0000
     10 N10          0.3978 -15.9719  14.6935 N.3            1 <1>                0.0000
     11 H11          1.6209 -14.7121   9.1808 H              1 <1>                0.0000
     12 H12         -0.0512 -15.1264   8.7331 H              1 <1>                0.0000
     13 H13          0.3324 -13.4927   9.3264 H              1 <1>                0.0000
     14 H14          0.9200 -14.4358  11.5432 H              1 <1>                0.0000
     15 H15         -0.7522 -14.8501  11.0956 H              1 <1>                0.0000
     16 H16         -1.3623 -16.6917  10.2711 H              1 <1>                0.0000
     17 H17         -0.1008 -17.5170   9.3053 H              1 <1>                0.0000
     18 H18         -1.5645 -18.9505  11.0703 H              1 <1>                0.0000
     19 H19          0.2055 -19.2348  10.9694 H              1 <1>                0.0000
     20 H20         -1.3376 -17.4965  12.9763 H              1 <1>                0.0000
     21 H21         -0.0304 -18.6809  13.3037 H              1 <1>                0.0000
     22 H22          1.6412 -17.1901  12.6668 H              1 <1>                0.0000
     23 H23          1.0121 -14.7947  13.0656 H              1 <1>                0.0000
     24 H24         -0.7038 -15.2672  13.0494 H              1 <1>                0.0000
     25 H25         -0.4938 -16.2936  15.0396 H              1 <1>                0.0000
     26 H26          1.1149 -16.6661  14.8416 H              1 <1>                0.0000
@<TRIPOS>BOND
    1    1    2 1     
    2    1   11 1     
    3    1   12 1     
    4    1   13 1     
    5    2    3 1     
    6    2   14 1     
    7    2   15 1     
    8    3    4 1     
    9    3    8 1     
   10    3    5 1     
   11    5    6 1     
   12    5   16 1     
   13    5   17 1     
   14    6    7 1     
   15    6   18 1     
   16    6   19 1     
   17    7    8 1     
   18    7   20 1     
   19    7   21 1     
   20    8    9 1     
   21    8   22 1     
   22    9   10 1     
   23    9   23 1     
   24    9   24 1     
   25   10   25 1     
   26   10   26 1     
@<TRIPOS>SUBSTRUCTURE
      1 ****           1
@<TRIPOS>SET
DONOR_HYDROGENS      STATIC     ATOMS    <user>   **** ""
3 4 25 26
ATOM$RED        STATIC     ATOMS    COLORGROUP SYSTEM
3 4 25 26
@<TRIPOS>COMMENT
> <Gold.Version>
2022.2.0

> <Gold.Id.Protein>
3pbl|protein|mol2

> <Gold.Protein.RotatedTorsions>
[ 1303 1298 1297 1294 ] final  -19.90 input  179.99 | X-H torsion
[ 2461 2456 2455 2452 ] final    7.27 input   30.03 | X-H torsion
[ 2515 2510 2509 2506 ] final  -76.46 input  -89.99 | X-H torsion
[ 3721 3712 3711 3710 ] final   47.06 input -179.91 | X-H torsion
[ 3841 3832 3831 3830 ] final -120.55 input -179.91 | X-H torsion
[ 3767 3762 3761 3758 ] final   50.60 input  -89.99 | X-H torsion
[ 2472 2467 2466 2463 ] final -115.73 input  -89.97 | X-H torsion

> <Gold.Protein.ActiveResidues>
 VAL82   VAL86   LEU89   PHE106  VAL107  ASP110  VAL111  MET112  CYS114  THR115 
 CYS181  SER182  ILE183  PHE188  VAL189  ILE190  SER192  SER193  SER196  TRP342 
 PHE345  PHE346  HIS349  VAL350  TYR365  THR369  GLY372  TYR373 

> <Gold.Protein.RotatedAtoms>
    3.3299   -9.5886    3.8981 H   0  0  0  0  0  0  0  0  0  0  0  0  # atno 1303 bound_to 1298
    1.1556   -7.9545    7.0370 H   0  0  0  0  0  0  0  0  0  0  0  0  # atno 2461 bound_to 2456
   -4.4320   -5.4341    9.4281 H   0  0  0  0  0  0  0  0  0  0  0  0  # atno 2472 bound_to 2467
    2.8356   -8.7507    4.4827 H   0  0  0  0  0  0  0  0  0  0  0  0  # atno 2515 bound_to 2510
   -2.5318  -17.9854   13.5528 H   0  0  0  0  0  0  0  0  0  0  0  0  # atno 3721 bound_to 3712
   -4.7001  -23.2276   10.1318 H   0  0  0  0  0  0  0  0  0  0  0  0  # atno 3767 bound_to 3762
    2.2312  -19.5948    8.4538 H   0  0  0  0  0  0  0  0  0  0  0  0  # atno 3841 bound_to 3832
    4.4932   -8.5110    4.2877 LP  0  0  0  0  0  0  0  0  0  0  0  0  # atno 4297 bound_to 1298
    4.5394  -10.0217    4.9060 LP  0  0  0  0  0  0  0  0  0  0  0  0  # atno 4298 bound_to 1298
    0.5023   -9.1214    7.9746 LP  0  0  0  0  0  0  0  0  0  0  0  0  # atno 4299 bound_to 2456
    2.0799   -8.7320    8.1363 LP  0  0  0  0  0  0  0  0  0  0  0  0  # atno 4300 bound_to 2456
    2.2178   -8.8385    5.9915 LP  0  0  0  0  0  0  0  0  0  0  0  0  # atno 4301 bound_to 2510
    2.2431   -7.4097    5.2014 LP  0  0  0  0  0  0  0  0  0  0  0  0  # atno 4302 bound_to 2510
   -3.0917  -17.2326   14.8557 LP  0  0  0  0  0  0  0  0  0  0  0  0  # atno 4306 bound_to 3712
   -3.5130  -16.7293   13.3604 LP  0  0  0  0  0  0  0  0  0  0  0  0  # atno 4307 bound_to 3712
    3.0593  -20.9210    8.8167 LP  0  0  0  0  0  0  0  0  0  0  0  0  # atno 4314 bound_to 3832
    1.5927  -20.6494    9.4816 LP  0  0  0  0  0  0  0  0  0  0  0  0  # atno 4315 bound_to 3832
   -5.4083  -21.9981   10.9401 LP  0  0  0  0  0  0  0  0  0  0  0  0  # atno 4318 bound_to 3762
   -4.0190  -22.6496   11.4989 LP  0  0  0  0  0  0  0  0  0  0  0  0  # atno 4319 bound_to 3762
   -5.4454   -5.0993    8.1923 LP  0  0  0  0  0  0  0  0  0  0  0  0  # atno 4320 bound_to 2467
   -3.8394   -4.8602    8.0189 LP  0  0  0  0  0  0  0  0  0  0  0  0  # atno 4321 bound_to 2467

> <Gold.Score>
     Score     S(PLP)   S(hbond)     S(cho)   S(metal)  DE(clash)   DE(tors)     intcor
     29.96     -21.13       3.00       0.00       0.00       0.00       0.09       0.00

> <Gold.PLP.Fitness>
29.9567

> <Gold.PLP.PLP>
-21.1324

> <Gold.PLP.part.hbond>
-2.0000

> <Gold.PLP.part.metal>
0.0000

> <Gold.PLP.part.buried>
-1.3907

> <Gold.PLP.part.nonpolar>
-17.6864

> <Gold.PLP.part.repulsive>
0.0000

> <Gold.PLP.ligand.clash>
0.0000

> <Gold.PLP.ligand.torsion>
0.0889

> <Gold.PLP.Chemscore.Hbond>
3.0000

> <Gold.PLP.Chemscore.CHOScore>
0.0000

> <Gold.PLP.Chemscore.Metal>
0.0000

> <Gold.Chemscore.Hbonds>
donor molecule, donor type, donor heavy atom, donor atom, acceptor molecule, acceptor atom, score
      L1  H     3     4       P1  1227  2.00
      P1  H  2305  2313       L1    10  1.00

> <Gold.PLP.Chemscore.Internal.Correction>
0.0022

