#       Name:                amine_i001
#       Creating user name   fsindt
#       Creation time:       Fri Aug 11 18:07:53 2023


#       File generated by GOLD software.
#

@<TRIPOS>MOLECULE
amine_i001|amine|mol2|1|dock9
    26    26     1
SMALL
NO_CHARGES


@<TRIPOS>ATOM
      1 C1           1.3700 -11.6997   5.6511 C.3            1 <1>                0.0000
      2 C2           1.4077 -12.8377   6.6730 C.3            1 <1>                0.0000
      3 N3           0.2444 -12.7345   7.5642 N.4            1 <1>                0.0000
      4 H4          -0.5404 -12.3547   7.0566 H              1 <1>                0.0000
      5 C5           0.5701 -11.8554   8.7074 C.3            1 <1>                0.0000
      6 C6          -0.1685 -12.4859   9.9142 C.3            1 <1>                0.0000
      7 C7          -0.0098 -14.0012   9.6219 C.3            1 <1>                0.0000
      8 C8          -0.1010 -14.0695   8.0858 C.3            1 <1>                0.0000
      9 C9           0.8862 -15.1091   7.5515 C.3            1 <1>                0.0000
     10 N10          0.4899 -16.4451   8.0164 N.3            1 <1>                0.0000
     11 H11          0.4546 -11.7693   5.0634 H              1 <1>                0.0000
     12 H12          1.3952 -10.7425   6.1721 H              1 <1>                0.0000
     13 H13          2.2331 -11.7763   4.9898 H              1 <1>                0.0000
     14 H14          1.3824 -13.7948   6.1520 H              1 <1>                0.0000
     15 H15          2.3230 -12.7681   7.2608 H              1 <1>                0.0000
     16 H16          1.6456 -11.8450   8.8839 H              1 <1>                0.0000
     17 H17          0.2049 -10.8446   8.5249 H              1 <1>                0.0000
     18 H18          0.3159 -12.2164  10.8527 H              1 <1>                0.0000
     19 H19         -1.2197 -12.1978   9.9225 H              1 <1>                0.0000
     20 H20          0.9603 -14.3604   9.9656 H              1 <1>                0.0000
     21 H21         -0.8178 -14.5694  10.0829 H              1 <1>                0.0000
     22 H22         -1.1161 -14.3303   7.7859 H              1 <1>                0.0000
     23 H23          0.8821 -15.0876   6.4617 H              1 <1>                0.0000
     24 H24          1.8877 -14.8800   7.9156 H              1 <1>                0.0000
     25 H25          0.2106 -17.0291   7.2423 H              1 <1>                0.0000
     26 H26          1.2310 -16.8779   8.5470 H              1 <1>                0.0000
@<TRIPOS>BOND
    1    1    2 1     
    2    1   11 1     
    3    1   12 1     
    4    1   13 1     
    5    2    3 1     
    6    2   14 1     
    7    2   15 1     
    8    3    4 1     
    9    3    8 1     
   10    3    5 1     
   11    5    6 1     
   12    5   16 1     
   13    5   17 1     
   14    6    7 1     
   15    6   18 1     
   16    6   19 1     
   17    7    8 1     
   18    7   20 1     
   19    7   21 1     
   20    8    9 1     
   21    8   22 1     
   22    9   10 1     
   23    9   23 1     
   24    9   24 1     
   25   10   25 1     
   26   10   26 1     
@<TRIPOS>SUBSTRUCTURE
      1 ****           1
@<TRIPOS>SET
DONOR_HYDROGENS      STATIC     ATOMS    <user>   **** ""
3 4 25 26
ATOM$RED        STATIC     ATOMS    COLORGROUP SYSTEM
3 4 25 26
@<TRIPOS>COMMENT
> <Gold.Version>
2022.2.0

> <Gold.Id.Protein>
3pbl|protein|mol2

> <Gold.Protein.RotatedTorsions>
[ 1303 1298 1297 1294 ] final  162.99 input  179.99 | X-H torsion
[ 2461 2456 2455 2452 ] final  -15.16 input   30.03 | X-H torsion
[ 2515 2510 2509 2506 ] final -164.19 input  -89.99 | X-H torsion
[ 3721 3712 3711 3710 ] final   76.88 input -179.91 | X-H torsion
[ 3841 3832 3831 3830 ] final  -10.80 input -179.91 | X-H torsion
[ 3767 3762 3761 3758 ] final   54.10 input  -89.99 | X-H torsion
[ 2472 2467 2466 2463 ] final -143.88 input  -89.97 | X-H torsion

> <Gold.Protein.ActiveResidues>
 VAL82   VAL86   LEU89   PHE106  VAL107  ASP110  VAL111  MET112  CYS114  THR115 
 CYS181  SER182  ILE183  PHE188  VAL189  ILE190  SER192  SER193  SER196  TRP342 
 PHE345  PHE346  HIS349  VAL350  TYR365  THR369  GLY372  TYR373 

> <Gold.Protein.RotatedAtoms>
    4.9089   -9.1152    4.8116 H   0  0  0  0  0  0  0  0  0  0  0  0  # atno 1303 bound_to 1298
    0.8148   -8.0893    7.0527 H   0  0  0  0  0  0  0  0  0  0  0  0  # atno 2461 bound_to 2456
   -4.8860   -5.4634    9.3710 H   0  0  0  0  0  0  0  0  0  0  0  0  # atno 2472 bound_to 2467
    2.4337   -9.1735    5.6514 H   0  0  0  0  0  0  0  0  0  0  0  0  # atno 2515 bound_to 2510
   -2.6922  -17.7596   13.2037 H   0  0  0  0  0  0  0  0  0  0  0  0  # atno 3721 bound_to 3712
   -4.6511  -23.2495   10.1528 H   0  0  0  0  0  0  0  0  0  0  0  0  # atno 3767 bound_to 3762
    1.6548  -20.3605    9.4962 H   0  0  0  0  0  0  0  0  0  0  0  0  # atno 3841 bound_to 3832
    3.7840  -10.2481    4.4689 LP  0  0  0  0  0  0  0  0  0  0  0  0  # atno 4297 bound_to 1298
    3.6690   -8.7581    3.8108 LP  0  0  0  0  0  0  0  0  0  0  0  0  # atno 4298 bound_to 1298
    0.7621   -9.2534    8.1971 LP  0  0  0  0  0  0  0  0  0  0  0  0  # atno 4299 bound_to 2456
    2.1607   -8.4653    7.8981 LP  0  0  0  0  0  0  0  0  0  0  0  0  # atno 4300 bound_to 2456
    2.0819   -7.5793    5.6701 LP  0  0  0  0  0  0  0  0  0  0  0  0  # atno 4301 bound_to 2510
    2.7811   -8.2459    4.3535 LP  0  0  0  0  0  0  0  0  0  0  0  0  # atno 4302 bound_to 2510
   -2.8523  -17.6592   14.7981 LP  0  0  0  0  0  0  0  0  0  0  0  0  # atno 4306 bound_to 3712
   -3.5672  -16.5633   13.8211 LP  0  0  0  0  0  0  0  0  0  0  0  0  # atno 4307 bound_to 3712
    2.3081  -19.6991    8.1878 LP  0  0  0  0  0  0  0  0  0  0  0  0  # atno 4314 bound_to 3832
    3.0097  -20.9868    8.9063 LP  0  0  0  0  0  0  0  0  0  0  0  0  # atno 4315 bound_to 3832
   -5.4310  -22.0196   10.8918 LP  0  0  0  0  0  0  0  0  0  0  0  0  # atno 4318 bound_to 3762
   -4.0453  -22.6062   11.5262 LP  0  0  0  0  0  0  0  0  0  0  0  0  # atno 4319 bound_to 3762
   -5.1808   -4.9470    7.8503 LP  0  0  0  0  0  0  0  0  0  0  0  0  # atno 4320 bound_to 2467
   -3.6501   -4.9832    8.4180 LP  0  0  0  0  0  0  0  0  0  0  0  0  # atno 4321 bound_to 2467

> <Gold.Score>
     Score     S(PLP)   S(hbond)     S(cho)   S(metal)  DE(clash)   DE(tors)     intcor
     32.77     -30.44       1.00       0.00       0.00       0.00       0.33       0.00

> <Gold.PLP.Fitness>
32.7730

> <Gold.PLP.PLP>
-30.4352

> <Gold.PLP.part.hbond>
-1.0000

> <Gold.PLP.part.metal>
0.0000

> <Gold.PLP.part.buried>
-3.9340

> <Gold.PLP.part.nonpolar>
-25.6823

> <Gold.PLP.part.repulsive>
0.0000

> <Gold.PLP.ligand.clash>
0.0000

> <Gold.PLP.ligand.torsion>
0.3320

> <Gold.PLP.Chemscore.Hbond>
1.0000

> <Gold.PLP.Chemscore.CHOScore>
0.0000

> <Gold.PLP.Chemscore.Metal>
0.0000

> <Gold.Chemscore.Hbonds>
donor molecule, donor type, donor heavy atom, donor atom, acceptor molecule, acceptor atom, score
      L1  H    10    26       P1  1227  1.00

> <Gold.PLP.Chemscore.Internal.Correction>
0.0017

