#       Name:                amine_i001
#       Creating user name   fsindt
#       Creation time:       Fri Aug 11 18:07:50 2023


#       File generated by GOLD software.
#

@<TRIPOS>MOLECULE
amine_i001|amine|mol2|1|dock5
    26    26     1
SMALL
NO_CHARGES


@<TRIPOS>ATOM
      1 C1          -0.7586 -18.1099   9.0386 C.3            1 <1>                0.0000
      2 C2          -0.4005 -16.7711   8.3902 C.3            1 <1>                0.0000
      3 N3           0.4943 -16.0196   9.2804 N.4            1 <1>                0.0000
      4 H4           1.3542 -16.5314   9.4095 H              1 <1>                0.0000
      5 C5          -0.1633 -15.8135  10.5883 C.3            1 <1>                0.0000
      6 C6           0.2909 -14.4036  11.0417 C.3            1 <1>                0.0000
      7 C7           0.3104 -13.6328   9.6956 C.3            1 <1>                0.0000
      8 C8           0.7861 -14.6998   8.6916 C.3            1 <1>                0.0000
      9 C9           0.0340 -14.5417   7.3687 C.3            1 <1>                0.0000
     10 N10          0.5000 -13.3293   6.6823 N.3            1 <1>                0.0000
     11 H11          0.1511 -18.6855   9.2097 H              1 <1>                0.0000
     12 H12         -1.2594 -17.9304   9.9900 H              1 <1>                0.0000
     13 H13         -1.4226 -18.6675   8.3781 H              1 <1>                0.0000
     14 H14          0.1002 -16.9507   7.4388 H              1 <1>                0.0000
     15 H15         -1.3102 -16.1955   8.2190 H              1 <1>                0.0000
     16 H16         -1.2471 -15.8456  10.4775 H              1 <1>                0.0000
     17 H17          0.1684 -16.5671  11.3028 H              1 <1>                0.0000
     18 H18         -0.4289 -13.9649  11.7326 H              1 <1>                0.0000
     19 H19          1.2856 -14.4381  11.4863 H              1 <1>                0.0000
     20 H20         -0.6889 -13.2814   9.4383 H              1 <1>                0.0000
     21 H21          1.0135 -12.8009   9.7379 H              1 <1>                0.0000
     22 H22          1.8587 -14.6001   8.5252 H              1 <1>                0.0000
     23 H23          0.2213 -15.4108   6.7382 H              1 <1>                0.0000
     24 H24         -1.0348 -14.4594   7.5658 H              1 <1>                0.0000
     25 H25          0.1987 -12.4991   7.1702 H              1 <1>                0.0000
     26 H26          1.5029 -13.3396   6.5712 H              1 <1>                0.0000
@<TRIPOS>BOND
    1    1    2 1     
    2    1   11 1     
    3    1   12 1     
    4    1   13 1     
    5    2    3 1     
    6    2   14 1     
    7    2   15 1     
    8    3    4 1     
    9    3    8 1     
   10    3    5 1     
   11    5    6 1     
   12    5   16 1     
   13    5   17 1     
   14    6    7 1     
   15    6   18 1     
   16    6   19 1     
   17    7    8 1     
   18    7   20 1     
   19    7   21 1     
   20    8    9 1     
   21    8   22 1     
   22    9   10 1     
   23    9   23 1     
   24    9   24 1     
   25   10   25 1     
   26   10   26 1     
@<TRIPOS>SUBSTRUCTURE
      1 ****           1
@<TRIPOS>SET
DONOR_HYDROGENS      STATIC     ATOMS    <user>   **** ""
3 4 25 26
ATOM$RED        STATIC     ATOMS    COLORGROUP SYSTEM
3 4 25 26
@<TRIPOS>COMMENT
> <Gold.Version>
2022.2.0

> <Gold.Id.Protein>
3pbl|protein|mol2

> <Gold.Protein.RotatedTorsions>
[ 1303 1298 1297 1294 ] final -175.95 input  179.99 | X-H torsion
[ 2461 2456 2455 2452 ] final  137.59 input   30.03 | X-H torsion
[ 2515 2510 2509 2506 ] final   -9.58 input  -89.99 | X-H torsion
[ 3721 3712 3711 3710 ] final -119.47 input -179.91 | X-H torsion
[ 3841 3832 3831 3830 ] final  134.50 input -179.91 | X-H torsion
[ 3767 3762 3761 3758 ] final  -17.79 input  -89.99 | X-H torsion
[ 2472 2467 2466 2463 ] final  120.98 input  -89.97 | X-H torsion

> <Gold.Protein.ActiveResidues>
 VAL82   VAL86   LEU89   PHE106  VAL107  ASP110  VAL111  MET112  CYS114  THR115 
 CYS181  SER182  ILE183  PHE188  VAL189  ILE190  SER192  SER193  SER196  TRP342 
 PHE345  PHE346  HIS349  VAL350  TYR365  THR369  GLY372  TYR373 

> <Gold.Protein.RotatedAtoms>
    4.8323   -8.8233    4.6452 H   0  0  0  0  0  0  0  0  0  0  0  0  # atno 1303 bound_to 1298
    1.9990   -8.8507    8.2267 H   0  0  0  0  0  0  0  0  0  0  0  0  # atno 2461 bound_to 2456
   -5.4243   -5.0811    8.1458 H   0  0  0  0  0  0  0  0  0  0  0  0  # atno 2472 bound_to 2467
    2.6040   -7.7385    4.5143 H   0  0  0  0  0  0  0  0  0  0  0  0  # atno 2515 bound_to 2510
   -3.2147  -16.6603   14.4116 H   0  0  0  0  0  0  0  0  0  0  0  0  # atno 3721 bound_to 3712
   -5.4514  -22.4970   10.2898 H   0  0  0  0  0  0  0  0  0  0  0  0  # atno 3767 bound_to 3762
    3.1283  -20.5813    8.7815 H   0  0  0  0  0  0  0  0  0  0  0  0  # atno 3841 bound_to 3832
    4.0639  -10.2639    4.6695 LP  0  0  0  0  0  0  0  0  0  0  0  0  # atno 4297 bound_to 1298
    3.4657   -9.0343    3.7768 LP  0  0  0  0  0  0  0  0  0  0  0  0  # atno 4298 bound_to 1298
    1.3203   -7.9250    7.0649 LP  0  0  0  0  0  0  0  0  0  0  0  0  # atno 4299 bound_to 2456
    0.4187   -9.0326    7.8567 LP  0  0  0  0  0  0  0  0  0  0  0  0  # atno 4300 bound_to 2456
    2.6627   -9.2437    5.1442 LP  0  0  0  0  0  0  0  0  0  0  0  0  # atno 4301 bound_to 2510
    2.0299   -8.0172    6.0171 LP  0  0  0  0  0  0  0  0  0  0  0  0  # atno 4302 bound_to 2510
   -3.1948  -17.3467   12.9603 LP  0  0  0  0  0  0  0  0  0  0  0  0  # atno 4306 bound_to 3712
   -2.6215  -18.1450   14.2644 LP  0  0  0  0  0  0  0  0  0  0  0  0  # atno 4307 bound_to 3712
    1.7244  -20.7941    9.5297 LP  0  0  0  0  0  0  0  0  0  0  0  0  # atno 4314 bound_to 3832
    1.8912  -19.6366    8.3900 LP  0  0  0  0  0  0  0  0  0  0  0  0  # atno 4315 bound_to 3832
   -4.6011  -22.0836   11.6212 LP  0  0  0  0  0  0  0  0  0  0  0  0  # atno 4318 bound_to 3762
   -4.0752  -23.2944   10.6599 LP  0  0  0  0  0  0  0  0  0  0  0  0  # atno 4319 bound_to 3762
   -3.8071   -4.8717    8.0606 LP  0  0  0  0  0  0  0  0  0  0  0  0  # atno 4320 bound_to 2467
   -4.4856   -5.4408    9.4326 LP  0  0  0  0  0  0  0  0  0  0  0  0  # atno 4321 bound_to 2467

> <Gold.Score>
     Score     S(PLP)   S(hbond)     S(cho)   S(metal)  DE(clash)   DE(tors)     intcor
     32.19     -26.30       2.00       0.00       0.00       0.00       0.06       0.00

> <Gold.PLP.Fitness>
32.1872

> <Gold.PLP.PLP>
-26.2999

> <Gold.PLP.part.hbond>
-1.0000

> <Gold.PLP.part.metal>
0.0000

> <Gold.PLP.part.buried>
-3.2549

> <Gold.PLP.part.nonpolar>
-22.6856

> <Gold.PLP.part.repulsive>
0.0000

> <Gold.PLP.ligand.clash>
0.0000

> <Gold.PLP.ligand.torsion>
0.0574

> <Gold.PLP.Chemscore.Hbond>
2.0000

> <Gold.PLP.Chemscore.CHOScore>
0.0000

> <Gold.PLP.Chemscore.Metal>
0.0000

> <Gold.Chemscore.Hbonds>
donor molecule, donor type, donor heavy atom, donor atom, acceptor molecule, acceptor atom, score
      L1  H     3     4       P1  1227  2.00

> <Gold.PLP.Chemscore.Internal.Correction>
0.0022

