#       Name:                amine_i001
#       Creating user name   fsindt
#       Creation time:       Fri Aug 11 18:07:59 2023


#       File generated by GOLD software.
#

@<TRIPOS>MOLECULE
amine_i001|amine|mol2|1|dock18
    26    26     1
SMALL
NO_CHARGES


@<TRIPOS>ATOM
      1 C1          -0.6870 -14.1001  11.7551 C.3            1 <1>                0.0000
      2 C2          -0.4038 -13.2701  10.5013 C.3            1 <1>                0.0000
      3 N3          -0.7001 -11.8570  10.7722 N.4            1 <1>                0.0000
      4 H4          -0.1895 -11.5525  11.5873 H              1 <1>                0.0000
      5 C5          -2.1508 -11.6882  11.0020 C.3            1 <1>                0.0000
      6 C6          -2.4943 -10.3161  10.3704 C.3            1 <1>                0.0000
      7 C7          -1.5790 -10.3098   9.1178 C.3            1 <1>                0.0000
      8 C8          -0.3134 -11.0373   9.6094 C.3            1 <1>                0.0000
      9 C9           0.2355 -11.9348   8.4986 C.3            1 <1>                0.0000
     10 N10          0.7387 -11.1009   7.3988 N.3            1 <1>                0.0000
     11 H11         -0.0593 -13.7476  12.5736 H              1 <1>                0.0000
     12 H12         -1.7363 -13.9953  12.0309 H              1 <1>                0.0000
     13 H13         -0.4671 -15.1486  11.5541 H              1 <1>                0.0000
     14 H14          0.6455 -13.3749  10.2256 H              1 <1>                0.0000
     15 H15         -1.0315 -13.6226   9.6828 H              1 <1>                0.0000
     16 H16         -2.7085 -12.4837  10.5080 H              1 <1>                0.0000
     17 H17         -2.3672 -11.6789  12.0704 H              1 <1>                0.0000
     18 H18         -3.5455 -10.2693  10.0862 H              1 <1>                0.0000
     19 H19         -2.2374  -9.5000  11.0458 H              1 <1>                0.0000
     20 H20         -2.0436 -10.8582   8.2983 H              1 <1>                0.0000
     21 H21         -1.3455  -9.2887   8.8162 H              1 <1>                0.0000
     22 H22          0.4408 -10.3088   9.9073 H              1 <1>                0.0000
     23 H23          1.0481 -12.5451   8.8928 H              1 <1>                0.0000
     24 H24         -0.5591 -12.5828   8.1289 H              1 <1>                0.0000
     25 H25          0.2195 -11.2699   6.5502 H              1 <1>                0.0000
     26 H26          0.7172 -10.1232   7.6473 H              1 <1>                0.0000
@<TRIPOS>BOND
    1    1    2 1     
    2    1   11 1     
    3    1   12 1     
    4    1   13 1     
    5    2    3 1     
    6    2   14 1     
    7    2   15 1     
    8    3    4 1     
    9    3    8 1     
   10    3    5 1     
   11    5    6 1     
   12    5   16 1     
   13    5   17 1     
   14    6    7 1     
   15    6   18 1     
   16    6   19 1     
   17    7    8 1     
   18    7   20 1     
   19    7   21 1     
   20    8    9 1     
   21    8   22 1     
   22    9   10 1     
   23    9   23 1     
   24    9   24 1     
   25   10   25 1     
   26   10   26 1     
@<TRIPOS>SUBSTRUCTURE
      1 ****           1
@<TRIPOS>SET
DONOR_HYDROGENS      STATIC     ATOMS    <user>   **** ""
3 4 25 26
ATOM$RED        STATIC     ATOMS    COLORGROUP SYSTEM
3 4 25 26
@<TRIPOS>COMMENT
> <Gold.Version>
2022.2.0

> <Gold.Id.Protein>
3pbl|protein|mol2

> <Gold.Protein.RotatedTorsions>
[ 1303 1298 1297 1294 ] final  -15.68 input  179.99 | X-H torsion
[ 2461 2456 2455 2452 ] final   69.53 input   30.03 | X-H torsion
[ 2515 2510 2509 2506 ] final  -78.41 input  -89.99 | X-H torsion
[ 3721 3712 3711 3710 ] final  153.52 input -179.91 | X-H torsion
[ 3841 3832 3831 3830 ] final  -81.51 input -179.91 | X-H torsion
[ 3767 3762 3761 3758 ] final -159.04 input  -89.99 | X-H torsion
[ 2472 2467 2466 2463 ] final   55.11 input  -89.97 | X-H torsion

> <Gold.Protein.ActiveResidues>
 VAL82   VAL86   LEU89   PHE106  VAL107  ASP110  VAL111  MET112  CYS114  THR115 
 CYS181  SER182  ILE183  PHE188  VAL189  ILE190  SER192  SER193  SER196  TRP342 
 PHE345  PHE346  HIS349  VAL350  TYR365  THR369  GLY372  TYR373 

> <Gold.Protein.RotatedAtoms>
    3.3340   -9.6521    3.9256 H   0  0  0  0  0  0  0  0  0  0  0  0  # atno 1303 bound_to 1298
    2.0102   -8.1020    7.4827 H   0  0  0  0  0  0  0  0  0  0  0  0  # atno 2461 bound_to 2456
   -4.5631   -4.8111    7.6596 H   0  0  0  0  0  0  0  0  0  0  0  0  # atno 2472 bound_to 2467
    2.8349   -8.7785    4.4987 H   0  0  0  0  0  0  0  0  0  0  0  0  # atno 2515 bound_to 2510
   -3.2243  -16.8268   13.2307 H   0  0  0  0  0  0  0  0  0  0  0  0  # atno 3721 bound_to 3712
   -4.3198  -22.2867   11.6464 H   0  0  0  0  0  0  0  0  0  0  0  0  # atno 3767 bound_to 3762
    1.7674  -19.6545    8.7944 H   0  0  0  0  0  0  0  0  0  0  0  0  # atno 3841 bound_to 3832
    4.4409   -8.4949    4.2451 LP  0  0  0  0  0  0  0  0  0  0  0  0  # atno 4297 bound_to 1298
    4.5876   -9.9742    4.9211 LP  0  0  0  0  0  0  0  0  0  0  0  0  # atno 4298 bound_to 1298
    0.4275   -8.4470    7.2747 LP  0  0  0  0  0  0  0  0  0  0  0  0  # atno 4299 bound_to 2456
    1.3003   -9.2591    8.3907 LP  0  0  0  0  0  0  0  0  0  0  0  0  # atno 4300 bound_to 2456
    2.2063   -8.8119    6.0052 LP  0  0  0  0  0  0  0  0  0  0  0  0  # atno 4301 bound_to 2510
    2.2553   -7.4085    5.1717 LP  0  0  0  0  0  0  0  0  0  0  0  0  # atno 4302 bound_to 2510
   -2.6255  -18.2142   13.7732 LP  0  0  0  0  0  0  0  0  0  0  0  0  # atno 4306 bound_to 3712
   -3.1797  -17.0852   14.8147 LP  0  0  0  0  0  0  0  0  0  0  0  0  # atno 4307 bound_to 3712
    3.0944  -20.4560    8.3786 LP  0  0  0  0  0  0  0  0  0  0  0  0  # atno 4314 bound_to 3832
    2.0933  -21.0454    9.5262 LP  0  0  0  0  0  0  0  0  0  0  0  0  # atno 4315 bound_to 3832
   -4.2962  -23.3354   10.3949 LP  0  0  0  0  0  0  0  0  0  0  0  0  # atno 4318 bound_to 3762
   -5.5112  -22.2528   10.5301 LP  0  0  0  0  0  0  0  0  0  0  0  0  # atno 4319 bound_to 3762
   -3.7648   -5.2148    9.0257 LP  0  0  0  0  0  0  0  0  0  0  0  0  # atno 4320 bound_to 2467
   -5.3890   -5.3675    8.9536 LP  0  0  0  0  0  0  0  0  0  0  0  0  # atno 4321 bound_to 2467

> <Gold.Score>
     Score     S(PLP)   S(hbond)     S(cho)   S(metal)  DE(clash)   DE(tors)     intcor
     32.93     -30.00       1.00       0.00       0.00       0.00       0.04       0.00

> <Gold.PLP.Fitness>
32.9300

> <Gold.PLP.PLP>
-30.0033

> <Gold.PLP.part.hbond>
-1.0000

> <Gold.PLP.part.metal>
0.0000

> <Gold.PLP.part.buried>
-3.6152

> <Gold.PLP.part.nonpolar>
-25.4561

> <Gold.PLP.part.repulsive>
0.0290

> <Gold.PLP.ligand.clash>
0.0000

> <Gold.PLP.ligand.torsion>
0.0375

> <Gold.PLP.Chemscore.Hbond>
1.0000

> <Gold.PLP.Chemscore.CHOScore>
0.0000

> <Gold.PLP.Chemscore.Metal>
0.0000

> <Gold.Chemscore.Hbonds>
donor molecule, donor type, donor heavy atom, donor atom, acceptor molecule, acceptor atom, score
      L1  H    10    26       P1  2456  1.00

> <Gold.PLP.Chemscore.Internal.Correction>
0.0017

