#       Name:                amine_i001
#       Creating user name   fsindt
#       Creation time:       Fri Aug 11 18:07:56 2023


#       File generated by GOLD software.
#

@<TRIPOS>MOLECULE
amine_i001|amine|mol2|1|dock14
    26    26     1
SMALL
NO_CHARGES


@<TRIPOS>ATOM
      1 C1          -1.4202 -11.3852  11.4556 C.3            1 <1>                0.0000
      2 C2          -0.8828 -12.6262  10.7400 C.3            1 <1>                0.0000
      3 N3           0.2023 -12.2355   9.8302 N.4            1 <1>                0.0000
      4 H4           0.8772 -11.6736  10.3269 H              1 <1>                0.0000
      5 C5          -0.3518 -11.4626   8.6982 C.3            1 <1>                0.0000
      6 C6           0.4986 -11.8875   7.4751 C.3            1 <1>                0.0000
      7 C7           0.7264 -13.3953   7.7605 C.3            1 <1>                0.0000
      8 C8           0.8591 -13.4418   9.2944 C.3            1 <1>                0.0000
      9 C9           0.1707 -14.6951   9.8386 C.3            1 <1>                0.0000
     10 N10          0.5979 -15.8655   9.0604 N.3            1 <1>                0.0000
     11 H11         -0.6173 -10.9189  12.0267 H              1 <1>                0.0000
     12 H12         -1.8007 -10.6773  10.7192 H              1 <1>                0.0000
     13 H13         -2.2253 -11.6751  12.1308 H              1 <1>                0.0000
     14 H14         -0.5023 -13.3340  11.4765 H              1 <1>                0.0000
     15 H15         -1.6857 -13.0925  10.1690 H              1 <1>                0.0000
     16 H16         -1.3992 -11.7194   8.5398 H              1 <1>                0.0000
     17 H17         -0.2459 -10.3931   8.8808 H              1 <1>                0.0000
     18 H18         -0.0542 -11.7450   6.5467 H              1 <1>                0.0000
     19 H19          1.4451 -11.3473   7.4510 H              1 <1>                0.0000
     20 H20         -0.1300 -13.9836   7.4309 H              1 <1>                0.0000
     21 H21          1.6418 -13.7441   7.2825 H              1 <1>                0.0000
     22 H22          1.9123 -13.4429   9.5756 H              1 <1>                0.0000
     23 H23          0.4441 -14.8347  10.8845 H              1 <1>                0.0000
     24 H24         -0.9102 -14.5800   9.7580 H              1 <1>                0.0000
     25 H25          0.9440 -15.5900   8.1535 H              1 <1>                0.0000
     26 H26          1.2887 -16.4018   9.5636 H              1 <1>                0.0000
@<TRIPOS>BOND
    1    1    2 1     
    2    1   11 1     
    3    1   12 1     
    4    1   13 1     
    5    2    3 1     
    6    2   14 1     
    7    2   15 1     
    8    3    4 1     
    9    3    8 1     
   10    3    5 1     
   11    5    6 1     
   12    5   16 1     
   13    5   17 1     
   14    6    7 1     
   15    6   18 1     
   16    6   19 1     
   17    7    8 1     
   18    7   20 1     
   19    7   21 1     
   20    8    9 1     
   21    8   22 1     
   22    9   10 1     
   23    9   23 1     
   24    9   24 1     
   25   10   25 1     
   26   10   26 1     
@<TRIPOS>SUBSTRUCTURE
      1 ****           1
@<TRIPOS>SET
DONOR_HYDROGENS      STATIC     ATOMS    <user>   **** ""
3 4 25 26
ATOM$RED        STATIC     ATOMS    COLORGROUP SYSTEM
3 4 25 26
@<TRIPOS>COMMENT
> <Gold.Version>
2022.2.0

> <Gold.Id.Protein>
3pbl|protein|mol2

> <Gold.Protein.RotatedTorsions>
[ 1303 1298 1297 1294 ] final -101.51 input  179.99 | X-H torsion
[ 2461 2456 2455 2452 ] final   20.12 input   30.03 | X-H torsion
[ 2515 2510 2509 2506 ] final  141.87 input  -89.99 | X-H torsion
[ 3721 3712 3711 3710 ] final -111.06 input -179.91 | X-H torsion
[ 3841 3832 3831 3830 ] final   75.86 input -179.91 | X-H torsion
[ 3767 3762 3761 3758 ] final -122.37 input  -89.99 | X-H torsion
[ 2472 2467 2466 2463 ] final -135.02 input  -89.97 | X-H torsion

> <Gold.Protein.ActiveResidues>
 VAL82   VAL86   LEU89   PHE106  VAL107  ASP110  VAL111  MET112  CYS114  THR115 
 CYS181  SER182  ILE183  PHE188  VAL189  ILE190  SER192  SER193  SER196  TRP342 
 PHE345  PHE346  HIS349  VAL350  TYR365  THR369  GLY372  TYR373 

> <Gold.Protein.RotatedAtoms>
    3.9788   -8.5423    3.9430 H   0  0  0  0  0  0  0  0  0  0  0  0  # atno 1303 bound_to 1298
    1.3604   -7.9208    7.0748 H   0  0  0  0  0  0  0  0  0  0  0  0  # atno 2461 bound_to 2456
   -4.7462   -5.4627    9.4117 H   0  0  0  0  0  0  0  0  0  0  0  0  # atno 2472 bound_to 2467
    2.1070   -8.5169    6.0903 H   0  0  0  0  0  0  0  0  0  0  0  0  # atno 2515 bound_to 2510
   -3.1669  -16.7289   14.5072 H   0  0  0  0  0  0  0  0  0  0  0  0  # atno 3721 bound_to 3712
   -4.8158  -21.9802   11.5368 H   0  0  0  0  0  0  0  0  0  0  0  0  # atno 3767 bound_to 3762
    2.6782  -20.9552    9.3950 H   0  0  0  0  0  0  0  0  0  0  0  0  # atno 3841 bound_to 3832
    4.8659   -9.4953    4.9286 LP  0  0  0  0  0  0  0  0  0  0  0  0  # atno 4297 bound_to 1298
    3.5175  -10.0840    4.2201 LP  0  0  0  0  0  0  0  0  0  0  0  0  # atno 4298 bound_to 1298
    0.4023   -9.0086    7.8270 LP  0  0  0  0  0  0  0  0  0  0  0  0  # atno 4299 bound_to 2456
    1.9752   -8.8786    8.2461 LP  0  0  0  0  0  0  0  0  0  0  0  0  # atno 4300 bound_to 2456
    2.3882   -7.4563    4.8813 LP  0  0  0  0  0  0  0  0  0  0  0  0  # atno 4301 bound_to 2510
    2.8017   -9.0259    4.7033 LP  0  0  0  0  0  0  0  0  0  0  0  0  # atno 4302 bound_to 2510
   -3.2621  -17.2257   12.9834 LP  0  0  0  0  0  0  0  0  0  0  0  0  # atno 4306 bound_to 3712
   -2.6094  -18.1868   14.1309 LP  0  0  0  0  0  0  0  0  0  0  0  0  # atno 4307 bound_to 3712
    1.3953  -20.0486    9.0659 LP  0  0  0  0  0  0  0  0  0  0  0  0  # atno 4314 bound_to 3832
    2.7403  -19.9503    8.1451 LP  0  0  0  0  0  0  0  0  0  0  0  0  # atno 4315 bound_to 3832
   -3.9674  -23.2067   10.8714 LP  0  0  0  0  0  0  0  0  0  0  0  0  # atno 4318 bound_to 3762
   -5.3443  -22.6879   10.1632 LP  0  0  0  0  0  0  0  0  0  0  0  0  # atno 4319 bound_to 3762
   -5.2835   -4.9918    7.9434 LP  0  0  0  0  0  0  0  0  0  0  0  0  # atno 4320 bound_to 2467
   -3.6873   -4.9391    8.2843 LP  0  0  0  0  0  0  0  0  0  0  0  0  # atno 4321 bound_to 2467

> <Gold.Score>
     Score     S(PLP)   S(hbond)     S(cho)   S(metal)  DE(clash)   DE(tors)     intcor
     32.44     -29.68       1.00       0.00       0.00       0.00       0.12       0.00

> <Gold.PLP.Fitness>
32.4352

> <Gold.PLP.PLP>
-29.6830

> <Gold.PLP.part.hbond>
-1.0000

> <Gold.PLP.part.metal>
0.0000

> <Gold.PLP.part.buried>
-2.9310

> <Gold.PLP.part.nonpolar>
-25.8590

> <Gold.PLP.part.repulsive>
0.0000

> <Gold.PLP.ligand.clash>
0.0000

> <Gold.PLP.ligand.torsion>
0.1247

> <Gold.PLP.Chemscore.Hbond>
1.0000

> <Gold.PLP.Chemscore.CHOScore>
0.0000

> <Gold.PLP.Chemscore.Metal>
0.0000

> <Gold.Chemscore.Hbonds>
donor molecule, donor type, donor heavy atom, donor atom, acceptor molecule, acceptor atom, score
      L1  H    10    26       P1  1227  1.00

> <Gold.PLP.Chemscore.Internal.Correction>
0.0017

