#       Name:                amine_i001
#       Creating user name   fsindt
#       Creation time:       Fri Aug 11 18:07:49 2023


#       File generated by GOLD software.
#

@<TRIPOS>MOLECULE
amine_i001|amine|mol2|1|dock2
    26    26     1
SMALL
NO_CHARGES


@<TRIPOS>ATOM
      1 C1           0.5465 -12.3049   7.7501 C.3            1 <1>                0.0000
      2 C2          -0.7205 -11.8914   8.5016 C.3            1 <1>                0.0000
      3 N3          -0.5001 -10.5951   9.1568 N.4            1 <1>                0.0000
      4 H4          -0.1451  -9.9306   8.4857 H              1 <1>                0.0000
      5 C5           0.4705 -10.7543  10.2606 C.3            1 <1>                0.0000
      6 C6          -0.0232  -9.7859  11.3643 C.3            1 <1>                0.0000
      7 C7          -1.5631  -9.9233  11.2357 C.3            1 <1>                0.0000
      8 C8          -1.7702 -10.1015   9.7198 C.3            1 <1>                0.0000
      9 C9          -2.8841 -11.1182   9.4626 C.3            1 <1>                0.0000
     10 N10         -4.1631 -10.5741   9.9382 N.3            1 <1>                0.0000
     11 H11          0.7842 -11.5531   6.9975 H              1 <1>                0.0000
     12 H12          1.3749 -12.3895   8.4535 H              1 <1>                0.0000
     13 H13          0.3830 -13.2667   7.2640 H              1 <1>                0.0000
     14 H14         -1.5488 -11.8068   7.7982 H              1 <1>                0.0000
     15 H15         -0.9582 -12.6431   9.2542 H              1 <1>                0.0000
     16 H16          0.4644 -11.7811  10.6263 H              1 <1>                0.0000
     17 H17          1.4707 -10.4744   9.9298 H              1 <1>                0.0000
     18 H18          0.3169 -10.1091  12.3480 H              1 <1>                0.0000
     19 H19          0.2962  -8.7642  11.1586 H              1 <1>                0.0000
     20 H20         -1.9184 -10.7997  11.7777 H              1 <1>                0.0000
     21 H21         -2.0615  -9.0211  11.5906 H              1 <1>                0.0000
     22 H22         -2.0266  -9.1443   9.2655 H              1 <1>                0.0000
     23 H23         -2.9508 -11.3216   8.3938 H              1 <1>                0.0000
     24 H24         -2.6622 -12.0429   9.9952 H              1 <1>                0.0000
     25 H25         -4.5003 -11.0894  10.7375 H              1 <1>                0.0000
     26 H26         -4.0815  -9.5910  10.1498 H              1 <1>                0.0000
@<TRIPOS>BOND
    1    1    2 1     
    2    1   11 1     
    3    1   12 1     
    4    1   13 1     
    5    2    3 1     
    6    2   14 1     
    7    2   15 1     
    8    3    4 1     
    9    3    8 1     
   10    3    5 1     
   11    5    6 1     
   12    5   16 1     
   13    5   17 1     
   14    6    7 1     
   15    6   18 1     
   16    6   19 1     
   17    7    8 1     
   18    7   20 1     
   19    7   21 1     
   20    8    9 1     
   21    8   22 1     
   22    9   10 1     
   23    9   23 1     
   24    9   24 1     
   25   10   25 1     
   26   10   26 1     
@<TRIPOS>SUBSTRUCTURE
      1 ****           1
@<TRIPOS>SET
DONOR_HYDROGENS      STATIC     ATOMS    <user>   **** ""
3 4 25 26
ATOM$RED        STATIC     ATOMS    COLORGROUP SYSTEM
3 4 25 26
@<TRIPOS>COMMENT
> <Gold.Version>
2022.2.0

> <Gold.Id.Protein>
3pbl|protein|mol2

> <Gold.Protein.RotatedTorsions>
[ 1303 1298 1297 1294 ] final   96.85 input  179.99 | X-H torsion
[ 2461 2456 2455 2452 ] final   67.43 input   30.03 | X-H torsion
[ 2515 2510 2509 2506 ] final  105.74 input  -89.99 | X-H torsion
[ 3721 3712 3711 3710 ] final   40.35 input -179.91 | X-H torsion
[ 3841 3832 3831 3830 ] final  155.99 input -179.91 | X-H torsion
[ 3767 3762 3761 3758 ] final  -84.94 input  -89.99 | X-H torsion
[ 2472 2467 2466 2463 ] final -137.97 input  -89.97 | X-H torsion

> <Gold.Protein.ActiveResidues>
 VAL82   VAL86   LEU89   PHE106  VAL107  ASP110  VAL111  MET112  CYS114  THR115 
 CYS181  SER182  ILE183  PHE188  VAL189  ILE190  SER192  SER193  SER196  TRP342 
 PHE345  PHE346  HIS349  VAL350  TYR365  THR369  GLY372  TYR373 

> <Gold.Protein.RotatedAtoms>
    4.5002  -10.0557    4.8926 H   0  0  0  0  0  0  0  0  0  0  0  0  # atno 1303 bound_to 1298
    1.9913   -8.0851    7.4592 H   0  0  0  0  0  0  0  0  0  0  0  0  # atno 2461 bound_to 2456
   -4.7934   -5.4638    9.4004 H   0  0  0  0  0  0  0  0  0  0  0  0  # atno 2472 bound_to 2467
    2.0288   -7.9473    5.9845 H   0  0  0  0  0  0  0  0  0  0  0  0  # atno 2515 bound_to 2510
   -2.5082  -18.0118   13.6478 H   0  0  0  0  0  0  0  0  0  0  0  0  # atno 3721 bound_to 3712
   -5.2770  -21.9308   11.1482 H   0  0  0  0  0  0  0  0  0  0  0  0  # atno 3767 bound_to 3762
    3.1064  -20.3348    8.5743 H   0  0  0  0  0  0  0  0  0  0  0  0  # atno 3841 bound_to 3832
    3.3297   -9.5389    3.8780 LP  0  0  0  0  0  0  0  0  0  0  0  0  # atno 4297 bound_to 1298
    4.5321   -8.5265    4.3208 LP  0  0  0  0  0  0  0  0  0  0  0  0  # atno 4298 bound_to 1298
    0.4130   -8.4715    7.2942 LP  0  0  0  0  0  0  0  0  0  0  0  0  # atno 4299 bound_to 2456
    1.3337   -9.2513    8.3946 LP  0  0  0  0  0  0  0  0  0  0  0  0  # atno 4300 bound_to 2456
    2.6333   -7.7982    4.4751 LP  0  0  0  0  0  0  0  0  0  0  0  0  # atno 4301 bound_to 2510
    2.6348   -9.2538    5.2153 LP  0  0  0  0  0  0  0  0  0  0  0  0  # atno 4302 bound_to 2510
   -3.1478  -17.1381   14.8334 LP  0  0  0  0  0  0  0  0  0  0  0  0  # atno 4306 bound_to 3712
   -3.4842  -16.7932   13.2731 LP  0  0  0  0  0  0  0  0  0  0  0  0  # atno 4307 bound_to 3712
    2.0127  -21.0044    9.5394 LP  0  0  0  0  0  0  0  0  0  0  0  0  # atno 4314 bound_to 3832
    1.6282  -19.7111    8.6196 LP  0  0  0  0  0  0  0  0  0  0  0  0  # atno 4315 bound_to 3832
   -3.9348  -22.8388   11.3505 LP  0  0  0  0  0  0  0  0  0  0  0  0  # atno 4318 bound_to 3762
   -4.9157  -23.1051   10.0724 LP  0  0  0  0  0  0  0  0  0  0  0  0  # atno 4319 bound_to 3762
   -5.2510   -4.9765    7.9106 LP  0  0  0  0  0  0  0  0  0  0  0  0  # atno 4320 bound_to 2467
   -3.6725   -4.9533    8.3283 LP  0  0  0  0  0  0  0  0  0  0  0  0  # atno 4321 bound_to 2467

> <Gold.Score>
     Score     S(PLP)   S(hbond)     S(cho)   S(metal)  DE(clash)   DE(tors)     intcor
     35.99     -33.12       0.99       0.00       0.00       0.00       0.05       0.00

> <Gold.PLP.Fitness>
35.9919

> <Gold.PLP.PLP>
-33.1164

> <Gold.PLP.part.hbond>
-1.0000

> <Gold.PLP.part.metal>
0.0000

> <Gold.PLP.part.buried>
-4.5467

> <Gold.PLP.part.nonpolar>
-29.7807

> <Gold.PLP.part.repulsive>
0.0295

> <Gold.PLP.ligand.clash>
0.0000

> <Gold.PLP.ligand.torsion>
0.0502

> <Gold.PLP.Chemscore.Hbond>
0.9913

> <Gold.PLP.Chemscore.CHOScore>
0.0000

> <Gold.PLP.Chemscore.Metal>
0.0000

> <Gold.Chemscore.Hbonds>
donor molecule, donor type, donor heavy atom, donor atom, acceptor molecule, acceptor atom, score
      L1  H     3     4       P1  2456  0.99

> <Gold.PLP.Chemscore.Internal.Correction>
0.0022

