#       Name:                amine_i001
#       Creating user name   fsindt
#       Creation time:       Fri Aug 11 18:07:49 2023


#       File generated by GOLD software.
#

@<TRIPOS>MOLECULE
amine_i001|amine|mol2|1|dock3
    26    26     1
SMALL
NO_CHARGES


@<TRIPOS>ATOM
      1 C1           1.3570 -11.7826   5.9955 C.3            1 <1>                0.0000
      2 C2           1.3840 -12.6730   7.2394 C.3            1 <1>                0.0000
      3 N3           0.0352 -12.7492   7.8165 N.4            1 <1>                0.0000
      4 H4          -0.6294 -12.9921   7.0973 H              1 <1>                0.0000
      5 C5          -0.3271 -11.4437   8.4083 C.3            1 <1>                0.0000
      6 C6          -1.1534 -11.7970   9.6700 C.3            1 <1>                0.0000
      7 C7          -0.4163 -13.0619  10.1833 C.3            1 <1>                0.0000
      8 C8           0.0082 -13.7680   8.8818 C.3            1 <1>                0.0000
      9 C9           1.3997 -14.3808   9.0522 C.3            1 <1>                0.0000
     10 N10          1.3926 -15.3014  10.1969 N.3            1 <1>                0.0000
     11 H11          0.6709 -12.2049   5.2612 H              1 <1>                0.0000
     12 H12          1.0231 -10.7825   6.2717 H              1 <1>                0.0000
     13 H13          2.3578 -11.7261   5.5673 H              1 <1>                0.0000
     14 H14          1.7180 -13.6732   6.9631 H              1 <1>                0.0000
     15 H15          2.0701 -12.2508   7.9737 H              1 <1>                0.0000
     16 H16          0.5703 -10.8903   8.6850 H              1 <1>                0.0000
     17 H17         -0.9306 -10.8645   7.7093 H              1 <1>                0.0000
     18 H18         -1.1074 -10.9931  10.4046 H              1 <1>                0.0000
     19 H19         -2.1865 -12.0261   9.4086 H              1 <1>                0.0000
     20 H20          0.4576 -12.7858  10.7734 H              1 <1>                0.0000
     21 H21         -1.0907 -13.6923  10.7630 H              1 <1>                0.0000
     22 H22         -0.7133 -14.5452   8.6294 H              1 <1>                0.0000
     23 H23          1.6693 -14.9271   8.1483 H              1 <1>                0.0000
     24 H24          2.1268 -13.5881   9.2280 H              1 <1>                0.0000
     25 H25          0.4773 -15.3461  10.6193 H              1 <1>                0.0000
     26 H26          1.7105 -16.2195   9.9246 H              1 <1>                0.0000
@<TRIPOS>BOND
    1    1    2 1     
    2    1   11 1     
    3    1   12 1     
    4    1   13 1     
    5    2    3 1     
    6    2   14 1     
    7    2   15 1     
    8    3    4 1     
    9    3    8 1     
   10    3    5 1     
   11    5    6 1     
   12    5   16 1     
   13    5   17 1     
   14    6    7 1     
   15    6   18 1     
   16    6   19 1     
   17    7    8 1     
   18    7   20 1     
   19    7   21 1     
   20    8    9 1     
   21    8   22 1     
   22    9   10 1     
   23    9   23 1     
   24    9   24 1     
   25   10   25 1     
   26   10   26 1     
@<TRIPOS>SUBSTRUCTURE
      1 ****           1
@<TRIPOS>SET
DONOR_HYDROGENS      STATIC     ATOMS    <user>   **** ""
3 4 25 26
ATOM$RED        STATIC     ATOMS    COLORGROUP SYSTEM
3 4 25 26
@<TRIPOS>COMMENT
> <Gold.Version>
2022.2.0

> <Gold.Id.Protein>
3pbl|protein|mol2

> <Gold.Protein.RotatedTorsions>
[ 1303 1298 1297 1294 ] final  -65.71 input  179.99 | X-H torsion
[ 2461 2456 2455 2452 ] final   25.64 input   30.03 | X-H torsion
[ 2515 2510 2509 2506 ] final  137.21 input  -89.99 | X-H torsion
[ 3721 3712 3711 3710 ] final -118.65 input -179.91 | X-H torsion
[ 3841 3832 3831 3830 ] final   -5.56 input -179.91 | X-H torsion
[ 3767 3762 3761 3758 ] final -117.00 input  -89.99 | X-H torsion
[ 2472 2467 2466 2463 ] final  104.94 input  -89.97 | X-H torsion

> <Gold.Protein.ActiveResidues>
 VAL82   VAL86   LEU89   PHE106  VAL107  ASP110  VAL111  MET112  CYS114  THR115 
 CYS181  SER182  ILE183  PHE188  VAL189  ILE190  SER192  SER193  SER196  TRP342 
 PHE345  PHE346  HIS349  VAL350  TYR365  THR369  GLY372  TYR373 

> <Gold.Protein.RotatedAtoms>
    3.5503   -8.8982    3.7834 H   0  0  0  0  0  0  0  0  0  0  0  0  # atno 1303 bound_to 1298
    1.4472   -7.9167    7.1010 H   0  0  0  0  0  0  0  0  0  0  0  0  # atno 2461 bound_to 2456
   -5.2829   -4.9923    7.9425 H   0  0  0  0  0  0  0  0  0  0  0  0  # atno 2472 bound_to 2467
    2.0886   -8.4426    6.0958 H   0  0  0  0  0  0  0  0  0  0  0  0  # atno 2515 bound_to 2510
   -3.2103  -16.6664   14.4215 H   0  0  0  0  0  0  0  0  0  0  0  0  # atno 3721 bound_to 3712
   -4.8898  -21.9550   11.4955 H   0  0  0  0  0  0  0  0  0  0  0  0  # atno 3767 bound_to 3762
    1.6917  -20.4224    9.5288 H   0  0  0  0  0  0  0  0  0  0  0  0  # atno 3841 bound_to 3832
    4.8810   -8.9517    4.7282 LP  0  0  0  0  0  0  0  0  0  0  0  0  # atno 4297 bound_to 1298
    3.9311  -10.2716    4.5803 LP  0  0  0  0  0  0  0  0  0  0  0  0  # atno 4298 bound_to 1298
    0.3720   -8.9536    7.7615 LP  0  0  0  0  0  0  0  0  0  0  0  0  # atno 4299 bound_to 2456
    1.9186   -8.9377    8.2854 LP  0  0  0  0  0  0  0  0  0  0  0  0  # atno 4300 bound_to 2456
    2.4209   -7.4831    4.8173 LP  0  0  0  0  0  0  0  0  0  0  0  0  # atno 4301 bound_to 2510
    2.7873   -9.0734    4.7618 LP  0  0  0  0  0  0  0  0  0  0  0  0  # atno 4302 bound_to 2510
   -3.2015  -17.3348   12.9616 LP  0  0  0  0  0  0  0  0  0  0  0  0  # atno 4306 bound_to 3712
   -2.6198  -18.1498   14.2516 LP  0  0  0  0  0  0  0  0  0  0  0  0  # atno 4307 bound_to 3712
    2.2286  -19.6739    8.2145 LP  0  0  0  0  0  0  0  0  0  0  0  0  # atno 4314 bound_to 3832
    3.0466  -20.9404    8.8419 LP  0  0  0  0  0  0  0  0  0  0  0  0  # atno 4315 bound_to 3832
   -3.9421  -23.1659   10.9456 LP  0  0  0  0  0  0  0  0  0  0  0  0  # atno 4318 bound_to 3762
   -5.2956  -22.7539   10.1302 LP  0  0  0  0  0  0  0  0  0  0  0  0  # atno 4319 bound_to 3762
   -3.6871   -4.9392    8.2847 LP  0  0  0  0  0  0  0  0  0  0  0  0  # atno 4320 bound_to 2467
   -4.7470   -5.4620    9.4117 LP  0  0  0  0  0  0  0  0  0  0  0  0  # atno 4321 bound_to 2467

> <Gold.Score>
     Score     S(PLP)   S(hbond)     S(cho)   S(metal)  DE(clash)   DE(tors)     intcor
     32.81     -29.92       1.00       0.00       0.00       0.00       0.05       0.00

> <Gold.PLP.Fitness>
32.8140

> <Gold.PLP.PLP>
-29.9195

> <Gold.PLP.part.hbond>
-1.0000

> <Gold.PLP.part.metal>
0.0000

> <Gold.PLP.part.buried>
-3.5699

> <Gold.PLP.part.nonpolar>
-25.6444

> <Gold.PLP.part.repulsive>
0.0000

> <Gold.PLP.ligand.clash>
0.0000

> <Gold.PLP.ligand.torsion>
0.0539

> <Gold.PLP.Chemscore.Hbond>
1.0000

> <Gold.PLP.Chemscore.CHOScore>
0.0000

> <Gold.PLP.Chemscore.Metal>
0.0000

> <Gold.Chemscore.Hbonds>
donor molecule, donor type, donor heavy atom, donor atom, acceptor molecule, acceptor atom, score
      L1  H    10    26       P1  1227  1.00

> <Gold.PLP.Chemscore.Internal.Correction>
0.0022

