#       Name:                EN300-114233_i001
#       Creating user name   aseyller
#       Creation time:       Fri Apr 21 18:23:45 2023


#       File generated by GOLD software.
#

@<TRIPOS>MOLECULE
EN300-114233_i001|benzaldehydes|mol2|523|dock7
    15    15     1
SMALL
USER_CHARGES


@<TRIPOS>ATOM
      1 C1          25.8038  36.8759  40.0115 C.3            1 <1>                0.0000
      2 O2          26.7521  36.2783  39.1252 O.3            1 <1>                0.0000
      3 C3          27.6168  37.1110  38.4974 C.2            1 <1>                0.0000
      4 S4          27.1570  38.4829  37.5934 S.3            1 <1>                0.0000
      5 C5          28.8324  38.8614  37.2193 C.2            1 <1>                0.0000
      6 C6          29.2665  39.9523  36.4460 C.2            1 <1>                0.0000
      7 O7          30.4403  40.2672  36.4442 O.2            1 <1>                0.0000
      8 C8          29.6511  37.9241  37.8020 C.2            1 <1>                0.0000
      9 C9          28.9696  36.9700  38.5072 C.2            1 <1>                0.0000
     10 Br10        29.8402  35.5568  39.4133 Br             1 <1>                0.0000
     11 H11         25.1739  36.1000  40.4466 H              1 <1>                0.0000
     12 H12         26.3313  37.4037  40.8060 H              1 <1>                0.0000
     13 H13         25.1826  37.5800  39.4578 H              1 <1>                0.0000
     14 H14         28.5567  40.5105  35.8536 H              1 <1>                0.0000
     15 H15         30.7276  37.9413  37.7152 H              1 <1>                0.0000
@<TRIPOS>BOND
    1    1    2 1     
    2    1   11 1     
    3    1   12 1     
    4    1   13 1     
    5    2    3 1     
    6    3    4 1     
    7    3    9 2     
    8    4    5 1     
    9    5    6 1     
   10    5    8 2     
   11    6    7 2     
   12    6   14 1     
   13    8    9 1     
   14    8   15 1     
   15    9   10 1     
@<TRIPOS>SUBSTRUCTURE
      1 ****           1
@<TRIPOS>COMMENT
> <Gold.Version>
2022.2.0

> <Gold.Id.Protein>
1qkm|1qkm_protein|mol2

> <Gold.Protein.RotatedTorsions>
[  496  491  490  487 ] final  -84.86 input  -89.99 | X-H torsion

> <Gold.Protein.ActiveResidues>
 MET295  LEU298  THR299  LEU301  ALA302  GLU305  TRP335  MET336  LEU339  MET340 
 GLY342  LEU343  ARG346  PHE356  ILE373  ILE376  PHE377  LEU380  LYS471  GLY472 
 MET473  HIS475  LEU476  LEU477  ASN478  MET479  VAL484  VAL487 

> <Gold.Protein.RotatedAtoms>
   36.7101   34.6837   41.1424 H   0  0  0  0  0  0  0  0  0  0  0  0  # atno 496  bound_to 491 

> <Gold.Score>
     Score     S(PLP)   S(hbond)     S(cho)   S(metal)  DE(clash)   DE(tors)     intcor
     33.31     -33.49       0.00       0.00       0.00       0.00       0.09       0.00

> <Gold.PLP.Fitness>
33.3100

> <Gold.PLP.PLP>
-33.4915

> <Gold.PLP.part.hbond>
0.0000

> <Gold.PLP.part.metal>
0.0000

> <Gold.PLP.part.buried>
-2.8898

> <Gold.PLP.part.nonpolar>
-30.5326

> <Gold.PLP.part.repulsive>
0.0368

> <Gold.PLP.ligand.clash>
0.0000

> <Gold.PLP.ligand.torsion>
0.0908

> <Gold.PLP.Chemscore.Hbond>
0.0000

> <Gold.PLP.Chemscore.CHOScore>
0.0000

> <Gold.PLP.Chemscore.Metal>
0.0000

> <Gold.PLP.Chemscore.Internal.Correction>
0.0001

