#       Name:                EN300-114233_i001
#       Creating user name   aseyller
#       Creation time:       Fri Apr 21 18:23:48 2023


#       File generated by GOLD software.
#

@<TRIPOS>MOLECULE
EN300-114233_i001|benzaldehydes|mol2|523|dock14
    15    15     1
SMALL
USER_CHARGES


@<TRIPOS>ATOM
      1 C1          29.5940  39.1004  36.2460 C.3            1 <1>                0.0000
      2 O2          30.9456  38.8466  36.6340 O.3            1 <1>                0.0000
      3 C3          31.2510  37.5805  37.0069 C.2            1 <1>                0.0000
      4 S4          30.6121  36.7942  38.3795 S.3            1 <1>                0.0000
      5 C5          31.5281  35.3343  38.0331 C.2            1 <1>                0.0000
      6 C6          31.5042  34.1577  38.8021 C.2            1 <1>                0.0000
      7 O7          31.8004  33.0938  38.2946 O.2            1 <1>                0.0000
      8 C8          32.2704  35.5236  36.8922 C.2            1 <1>                0.0000
      9 C9          32.1040  36.7619  36.3344 C.2            1 <1>                0.0000
     10 Br10        33.0014  37.2984  34.7587 Br             1 <1>                0.0000
     11 H11         29.4855  40.1498  35.9720 H              1 <1>                0.0000
     12 H12         29.3372  38.4735  35.3920 H              1 <1>                0.0000
     13 H13         28.9280  38.8714  37.0781 H              1 <1>                0.0000
     14 H14         31.2227  34.1992  39.8439 H              1 <1>                0.0000
     15 H15         32.9186  34.7674  36.4744 H              1 <1>                0.0000
@<TRIPOS>BOND
    1    1    2 1     
    2    1   11 1     
    3    1   12 1     
    4    1   13 1     
    5    2    3 1     
    6    3    4 1     
    7    3    9 2     
    8    4    5 1     
    9    5    6 1     
   10    5    8 2     
   11    6    7 2     
   12    6   14 1     
   13    8    9 1     
   14    8   15 1     
   15    9   10 1     
@<TRIPOS>SUBSTRUCTURE
      1 ****           1
@<TRIPOS>COMMENT
> <Gold.Version>
2022.2.0

> <Gold.Id.Protein>
1qkm|1qkm_protein|mol2

> <Gold.Protein.RotatedTorsions>
[  496  491  490  487 ] final -115.55 input  -89.99 | X-H torsion

> <Gold.Protein.ActiveResidues>
 MET295  LEU298  THR299  LEU301  ALA302  GLU305  TRP335  MET336  LEU339  MET340 
 GLY342  LEU343  ARG346  PHE356  ILE373  ILE376  PHE377  LEU380  LYS471  GLY472 
 MET473  HIS475  LEU476  LEU477  ASN478  MET479  VAL484  VAL487 

> <Gold.Protein.RotatedAtoms>
   36.9886   34.4114   40.8303 H   0  0  0  0  0  0  0  0  0  0  0  0  # atno 496  bound_to 491 

> <Gold.Score>
     Score     S(PLP)   S(hbond)     S(cho)   S(metal)  DE(clash)   DE(tors)     intcor
     31.94     -32.23       0.00       0.00       0.00       0.00       0.15       0.00

> <Gold.PLP.Fitness>
31.9429

> <Gold.PLP.PLP>
-32.2341

> <Gold.PLP.part.hbond>
0.0000

> <Gold.PLP.part.metal>
0.0000

> <Gold.PLP.part.buried>
-3.1676

> <Gold.PLP.part.nonpolar>
-29.2834

> <Gold.PLP.part.repulsive>
0.0398

> <Gold.PLP.ligand.clash>
0.0000

> <Gold.PLP.ligand.torsion>
0.1457

> <Gold.PLP.Chemscore.Hbond>
0.0000

> <Gold.PLP.Chemscore.CHOScore>
0.0000

> <Gold.PLP.Chemscore.Metal>
0.0000

> <Gold.PLP.Chemscore.Internal.Correction>
0.0001

