#       Name:                EN300-114233_i001
#       Creating user name   aseyller
#       Creation time:       Fri Apr 21 18:23:48 2023


#       File generated by GOLD software.
#

@<TRIPOS>MOLECULE
EN300-114233_i001|benzaldehydes|mol2|523|dock15
    15    15     1
SMALL
USER_CHARGES


@<TRIPOS>ATOM
      1 C1          32.0842  36.3577  35.6379 C.3            1 <1>                0.0000
      2 O2          32.4420  35.9788  36.9685 O.3            1 <1>                0.0000
      3 C3          31.4434  35.9260  37.8824 C.2            1 <1>                0.0000
      4 S4          30.5339  37.2725  38.4023 S.3            1 <1>                0.0000
      5 C5          29.5793  36.2730  39.4887 C.2            1 <1>                0.0000
      6 C6          28.5438  36.7350  40.3197 C.2            1 <1>                0.0000
      7 O7          28.2065  36.0845  41.2892 O.2            1 <1>                0.0000
      8 C8          30.0037  34.9692  39.3974 C.2            1 <1>                0.0000
      9 C9          31.0261  34.7913  38.5056 C.2            1 <1>                0.0000
     10 Br10        31.8076  33.1012  38.1756 Br             1 <1>                0.0000
     11 H11         32.9745  36.3602  35.0090 H              1 <1>                0.0000
     12 H12         31.3601  35.6468  35.2399 H              1 <1>                0.0000
     13 H13         31.6450  37.3553  35.6499 H              1 <1>                0.0000
     14 H14         28.0479  37.6681  40.0964 H              1 <1>                0.0000
     15 H15         29.5700  34.1630  39.9706 H              1 <1>                0.0000
@<TRIPOS>BOND
    1    1    2 1     
    2    1   11 1     
    3    1   12 1     
    4    1   13 1     
    5    2    3 1     
    6    3    4 1     
    7    3    9 2     
    8    4    5 1     
    9    5    6 1     
   10    5    8 2     
   11    6    7 2     
   12    6   14 1     
   13    8    9 1     
   14    8   15 1     
   15    9   10 1     
@<TRIPOS>SUBSTRUCTURE
      1 ****           1
@<TRIPOS>COMMENT
> <Gold.Version>
2022.2.0

> <Gold.Id.Protein>
1qkm|1qkm_protein|mol2

> <Gold.Protein.RotatedTorsions>
[  496  491  490  487 ] final -132.22 input  -89.99 | X-H torsion

> <Gold.Protein.ActiveResidues>
 MET295  LEU298  THR299  LEU301  ALA302  GLU305  TRP335  MET336  LEU339  MET340 
 GLY342  LEU343  ARG346  PHE356  ILE373  ILE376  PHE377  LEU380  LYS471  GLY472 
 MET473  HIS475  LEU476  LEU477  ASN478  MET479  VAL484  VAL487 

> <Gold.Protein.RotatedAtoms>
   37.1210   34.1891   40.7420 H   0  0  0  0  0  0  0  0  0  0  0  0  # atno 496  bound_to 491 

> <Gold.Score>
     Score     S(PLP)   S(hbond)     S(cho)   S(metal)  DE(clash)   DE(tors)     intcor
     33.10     -33.34       0.00       0.00       0.00       0.00       0.12       0.00

> <Gold.PLP.Fitness>
33.1037

> <Gold.PLP.PLP>
-33.3394

> <Gold.PLP.part.hbond>
0.0000

> <Gold.PLP.part.metal>
0.0000

> <Gold.PLP.part.buried>
-3.1348

> <Gold.PLP.part.nonpolar>
-30.3115

> <Gold.PLP.part.repulsive>
0.1348

> <Gold.PLP.ligand.clash>
0.0000

> <Gold.PLP.ligand.torsion>
0.1179

> <Gold.PLP.Chemscore.Hbond>
0.0000

> <Gold.PLP.Chemscore.CHOScore>
0.0000

> <Gold.PLP.Chemscore.Metal>
0.0000

> <Gold.PLP.Chemscore.Internal.Correction>
0.0001

