#       Name:                EN300-114233_i001
#       Creating user name   aseyller
#       Creation time:       Fri Apr 21 18:23:44 2023


#       File generated by GOLD software.
#

@<TRIPOS>MOLECULE
EN300-114233_i001|benzaldehydes|mol2|523|dock5
    15    15     1
SMALL
USER_CHARGES


@<TRIPOS>ATOM
      1 C1          25.6293  37.0551  41.0027 C.3            1 <1>                0.0000
      2 O2          26.0784  36.4255  39.8011 O.3            1 <1>                0.0000
      3 C3          27.2997  36.7849  39.3379 C.2            1 <1>                0.0000
      4 S4          27.5983  37.4147  37.7808 S.3            1 <1>                0.0000
      5 C5          29.3196  37.5523  38.1106 C.2            1 <1>                0.0000
      6 C6          30.2838  38.0375  37.2099 C.2            1 <1>                0.0000
      7 O7          29.9443  38.4398  36.1145 O.2            1 <1>                0.0000
      8 C8          29.5743  37.1118  39.3871 C.2            1 <1>                0.0000
      9 C9          28.4533  36.6979  40.0534 C.2            1 <1>                0.0000
     10 Br10        28.5056  36.0425  41.8264 Br             1 <1>                0.0000
     11 H11         24.6399  36.6786  41.2623 H              1 <1>                0.0000
     12 H12         26.3260  36.8338  41.8113 H              1 <1>                0.0000
     13 H13         25.5794  38.1335  40.8511 H              1 <1>                0.0000
     14 H14         31.3263  38.0527  37.4915 H              1 <1>                0.0000
     15 H15         30.5624  37.0976  39.8232 H              1 <1>                0.0000
@<TRIPOS>BOND
    1    1    2 1     
    2    1   11 1     
    3    1   12 1     
    4    1   13 1     
    5    2    3 1     
    6    3    4 1     
    7    3    9 2     
    8    4    5 1     
    9    5    6 1     
   10    5    8 2     
   11    6    7 2     
   12    6   14 1     
   13    8    9 1     
   14    8   15 1     
   15    9   10 1     
@<TRIPOS>SUBSTRUCTURE
      1 ****           1
@<TRIPOS>COMMENT
> <Gold.Version>
2022.2.0

> <Gold.Id.Protein>
1qkm|1qkm_protein|mol2

> <Gold.Protein.RotatedTorsions>
[  496  491  490  487 ] final  -16.35 input  -89.99 | X-H torsion

> <Gold.Protein.ActiveResidues>
 MET295  LEU298  THR299  LEU301  ALA302  GLU305  TRP335  MET336  LEU339  MET340 
 GLY342  LEU343  ARG346  PHE356  ILE373  ILE376  PHE377  LEU380  LYS471  GLY472 
 MET473  HIS475  LEU476  LEU477  ASN478  MET479  VAL484  VAL487 

> <Gold.Protein.RotatedAtoms>
   36.2723   34.4281   42.0753 H   0  0  0  0  0  0  0  0  0  0  0  0  # atno 496  bound_to 491 

> <Gold.Score>
     Score     S(PLP)   S(hbond)     S(cho)   S(metal)  DE(clash)   DE(tors)     intcor
     35.49     -35.51       0.00       0.00       0.00       0.00       0.01       0.00

> <Gold.PLP.Fitness>
35.4903

> <Gold.PLP.PLP>
-35.5149

> <Gold.PLP.part.hbond>
0.0000

> <Gold.PLP.part.metal>
0.0000

> <Gold.PLP.part.buried>
-3.2258

> <Gold.PLP.part.nonpolar>
-33.1283

> <Gold.PLP.part.repulsive>
0.1052

> <Gold.PLP.ligand.clash>
0.0000

> <Gold.PLP.ligand.torsion>
0.0123

> <Gold.PLP.Chemscore.Hbond>
0.0000

> <Gold.PLP.Chemscore.CHOScore>
0.0000

> <Gold.PLP.Chemscore.Metal>
0.0000

> <Gold.PLP.Chemscore.Internal.Correction>
0.0001

