#       Name:                EN300-114233_i001
#       Creating user name   aseyller
#       Creation time:       Fri Apr 21 18:23:51 2023


#       File generated by GOLD software.
#

@<TRIPOS>MOLECULE
EN300-114233_i001|benzaldehydes|mol2|523|dock20
    15    15     1
SMALL
USER_CHARGES


@<TRIPOS>ATOM
      1 C1          32.9853  36.9507  34.9355 C.3            1 <1>                0.0000
      2 O2          32.6998  37.9532  35.9129 O.3            1 <1>                0.0000
      3 C3          31.7516  37.6605  36.8352 C.2            1 <1>                0.0000
      4 S4          31.7997  36.3124  37.8796 S.3            1 <1>                0.0000
      5 C5          30.2730  36.7686  38.6222 C.2            1 <1>                0.0000
      6 C6          29.6285  36.0647  39.6544 C.2            1 <1>                0.0000
      7 O7          28.6124  36.5096  40.1511 O.2            1 <1>                0.0000
      8 C8          29.8091  37.9215  38.0358 C.2            1 <1>                0.0000
      9 C9          30.6352  38.4049  37.0581 C.2            1 <1>                0.0000
     10 Br10        30.2479  39.9779  36.0827 Br             1 <1>                0.0000
     11 H11         33.7605  37.3123  34.2598 H              1 <1>                0.0000
     12 H12         33.3313  36.0452  35.4340 H              1 <1>                0.0000
     13 H13         32.0819  36.7298  34.3669 H              1 <1>                0.0000
     14 H14         30.0364  35.1286  40.0061 H              1 <1>                0.0000
     15 H15         28.8846  38.4014  38.3216 H              1 <1>                0.0000
@<TRIPOS>BOND
    1    1    2 1     
    2    1   11 1     
    3    1   12 1     
    4    1   13 1     
    5    2    3 1     
    6    3    4 1     
    7    3    9 2     
    8    4    5 1     
    9    5    6 1     
   10    5    8 2     
   11    6    7 2     
   12    6   14 1     
   13    8    9 1     
   14    8   15 1     
   15    9   10 1     
@<TRIPOS>SUBSTRUCTURE
      1 ****           1
@<TRIPOS>COMMENT
> <Gold.Version>
2022.2.0

> <Gold.Id.Protein>
1qkm|1qkm_protein|mol2

> <Gold.Protein.RotatedTorsions>
[  496  491  490  487 ] final -113.30 input  -89.99 | X-H torsion

> <Gold.Protein.ActiveResidues>
 MET295  LEU298  THR299  LEU301  ALA302  GLU305  TRP335  MET336  LEU339  MET340 
 GLY342  LEU343  ARG346  PHE356  ILE373  ILE376  PHE377  LEU380  LYS471  GLY472 
 MET473  HIS475  LEU476  LEU477  ASN478  MET479  VAL484  VAL487 

> <Gold.Protein.RotatedAtoms>
   36.9691   34.4381   40.8471 H   0  0  0  0  0  0  0  0  0  0  0  0  # atno 496  bound_to 491 

> <Gold.Score>
     Score     S(PLP)   S(hbond)     S(cho)   S(metal)  DE(clash)   DE(tors)     intcor
     31.72     -31.75       0.00       0.00       0.00       0.00       0.01       0.00

> <Gold.PLP.Fitness>
31.7180

> <Gold.PLP.PLP>
-31.7452

> <Gold.PLP.part.hbond>
0.0000

> <Gold.PLP.part.metal>
0.0000

> <Gold.PLP.part.buried>
-2.3996

> <Gold.PLP.part.nonpolar>
-29.4511

> <Gold.PLP.part.repulsive>
0.1002

> <Gold.PLP.ligand.clash>
0.0000

> <Gold.PLP.ligand.torsion>
0.0136

> <Gold.PLP.Chemscore.Hbond>
0.0000

> <Gold.PLP.Chemscore.CHOScore>
0.0000

> <Gold.PLP.Chemscore.Metal>
0.0000

> <Gold.PLP.Chemscore.Internal.Correction>
0.0001

