#       Name:                EN300-114233_i001
#       Creating user name   aseyller
#       Creation time:       Fri Apr 21 18:23:42 2023


#       File generated by GOLD software.
#

@<TRIPOS>MOLECULE
EN300-114233_i001
    15    15     1
SMALL
USER_CHARGES


@<TRIPOS>ATOM
      1 C1           0.7866   2.8290  -0.0011 C.3            1 <1>                0.0000
      2 O2           1.4693   1.5737   0.0010 O.3            1 <1>                0.0000
      3 C3           0.7027   0.4567   0.0013 C.2            1 <1>                0.0000
      4 S4          -1.0033   0.4527  -0.0012 S.3            1 <1>                0.0000
      5 C5          -1.0503  -1.3046   0.0010 C.2            1 <1>                0.0000
      6 C6          -2.2184  -2.0868  -0.0004 C.2            1 <1>                0.0000
      7 O7          -3.3090  -1.5505  -0.0029 O.2            1 <1>                0.0000
      8 C8           0.2340  -1.7935   0.0035 C.2            1 <1>                0.0000
      9 C9           1.1889  -0.8136  -0.0023 C.2            1 <1>                0.0000
     10 Br10         3.0409  -1.1958  -0.0011 Br             1 <1>                0.0000
     11 H11          1.5158   3.6392  -0.0011 H              1 <1>                0.0000
     12 H12          0.1625   2.9018  -0.8918 H              1 <1>                0.0000
     13 H13          0.1606   2.9036   0.8882 H              1 <1>                0.0000
     14 H14         -2.1466  -3.1644   0.0008 H              1 <1>                0.0000
     15 H15          0.4668  -2.8482   0.0057 H              1 <1>                0.0000
@<TRIPOS>BOND
    1    1    2 1     
    2    1   11 1     
    3    1   12 1     
    4    1   13 1     
    5    2    3 1     
    6    3    4 1     
    7    3    9 2     
    8    4    5 1     
    9    5    6 1     
   10    5    8 2     
   11    6    7 2     
   12    6   14 1     
   13    8    9 1     
   14    8   15 1     
   15    9   10 1     
@<TRIPOS>SUBSTRUCTURE
      1 ****           1
