#       Name:                EN300-114233_i001
#       Creating user name   aseyller
#       Creation time:       Fri Apr 21 18:23:43 2023


#       File generated by GOLD software.
#

@<TRIPOS>MOLECULE
EN300-114233_i001|benzaldehydes|mol2|523|dock2
    15    15     1
SMALL
USER_CHARGES


@<TRIPOS>ATOM
      1 C1          30.0070  39.5018  36.9140 C.3            1 <1>                0.0000
      2 O2          30.1539  38.0927  36.7277 O.3            1 <1>                0.0000
      3 C3          29.9101  37.3018  37.8003 C.2            1 <1>                0.0000
      4 S4          28.4565  37.3016  38.6933 S.3            1 <1>                0.0000
      5 C5          29.0616  36.0555  39.7756 C.2            1 <1>                0.0000
      6 C6          28.3522  35.5022  40.8559 C.2            1 <1>                0.0000
      7 O7          27.2550  35.9355  41.1483 O.2            1 <1>                0.0000
      8 C8          30.3365  35.7068  39.3995 C.2            1 <1>                0.0000
      9 C9          30.7889  36.3960  38.3075 C.2            1 <1>                0.0000
     10 Br10        32.5081  36.1207  37.5696 Br             1 <1>                0.0000
     11 H11         30.2310  40.0171  35.9800 H              1 <1>                0.0000
     12 H12         28.9831  39.7238  37.2151 H              1 <1>                0.0000
     13 H13         30.6949  39.8394  37.6893 H              1 <1>                0.0000
     14 H14         28.7822  34.6919  41.4259 H              1 <1>                0.0000
     15 H15         30.9224  34.9589  39.9131 H              1 <1>                0.0000
@<TRIPOS>BOND
    1    1    2 1     
    2    1   11 1     
    3    1   12 1     
    4    1   13 1     
    5    2    3 1     
    6    3    4 1     
    7    3    9 2     
    8    4    5 1     
    9    5    6 1     
   10    5    8 2     
   11    6    7 2     
   12    6   14 1     
   13    8    9 1     
   14    8   15 1     
   15    9   10 1     
@<TRIPOS>SUBSTRUCTURE
      1 ****           1
@<TRIPOS>COMMENT
> <Gold.Version>
2022.2.0

> <Gold.Id.Protein>
1qkm|1qkm_protein|mol2

> <Gold.Protein.RotatedTorsions>
[  496  491  490  487 ] final -158.70 input  -89.99 | X-H torsion

> <Gold.Protein.ActiveResidues>
 MET295  LEU298  THR299  LEU301  ALA302  GLU305  TRP335  MET336  LEU339  MET340 
 GLY342  LEU343  ARG346  PHE356  ILE373  ILE376  PHE377  LEU380  LYS471  GLY472 
 MET473  HIS475  LEU476  LEU477  ASN478  MET479  VAL484  VAL487 

> <Gold.Protein.RotatedAtoms>
   37.2703   33.7837   40.7425 H   0  0  0  0  0  0  0  0  0  0  0  0  # atno 496  bound_to 491 

> <Gold.Score>
     Score     S(PLP)   S(hbond)     S(cho)   S(metal)  DE(clash)   DE(tors)     intcor
     31.77     -31.82       0.00       0.00       0.00       0.00       0.02       0.00

> <Gold.PLP.Fitness>
31.7725

> <Gold.PLP.PLP>
-31.8202

> <Gold.PLP.part.hbond>
0.0000

> <Gold.PLP.part.metal>
0.0000

> <Gold.PLP.part.buried>
-1.6145

> <Gold.PLP.part.nonpolar>
-30.5109

> <Gold.PLP.part.repulsive>
0.1101

> <Gold.PLP.ligand.clash>
0.0000

> <Gold.PLP.ligand.torsion>
0.0239

> <Gold.PLP.Chemscore.Hbond>
0.0000

> <Gold.PLP.Chemscore.CHOScore>
0.0000

> <Gold.PLP.Chemscore.Metal>
0.0000

> <Gold.PLP.Chemscore.Internal.Correction>
0.0001

