#       Name:                EN300-114233_i001
#       Creating user name   aseyller
#       Creation time:       Fri Apr 21 18:23:44 2023


#       File generated by GOLD software.
#

@<TRIPOS>MOLECULE
EN300-114233_i001|benzaldehydes|mol2|523|dock4
    15    15     1
SMALL
USER_CHARGES


@<TRIPOS>ATOM
      1 C1          31.5168  33.4799  38.2007 C.3            1 <1>                0.0000
      2 O2          31.5091  34.5904  39.0999 O.3            1 <1>                0.0000
      3 C3          31.0644  35.7735  38.6122 C.2            1 <1>                0.0000
      4 S4          31.7869  36.6217  37.3203 S.3            1 <1>                0.0000
      5 C5          30.5947  37.9088  37.4311 C.2            1 <1>                0.0000
      6 C6          30.5513  39.0498  36.6110 C.2            1 <1>                0.0000
      7 O7          29.7386  39.9261  36.8314 O.2            1 <1>                0.0000
      8 C8          29.7114  37.6240  38.4446 C.2            1 <1>                0.0000
      9 C9          29.9780  36.4433  39.0825 C.2            1 <1>                0.0000
     10 Br10        28.9258  35.7995  40.5158 Br             1 <1>                0.0000
     11 H11         31.8945  32.5971  38.7167 H              1 <1>                0.0000
     12 H12         30.5025  33.2894  37.8496 H              1 <1>                0.0000
     13 H13         32.1593  33.7060  37.3496 H              1 <1>                0.0000
     14 H14         31.2402  39.1475  35.7850 H              1 <1>                0.0000
     15 H15         28.8852  38.2674  38.7091 H              1 <1>                0.0000
@<TRIPOS>BOND
    1    1    2 1     
    2    1   11 1     
    3    1   12 1     
    4    1   13 1     
    5    2    3 1     
    6    3    4 1     
    7    3    9 2     
    8    4    5 1     
    9    5    6 1     
   10    5    8 2     
   11    6    7 2     
   12    6   14 1     
   13    8    9 1     
   14    8   15 1     
   15    9   10 1     
@<TRIPOS>SUBSTRUCTURE
      1 ****           1
@<TRIPOS>COMMENT
> <Gold.Version>
2022.2.0

> <Gold.Id.Protein>
1qkm|1qkm_protein|mol2

> <Gold.Protein.RotatedTorsions>
[  496  491  490  487 ] final -150.33 input  -89.99 | X-H torsion

> <Gold.Protein.ActiveResidues>
 MET295  LEU298  THR299  LEU301  ALA302  GLU305  TRP335  MET336  LEU339  MET340 
 GLY342  LEU343  ARG346  PHE356  ILE373  ILE376  PHE377  LEU380  LYS471  GLY472 
 MET473  HIS475  LEU476  LEU477  ASN478  MET479  VAL484  VAL487 

> <Gold.Protein.RotatedAtoms>
   37.2329   33.9147   40.7233 H   0  0  0  0  0  0  0  0  0  0  0  0  # atno 496  bound_to 491 

> <Gold.Score>
     Score     S(PLP)   S(hbond)     S(cho)   S(metal)  DE(clash)   DE(tors)     intcor
     33.19     -33.20       0.00       0.00       0.00       0.00       0.01       0.00

> <Gold.PLP.Fitness>
33.1861

> <Gold.PLP.PLP>
-33.2033

> <Gold.PLP.part.hbond>
0.0000

> <Gold.PLP.part.metal>
0.0000

> <Gold.PLP.part.buried>
-3.1459

> <Gold.PLP.part.nonpolar>
-30.9689

> <Gold.PLP.part.repulsive>
0.7934

> <Gold.PLP.ligand.clash>
0.0000

> <Gold.PLP.ligand.torsion>
0.0087

> <Gold.PLP.Chemscore.Hbond>
0.0000

> <Gold.PLP.Chemscore.CHOScore>
0.0000

> <Gold.PLP.Chemscore.Metal>
0.0000

> <Gold.PLP.Chemscore.Internal.Correction>
0.0001

