#       Name:                EN300-114233_i001
#       Creating user name   aseyller
#       Creation time:       Fri Apr 21 18:23:49 2023


#       File generated by GOLD software.
#

@<TRIPOS>MOLECULE
EN300-114233_i001|benzaldehydes|mol2|523|dock16
    15    15     1
SMALL
USER_CHARGES


@<TRIPOS>ATOM
      1 C1          31.6561  35.9707  37.8362 C.3            1 <1>                0.0000
      2 O2          31.1172  37.2902  37.9375 O.3            1 <1>                0.0000
      3 C3          29.7721  37.3977  38.0581 C.2            1 <1>                0.0000
      4 S4          28.8332  36.5624  39.2118 S.3            1 <1>                0.0000
      5 C5          27.3527  37.3001  38.6166 C.2            1 <1>                0.0000
      6 C6          26.0646  37.0661  39.1288 C.2            1 <1>                0.0000
      7 O7          25.9246  36.4264  40.1527 O.2            1 <1>                0.0000
      8 C8          27.6523  38.1418  37.5725 C.2            1 <1>                0.0000
      9 C9          28.9879  38.1906  37.2794 C.2            1 <1>                0.0000
     10 Br10        29.6875  39.2663  35.8903 Br             1 <1>                0.0000
     11 H11         32.7408  36.0272  37.7449 H              1 <1>                0.0000
     12 H12         31.3956  35.4022  38.7290 H              1 <1>                0.0000
     13 H13         31.2428  35.4760  36.9571 H              1 <1>                0.0000
     14 H14         25.1993  37.4547  38.6124 H              1 <1>                0.0000
     15 H15         26.9068  38.7123  37.0382 H              1 <1>                0.0000
@<TRIPOS>BOND
    1    1    2 1     
    2    1   11 1     
    3    1   12 1     
    4    1   13 1     
    5    2    3 1     
    6    3    4 1     
    7    3    9 2     
    8    4    5 1     
    9    5    6 1     
   10    5    8 2     
   11    6    7 2     
   12    6   14 1     
   13    8    9 1     
   14    8   15 1     
   15    9   10 1     
@<TRIPOS>SUBSTRUCTURE
      1 ****           1
@<TRIPOS>COMMENT
> <Gold.Version>
2022.2.0

> <Gold.Id.Protein>
1qkm|1qkm_protein|mol2

> <Gold.Protein.RotatedTorsions>
[  496  491  490  487 ] final  -11.66 input  -89.99 | X-H torsion

> <Gold.Protein.ActiveResidues>
 MET295  LEU298  THR299  LEU301  ALA302  GLU305  TRP335  MET336  LEU339  MET340 
 GLY342  LEU343  ARG346  PHE356  ILE373  ILE376  PHE377  LEU380  LYS471  GLY472 
 MET473  HIS475  LEU476  LEU477  ASN478  MET479  VAL484  VAL487 

> <Gold.Protein.RotatedAtoms>
   36.2643   34.3707   42.1265 H   0  0  0  0  0  0  0  0  0  0  0  0  # atno 496  bound_to 491 

> <Gold.Score>
     Score     S(PLP)   S(hbond)     S(cho)   S(metal)  DE(clash)   DE(tors)     intcor
     32.17     -32.34       0.00       0.00       0.00       0.00       0.09       0.00

> <Gold.PLP.Fitness>
32.1695

> <Gold.PLP.PLP>
-32.3398

> <Gold.PLP.part.hbond>
0.0000

> <Gold.PLP.part.metal>
0.0000

> <Gold.PLP.part.buried>
-2.4790

> <Gold.PLP.part.nonpolar>
-29.8374

> <Gold.PLP.part.repulsive>
0.1420

> <Gold.PLP.ligand.clash>
0.0000

> <Gold.PLP.ligand.torsion>
0.0852

> <Gold.PLP.Chemscore.Hbond>
0.0000

> <Gold.PLP.Chemscore.CHOScore>
0.0000

> <Gold.PLP.Chemscore.Metal>
0.0000

> <Gold.PLP.Chemscore.Internal.Correction>
0.0001

