#       Name:                EN300-114233_i001
#       Creating user name   aseyller
#       Creation time:       Fri Apr 21 18:23:47 2023


#       File generated by GOLD software.
#

@<TRIPOS>MOLECULE
EN300-114233_i001|benzaldehydes|mol2|523|dock11
    15    15     1
SMALL
USER_CHARGES


@<TRIPOS>ATOM
      1 C1          30.0489  39.7571  36.6685 C.3            1 <1>                0.0000
      2 O2          29.8290  38.3467  36.6010 O.3            1 <1>                0.0000
      3 C3          28.9449  37.8193  37.4817 C.2            1 <1>                0.0000
      4 S4          27.3053  38.2758  37.5992 S.3            1 <1>                0.0000
      5 C5          27.0280  37.1340  38.9068 C.2            1 <1>                0.0000
      6 C6          25.8022  36.9341  39.5654 C.2            1 <1>                0.0000
      7 O7          25.7802  36.4148  40.6640 O.2            1 <1>                0.0000
      8 C8          28.1973  36.4672  39.1835 C.2            1 <1>                0.0000
      9 C9          29.2428  36.8498  38.3880 C.2            1 <1>                0.0000
     10 Br10        30.9711  36.0989  38.5460 Br             1 <1>                0.0000
     11 H11         30.7769  40.0480  35.9112 H              1 <1>                0.0000
     12 H12         29.1095  40.2803  36.4895 H              1 <1>                0.0000
     13 H13         30.4279  40.0188  37.6565 H              1 <1>                0.0000
     14 H14         24.8801  37.2419  39.0950 H              1 <1>                0.0000
     15 H15         28.2818  35.7121  39.9511 H              1 <1>                0.0000
@<TRIPOS>BOND
    1    1    2 1     
    2    1   11 1     
    3    1   12 1     
    4    1   13 1     
    5    2    3 1     
    6    3    4 1     
    7    3    9 2     
    8    4    5 1     
    9    5    6 1     
   10    5    8 2     
   11    6    7 2     
   12    6   14 1     
   13    8    9 1     
   14    8   15 1     
   15    9   10 1     
@<TRIPOS>SUBSTRUCTURE
      1 ****           1
@<TRIPOS>COMMENT
> <Gold.Version>
2022.2.0

> <Gold.Id.Protein>
1qkm|1qkm_protein|mol2

> <Gold.Protein.RotatedTorsions>
[  496  491  490  487 ] final   80.78 input  -89.99 | X-H torsion

> <Gold.Protein.ActiveResidues>
 MET295  LEU298  THR299  LEU301  ALA302  GLU305  TRP335  MET336  LEU339  MET340 
 GLY342  LEU343  ARG346  PHE356  ILE373  ILE376  PHE377  LEU380  LYS471  GLY472 
 MET473  HIS475  LEU476  LEU477  ASN478  MET479  VAL484  VAL487 

> <Gold.Protein.RotatedAtoms>
   36.7351   33.0927   42.1277 H   0  0  0  0  0  0  0  0  0  0  0  0  # atno 496  bound_to 491 

> <Gold.Score>
     Score     S(PLP)   S(hbond)     S(cho)   S(metal)  DE(clash)   DE(tors)     intcor
     33.40     -33.58       0.00       0.00       0.00       0.00       0.09       0.00

> <Gold.PLP.Fitness>
33.3975

> <Gold.PLP.PLP>
-33.5768

> <Gold.PLP.part.hbond>
0.0000

> <Gold.PLP.part.metal>
0.0000

> <Gold.PLP.part.buried>
-2.8319

> <Gold.PLP.part.nonpolar>
-31.0348

> <Gold.PLP.part.repulsive>
0.1695

> <Gold.PLP.ligand.clash>
0.0000

> <Gold.PLP.ligand.torsion>
0.0896

> <Gold.PLP.Chemscore.Hbond>
0.0000

> <Gold.PLP.Chemscore.CHOScore>
0.0000

> <Gold.PLP.Chemscore.Metal>
0.0000

> <Gold.PLP.Chemscore.Internal.Correction>
0.0001

