#       Name:                EN300-114233_i001
#       Creating user name   aseyller
#       Creation time:       Fri Apr 21 18:23:45 2023


#       File generated by GOLD software.
#

@<TRIPOS>MOLECULE
EN300-114233_i001|benzaldehydes|mol2|523|dock8
    15    15     1
SMALL
USER_CHARGES


@<TRIPOS>ATOM
      1 C1          25.7993  37.3028  40.2464 C.3            1 <1>                0.0000
      2 O2          26.3352  36.5610  39.1489 O.3            1 <1>                0.0000
      3 C3          27.6697  36.6560  38.9356 C.2            1 <1>                0.0000
      4 S4          28.3818  37.2950  37.5231 S.3            1 <1>                0.0000
      5 C5          29.9999  37.0097  38.1481 C.2            1 <1>                0.0000
      6 C6          31.1965  37.3136  37.4758 C.2            1 <1>                0.0000
      7 O7          32.2213  36.7271  37.7638 O.2            1 <1>                0.0000
      8 C8          29.9113  36.4439  39.3973 C.2            1 <1>                0.0000
      9 C9          28.6234  36.2601  39.8209 C.2            1 <1>                0.0000
     10 Br10        28.2020  35.5016  41.5011 Br             1 <1>                0.0000
     11 H11         24.7233  37.1388  40.3050 H              1 <1>                0.0000
     12 H12         26.2684  36.9712  41.1728 H              1 <1>                0.0000
     13 H13         25.9976  38.3645  40.0987 H              1 <1>                0.0000
     14 H14         31.2052  38.0683  36.7033 H              1 <1>                0.0000
     15 H15         30.7741  36.1743  39.9885 H              1 <1>                0.0000
@<TRIPOS>BOND
    1    1    2 1     
    2    1   11 1     
    3    1   12 1     
    4    1   13 1     
    5    2    3 1     
    6    3    4 1     
    7    3    9 2     
    8    4    5 1     
    9    5    6 1     
   10    5    8 2     
   11    6    7 2     
   12    6   14 1     
   13    8    9 1     
   14    8   15 1     
   15    9   10 1     
@<TRIPOS>SUBSTRUCTURE
      1 ****           1
@<TRIPOS>COMMENT
> <Gold.Version>
2022.2.0

> <Gold.Id.Protein>
1qkm|1qkm_protein|mol2

> <Gold.Protein.RotatedTorsions>
[  496  491  490  487 ] final  128.30 input  -89.99 | X-H torsion

> <Gold.Protein.ActiveResidues>
 MET295  LEU298  THR299  LEU301  ALA302  GLU305  TRP335  MET336  LEU339  MET340 
 GLY342  LEU343  ARG346  PHE356  ILE373  ILE376  PHE377  LEU380  LYS471  GLY472 
 MET473  HIS475  LEU476  LEU477  ASN478  MET479  VAL484  VAL487 

> <Gold.Protein.RotatedAtoms>
   37.1414   32.9645   41.4983 H   0  0  0  0  0  0  0  0  0  0  0  0  # atno 496  bound_to 491 

> <Gold.Score>
     Score     S(PLP)   S(hbond)     S(cho)   S(metal)  DE(clash)   DE(tors)     intcor
     33.17     -33.41       0.00       0.00       0.00       0.00       0.12       0.00

> <Gold.PLP.Fitness>
33.1694

> <Gold.PLP.PLP>
-33.4108

> <Gold.PLP.part.hbond>
0.0000

> <Gold.PLP.part.metal>
0.0000

> <Gold.PLP.part.buried>
-2.6272

> <Gold.PLP.part.nonpolar>
-30.7609

> <Gold.PLP.part.repulsive>
0.0764

> <Gold.PLP.ligand.clash>
0.0000

> <Gold.PLP.ligand.torsion>
0.1207

> <Gold.PLP.Chemscore.Hbond>
0.0000

> <Gold.PLP.Chemscore.CHOScore>
0.0000

> <Gold.PLP.Chemscore.Metal>
0.0000

> <Gold.PLP.Chemscore.Internal.Correction>
0.0001

