#       Name:                EN300-114233_i001
#       Creating user name   aseyller
#       Creation time:       Fri Apr 21 18:23:49 2023


#       File generated by GOLD software.
#

@<TRIPOS>MOLECULE
EN300-114233_i001|benzaldehydes|mol2|523|dock18
    15    15     1
SMALL
USER_CHARGES


@<TRIPOS>ATOM
      1 C1          25.8012  37.2981  39.7345 C.3            1 <1>                0.0000
      2 O2          26.4118  36.3347  38.8736 O.3            1 <1>                0.0000
      3 C3          27.7311  36.4941  38.6100 C.2            1 <1>                0.0000
      4 S4          28.9489  35.3858  39.0562 S.3            1 <1>                0.0000
      5 C5          30.1989  36.3912  38.3372 C.2            1 <1>                0.0000
      6 C6          31.5723  36.0916  38.3178 C.2            1 <1>                0.0000
      7 O7          32.3236  36.7301  37.6073 O.2            1 <1>                0.0000
      8 C8          29.6226  37.5156  37.7966 C.2            1 <1>                0.0000
      9 C9          28.2635  37.5567  37.9486 C.2            1 <1>                0.0000
     10 Br10        27.2088  38.9868  37.3016 Br             1 <1>                0.0000
     11 H11         24.7465  37.0543  39.8624 H              1 <1>                0.0000
     12 H12         26.2976  37.2846  40.7048 H              1 <1>                0.0000
     13 H13         25.8939  38.2903  39.2928 H              1 <1>                0.0000
     14 H14         31.9596  35.2939  38.9342 H              1 <1>                0.0000
     15 H15         30.1871  38.2892  37.2970 H              1 <1>                0.0000
@<TRIPOS>BOND
    1    1    2 1     
    2    1   11 1     
    3    1   12 1     
    4    1   13 1     
    5    2    3 1     
    6    3    4 1     
    7    3    9 2     
    8    4    5 1     
    9    5    6 1     
   10    5    8 2     
   11    6    7 2     
   12    6   14 1     
   13    8    9 1     
   14    8   15 1     
   15    9   10 1     
@<TRIPOS>SUBSTRUCTURE
      1 ****           1
@<TRIPOS>COMMENT
> <Gold.Version>
2022.2.0

> <Gold.Id.Protein>
1qkm|1qkm_protein|mol2

> <Gold.Protein.RotatedTorsions>
[  496  491  490  487 ] final -133.08 input  -89.99 | X-H torsion

> <Gold.Protein.ActiveResidues>
 MET295  LEU298  THR299  LEU301  ALA302  GLU305  TRP335  MET336  LEU339  MET340 
 GLY342  LEU343  ARG346  PHE356  ILE373  ILE376  PHE377  LEU380  LYS471  GLY472 
 MET473  HIS475  LEU476  LEU477  ASN478  MET479  VAL484  VAL487 

> <Gold.Protein.RotatedAtoms>
   37.1271   34.1767   40.7392 H   0  0  0  0  0  0  0  0  0  0  0  0  # atno 496  bound_to 491 

> <Gold.Score>
     Score     S(PLP)   S(hbond)     S(cho)   S(metal)  DE(clash)   DE(tors)     intcor
     31.51     -31.60       0.00       0.00       0.00       0.00       0.05       0.00

> <Gold.PLP.Fitness>
31.5065

> <Gold.PLP.PLP>
-31.6010

> <Gold.PLP.part.hbond>
0.0000

> <Gold.PLP.part.metal>
0.0000

> <Gold.PLP.part.buried>
-2.9687

> <Gold.PLP.part.nonpolar>
-28.2781

> <Gold.PLP.part.repulsive>
0.0690

> <Gold.PLP.ligand.clash>
0.0000

> <Gold.PLP.ligand.torsion>
0.0473

> <Gold.PLP.Chemscore.Hbond>
0.0000

> <Gold.PLP.Chemscore.CHOScore>
0.0000

> <Gold.PLP.Chemscore.Metal>
0.0000

> <Gold.PLP.Chemscore.Internal.Correction>
0.0001

