#       Name:                EN300-114233_i001
#       Creating user name   aseyller
#       Creation time:       Fri Apr 21 18:23:49 2023


#       File generated by GOLD software.
#

@<TRIPOS>MOLECULE
EN300-114233_i001|benzaldehydes|mol2|523|dock17
    15    15     1
SMALL
USER_CHARGES


@<TRIPOS>ATOM
      1 C1          28.8158  36.6990  40.5360 C.3            1 <1>                0.0000
      2 O2          29.6961  35.7393  39.9480 O.3            1 <1>                0.0000
      3 C3          30.3304  36.1040  38.8078 C.2            1 <1>                0.0000
      4 S4          30.0768  37.5780  37.9872 S.3            1 <1>                0.0000
      5 C5          31.2489  37.1496  36.7491 C.2            1 <1>                0.0000
      6 C6          31.5987  37.9511  35.6484 C.2            1 <1>                0.0000
      7 O7          31.0434  39.0178  35.4723 O.2            1 <1>                0.0000
      8 C8          31.7699  35.9087  37.0265 C.2            1 <1>                0.0000
      9 C9          31.2602  35.3471  38.1653 C.2            1 <1>                0.0000
     10 Br10        31.7964  33.6446  38.7898 Br             1 <1>                0.0000
     11 H11         28.3744  36.2809  41.4407 H              1 <1>                0.0000
     12 H12         29.3759  37.5997  40.7876 H              1 <1>                0.0000
     13 H13         28.0254  36.9487  39.8280 H              1 <1>                0.0000
     14 H14         32.3610  37.6190  34.9592 H              1 <1>                0.0000
     15 H15         32.5122  35.4256  36.4083 H              1 <1>                0.0000
@<TRIPOS>BOND
    1    1    2 1     
    2    1   11 1     
    3    1   12 1     
    4    1   13 1     
    5    2    3 1     
    6    3    4 1     
    7    3    9 2     
    8    4    5 1     
    9    5    6 1     
   10    5    8 2     
   11    6    7 2     
   12    6   14 1     
   13    8    9 1     
   14    8   15 1     
   15    9   10 1     
@<TRIPOS>SUBSTRUCTURE
      1 ****           1
@<TRIPOS>COMMENT
> <Gold.Version>
2022.2.0

> <Gold.Id.Protein>
1qkm|1qkm_protein|mol2

> <Gold.Protein.RotatedTorsions>
[  496  491  490  487 ] final   -4.53 input  -89.99 | X-H torsion

> <Gold.Protein.ActiveResidues>
 MET295  LEU298  THR299  LEU301  ALA302  GLU305  TRP335  MET336  LEU339  MET340 
 GLY342  LEU343  ARG346  PHE356  ILE373  ILE376  PHE377  LEU380  LYS471  GLY472 
 MET473  HIS475  LEU476  LEU477  ASN478  MET479  VAL484  VAL487 

> <Gold.Protein.RotatedAtoms>
   36.2589   34.2768   42.1966 H   0  0  0  0  0  0  0  0  0  0  0  0  # atno 496  bound_to 491 

> <Gold.Score>
     Score     S(PLP)   S(hbond)     S(cho)   S(metal)  DE(clash)   DE(tors)     intcor
     31.22     -31.26       0.00       0.00       0.00       0.00       0.02       0.00

> <Gold.PLP.Fitness>
31.2219

> <Gold.PLP.PLP>
-31.2576

> <Gold.PLP.part.hbond>
0.0000

> <Gold.PLP.part.metal>
0.0000

> <Gold.PLP.part.buried>
-3.0080

> <Gold.PLP.part.nonpolar>
-28.8898

> <Gold.PLP.part.repulsive>
0.4641

> <Gold.PLP.ligand.clash>
0.0000

> <Gold.PLP.ligand.torsion>
0.0179

> <Gold.PLP.Chemscore.Hbond>
0.0000

> <Gold.PLP.Chemscore.CHOScore>
0.0000

> <Gold.PLP.Chemscore.Metal>
0.0000

> <Gold.PLP.Chemscore.Internal.Correction>
0.0001

