#       Name:                EN300-114233_i001
#       Creating user name   aseyller
#       Creation time:       Fri Apr 21 18:23:50 2023


#       File generated by GOLD software.
#

@<TRIPOS>MOLECULE
EN300-114233_i001|benzaldehydes|mol2|523|dock19
    15    15     1
SMALL
USER_CHARGES


@<TRIPOS>ATOM
      1 C1          28.5492  36.6970  41.0790 C.3            1 <1>                0.0000
      2 O2          28.3460  36.6147  39.6670 O.3            1 <1>                0.0000
      3 C3          29.4518  36.5063  38.8918 C.2            1 <1>                0.0000
      4 S4          30.6713  35.3322  39.1028 S.3            1 <1>                0.0000
      5 C5          31.5838  35.9604  37.7379 C.2            1 <1>                0.0000
      6 C6          32.8084  35.4491  37.2738 C.2            1 <1>                0.0000
      7 O7          33.3427  35.9417  36.2997 O.2            1 <1>                0.0000
      8 C8          30.9118  37.0293  37.1953 C.2            1 <1>                0.0000
      9 C9          29.7372  37.3153  37.8363 C.2            1 <1>                0.0000
     10 Br10        28.6057  38.7340  37.3045 Br             1 <1>                0.0000
     11 H11         27.5850  36.7801  41.5806 H              1 <1>                0.0000
     12 H12         29.0628  35.8001  41.4252 H              1 <1>                0.0000
     13 H13         29.1548  37.5739  41.3084 H              1 <1>                0.0000
     14 H14         33.2742  34.6184  37.7830 H              1 <1>                0.0000
     15 H15         31.2734  37.5866  36.3437 H              1 <1>                0.0000
@<TRIPOS>BOND
    1    1    2 1     
    2    1   11 1     
    3    1   12 1     
    4    1   13 1     
    5    2    3 1     
    6    3    4 1     
    7    3    9 2     
    8    4    5 1     
    9    5    6 1     
   10    5    8 2     
   11    6    7 2     
   12    6   14 1     
   13    8    9 1     
   14    8   15 1     
   15    9   10 1     
@<TRIPOS>SUBSTRUCTURE
      1 ****           1
@<TRIPOS>COMMENT
> <Gold.Version>
2022.2.0

> <Gold.Id.Protein>
1qkm|1qkm_protein|mol2

> <Gold.Protein.RotatedTorsions>
[  496  491  490  487 ] final   63.37 input  -89.99 | X-H torsion

> <Gold.Protein.ActiveResidues>
 MET295  LEU298  THR299  LEU301  ALA302  GLU305  TRP335  MET336  LEU339  MET340 
 GLY342  LEU343  ARG346  PHE356  ILE373  ILE376  PHE377  LEU380  LYS471  GLY472 
 MET473  HIS475  LEU476  LEU477  ASN478  MET479  VAL484  VAL487 

> <Gold.Protein.RotatedAtoms>
   36.5798   33.2770   42.2808 H   0  0  0  0  0  0  0  0  0  0  0  0  # atno 496  bound_to 491 

> <Gold.Score>
     Score     S(PLP)   S(hbond)     S(cho)   S(metal)  DE(clash)   DE(tors)     intcor
     31.07     -31.17       0.00       0.00       0.00       0.00       0.05       0.00

> <Gold.PLP.Fitness>
31.0696

> <Gold.PLP.PLP>
-31.1706

> <Gold.PLP.part.hbond>
0.0000

> <Gold.PLP.part.metal>
0.0000

> <Gold.PLP.part.buried>
-1.7054

> <Gold.PLP.part.nonpolar>
-29.3323

> <Gold.PLP.part.repulsive>
0.0482

> <Gold.PLP.ligand.clash>
0.0000

> <Gold.PLP.ligand.torsion>
0.0506

> <Gold.PLP.Chemscore.Hbond>
0.0000

> <Gold.PLP.Chemscore.CHOScore>
0.0000

> <Gold.PLP.Chemscore.Metal>
0.0000

> <Gold.PLP.Chemscore.Internal.Correction>
0.0001

