#       Name:                EN300-114233_i001
#       Creating user name   aseyller
#       Creation time:       Fri Apr 21 18:23:45 2023


#       File generated by GOLD software.
#

@<TRIPOS>MOLECULE
EN300-114233_i001|benzaldehydes|mol2|523|dock6
    15    15     1
SMALL
USER_CHARGES


@<TRIPOS>ATOM
      1 C1          32.4485  35.7908  35.8182 C.3            1 <1>                0.0000
      2 O2          32.3401  36.8708  36.7477 O.3            1 <1>                0.0000
      3 C3          31.3323  36.8062  37.6507 C.2            1 <1>                0.0000
      4 S4          31.1410  35.5614  38.8015 S.3            1 <1>                0.0000
      5 C5          29.6831  36.3068  39.4412 C.2            1 <1>                0.0000
      6 C6          28.9081  35.8007  40.4993 C.2            1 <1>                0.0000
      7 O7          27.9090  36.3924  40.8580 O.2            1 <1>                0.0000
      8 C8          29.4204  37.4622  38.7450 C.2            1 <1>                0.0000
      9 C9          30.3390  37.7282  37.7665 C.2            1 <1>                0.0000
     10 Br10        30.2282  39.2521  36.6522 Br             1 <1>                0.0000
     11 H11         33.2944  35.9669  35.1537 H              1 <1>                0.0000
     12 H12         32.6009  34.8580  36.3611 H              1 <1>                0.0000
     13 H13         31.5327  35.7238  35.2307 H              1 <1>                0.0000
     14 H14         29.2007  34.8861  40.9934 H              1 <1>                0.0000
     15 H15         28.5739  38.1000  38.9528 H              1 <1>                0.0000
@<TRIPOS>BOND
    1    1    2 1     
    2    1   11 1     
    3    1   12 1     
    4    1   13 1     
    5    2    3 1     
    6    3    4 1     
    7    3    9 2     
    8    4    5 1     
    9    5    6 1     
   10    5    8 2     
   11    6    7 2     
   12    6   14 1     
   13    8    9 1     
   14    8   15 1     
   15    9   10 1     
@<TRIPOS>SUBSTRUCTURE
      1 ****           1
@<TRIPOS>COMMENT
> <Gold.Version>
2022.2.0

> <Gold.Id.Protein>
1qkm|1qkm_protein|mol2

> <Gold.Protein.RotatedTorsions>
[  496  491  490  487 ] final  -85.34 input  -89.99 | X-H torsion

> <Gold.Protein.ActiveResidues>
 MET295  LEU298  THR299  LEU301  ALA302  GLU305  TRP335  MET336  LEU339  MET340 
 GLY342  LEU343  ARG346  PHE356  ILE373  ILE376  PHE377  LEU380  LYS471  GLY472 
 MET473  HIS475  LEU476  LEU477  ASN478  MET479  VAL484  VAL487 

> <Gold.Protein.RotatedAtoms>
   36.7144   34.6812   41.1364 H   0  0  0  0  0  0  0  0  0  0  0  0  # atno 496  bound_to 491 

> <Gold.Score>
     Score     S(PLP)   S(hbond)     S(cho)   S(metal)  DE(clash)   DE(tors)     intcor
     31.87     -31.87       0.00       0.00       0.00       0.00       0.00       0.00

> <Gold.PLP.Fitness>
31.8678

> <Gold.PLP.PLP>
-31.8682

> <Gold.PLP.part.hbond>
0.0000

> <Gold.PLP.part.metal>
0.0000

> <Gold.PLP.part.buried>
-2.6221

> <Gold.PLP.part.nonpolar>
-30.1033

> <Gold.PLP.part.repulsive>
0.0924

> <Gold.PLP.ligand.clash>
0.0000

> <Gold.PLP.ligand.torsion>
0.0002

> <Gold.PLP.Chemscore.Hbond>
0.0000

> <Gold.PLP.Chemscore.CHOScore>
0.0000

> <Gold.PLP.Chemscore.Metal>
0.0000

> <Gold.PLP.Chemscore.Internal.Correction>
0.0001

