#       Name:                EN300-114233_i001
#       Creating user name   aseyller
#       Creation time:       Fri Apr 21 18:23:46 2023


#       File generated by GOLD software.
#

@<TRIPOS>MOLECULE
EN300-114233_i001|benzaldehydes|mol2|523|dock10
    15    15     1
SMALL
USER_CHARGES


@<TRIPOS>ATOM
      1 C1          29.5165  36.9678  39.8116 C.3            1 <1>                0.0000
      2 O2          30.2853  35.8365  39.3984 O.3            1 <1>                0.0000
      3 C3          31.0559  35.9866  38.2943 C.2            1 <1>                0.0000
      4 S4          31.2510  37.4509  37.4410 S.3            1 <1>                0.0000
      5 C5          32.3324  36.6910  36.2820 C.2            1 <1>                0.0000
      6 C6          32.9438  37.3388  35.1944 C.2            1 <1>                0.0000
      7 O7          33.5961  36.6981  34.3938 O.2            1 <1>                0.0000
      8 C8          32.4868  35.3646  36.6065 C.2            1 <1>                0.0000
      9 C9          31.7836  34.9916  37.7193 C.2            1 <1>                0.0000
     10 Br10        31.8101  33.2264  38.3970 Br             1 <1>                0.0000
     11 H11         28.9466  36.7131  40.7053 H              1 <1>                0.0000
     12 H12         30.1846  37.8005  40.0317 H              1 <1>                0.0000
     13 H13         28.8315  37.2529  39.0129 H              1 <1>                0.0000
     14 H14         32.8339  38.4060  35.0704 H              1 <1>                0.0000
     15 H15         33.1060  34.6841  36.0407 H              1 <1>                0.0000
@<TRIPOS>BOND
    1    1    2 1     
    2    1   11 1     
    3    1   12 1     
    4    1   13 1     
    5    2    3 1     
    6    3    4 1     
    7    3    9 2     
    8    4    5 1     
    9    5    6 1     
   10    5    8 2     
   11    6    7 2     
   12    6   14 1     
   13    8    9 1     
   14    8   15 1     
   15    9   10 1     
@<TRIPOS>SUBSTRUCTURE
      1 ****           1
@<TRIPOS>COMMENT
> <Gold.Version>
2022.2.0

> <Gold.Id.Protein>
1qkm|1qkm_protein|mol2

> <Gold.Protein.RotatedTorsions>
[  496  491  490  487 ] final -111.20 input  -89.99 | X-H torsion

> <Gold.Protein.ActiveResidues>
 MET295  LEU298  THR299  LEU301  ALA302  GLU305  TRP335  MET336  LEU339  MET340 
 GLY342  LEU343  ARG346  PHE356  ILE373  ILE376  PHE377  LEU380  LYS471  GLY472 
 MET473  HIS475  LEU476  LEU477  ASN478  MET479  VAL484  VAL487 

> <Gold.Protein.RotatedAtoms>
   36.9508   34.4621   40.8637 H   0  0  0  0  0  0  0  0  0  0  0  0  # atno 496  bound_to 491 

> <Gold.Score>
     Score     S(PLP)   S(hbond)     S(cho)   S(metal)  DE(clash)   DE(tors)     intcor
     33.96     -34.01       0.00       0.00       0.00       0.00       0.03       0.00

> <Gold.PLP.Fitness>
33.9574

> <Gold.PLP.PLP>
-34.0098

> <Gold.PLP.part.hbond>
-0.0848

> <Gold.PLP.part.metal>
0.0000

> <Gold.PLP.part.buried>
-3.8584

> <Gold.PLP.part.nonpolar>
-30.8347

> <Gold.PLP.part.repulsive>
0.9249

> <Gold.PLP.ligand.clash>
0.0000

> <Gold.PLP.ligand.torsion>
0.0262

> <Gold.PLP.Chemscore.Hbond>
0.0000

> <Gold.PLP.Chemscore.CHOScore>
0.0000

> <Gold.PLP.Chemscore.Metal>
0.0000

> <Gold.PLP.Chemscore.Internal.Correction>
0.0001

