#       Name:                EN300-114233_i001
#       Creating user name   aseyller
#       Creation time:       Fri Apr 21 18:23:46 2023


#       File generated by GOLD software.
#

@<TRIPOS>MOLECULE
EN300-114233_i001|benzaldehydes|mol2|523|dock9
    15    15     1
SMALL
USER_CHARGES


@<TRIPOS>ATOM
      1 C1          28.4968  36.4020  41.6242 C.3            1 <1>                0.0000
      2 O2          28.9577  35.8107  40.4077 O.3            1 <1>                0.0000
      3 C3          28.8992  36.5757  39.2912 C.2            1 <1>                0.0000
      4 S4          30.2575  37.0832  38.3923 S.3            1 <1>                0.0000
      5 C5          29.2410  37.9433  37.2447 C.2            1 <1>                0.0000
      6 C6          29.7034  38.6655  36.1308 C.2            1 <1>                0.0000
      7 O7          30.8856  38.6570  35.8490 O.2            1 <1>                0.0000
      8 C8          27.9233  37.7982  37.6070 C.2            1 <1>                0.0000
      9 C9          27.7491  37.0385  38.7315 C.2            1 <1>                0.0000
     10 Br10        26.0425  36.6721  39.4592 Br             1 <1>                0.0000
     11 H11         28.5983  35.6844  42.4383 H              1 <1>                0.0000
     12 H12         29.0909  37.2888  41.8452 H              1 <1>                0.0000
     13 H13         27.4493  36.6841  41.5169 H              1 <1>                0.0000
     14 H14         29.0081  39.2281  35.5254 H              1 <1>                0.0000
     15 H15         27.1051  38.2375  37.0556 H              1 <1>                0.0000
@<TRIPOS>BOND
    1    1    2 1     
    2    1   11 1     
    3    1   12 1     
    4    1   13 1     
    5    2    3 1     
    6    3    4 1     
    7    3    9 2     
    8    4    5 1     
    9    5    6 1     
   10    5    8 2     
   11    6    7 2     
   12    6   14 1     
   13    8    9 1     
   14    8   15 1     
   15    9   10 1     
@<TRIPOS>SUBSTRUCTURE
      1 ****           1
@<TRIPOS>COMMENT
> <Gold.Version>
2022.2.0

> <Gold.Id.Protein>
1qkm|1qkm_protein|mol2

> <Gold.Protein.RotatedTorsions>
[  496  491  490  487 ] final  -22.79 input  -89.99 | X-H torsion

> <Gold.Protein.ActiveResidues>
 MET295  LEU298  THR299  LEU301  ALA302  GLU305  TRP335  MET336  LEU339  MET340 
 GLY342  LEU343  ARG346  PHE356  ILE373  ILE376  PHE377  LEU380  LYS471  GLY472 
 MET473  HIS475  LEU476  LEU477  ASN478  MET479  VAL484  VAL487 

> <Gold.Protein.RotatedAtoms>
   36.2888   34.5003   41.9996 H   0  0  0  0  0  0  0  0  0  0  0  0  # atno 496  bound_to 491 

> <Gold.Score>
     Score     S(PLP)   S(hbond)     S(cho)   S(metal)  DE(clash)   DE(tors)     intcor
     33.46     -33.50       0.00       0.00       0.00       0.00       0.02       0.00

> <Gold.PLP.Fitness>
33.4616

> <Gold.PLP.PLP>
-33.5023

> <Gold.PLP.part.hbond>
0.0000

> <Gold.PLP.part.metal>
0.0000

> <Gold.PLP.part.buried>
-2.6082

> <Gold.PLP.part.nonpolar>
-31.0985

> <Gold.PLP.part.repulsive>
0.1038

> <Gold.PLP.ligand.clash>
0.0000

> <Gold.PLP.ligand.torsion>
0.0204

> <Gold.PLP.Chemscore.Hbond>
0.0000

> <Gold.PLP.Chemscore.CHOScore>
0.0000

> <Gold.PLP.Chemscore.Metal>
0.0000

> <Gold.PLP.Chemscore.Internal.Correction>
0.0001

