#       Name:                EN300-114233_i001
#       Creating user name   aseyller
#       Creation time:       Fri Apr 21 18:23:44 2023


#       File generated by GOLD software.
#

@<TRIPOS>MOLECULE
EN300-114233_i001|benzaldehydes|mol2|523|dock3
    15    15     1
SMALL
USER_CHARGES


@<TRIPOS>ATOM
      1 C1          31.5364  37.6203  34.9955 C.3            1 <1>                0.0000
      2 O2          31.4076  38.2359  36.2786 O.3            1 <1>                0.0000
      3 C3          31.0049  37.4453  37.3024 C.2            1 <1>                0.0000
      4 S4          29.5721  37.6765  38.1991 S.3            1 <1>                0.0000
      5 C5          29.9126  36.2736  39.2022 C.2            1 <1>                0.0000
      6 C6          29.0998  35.8063  40.2496 C.2            1 <1>                0.0000
      7 O7          28.1115  36.4328  40.5779 O.2            1 <1>                0.0000
      8 C8          31.0977  35.7050  38.8010 C.2            1 <1>                0.0000
      9 C9          31.6853  36.3563  37.7510 C.2            1 <1>                0.0000
     10 Br10        33.3234  35.7942  36.9915 Br             1 <1>                0.0000
     11 H11         31.8648  38.3623  34.2678 H              1 <1>                0.0000
     12 H12         32.2698  36.8157  35.0504 H              1 <1>                0.0000
     13 H13         30.5727  37.2130  34.6896 H              1 <1>                0.0000
     14 H14         29.3536  34.8905  40.7627 H              1 <1>                0.0000
     15 H15         31.5216  34.8275  39.2665 H              1 <1>                0.0000
@<TRIPOS>BOND
    1    1    2 1     
    2    1   11 1     
    3    1   12 1     
    4    1   13 1     
    5    2    3 1     
    6    3    4 1     
    7    3    9 2     
    8    4    5 1     
    9    5    6 1     
   10    5    8 2     
   11    6    7 2     
   12    6   14 1     
   13    8    9 1     
   14    8   15 1     
   15    9   10 1     
@<TRIPOS>SUBSTRUCTURE
      1 ****           1
@<TRIPOS>COMMENT
> <Gold.Version>
2022.2.0

> <Gold.Id.Protein>
1qkm|1qkm_protein|mol2

> <Gold.Protein.RotatedTorsions>
[  496  491  490  487 ] final   65.62 input  -89.99 | X-H torsion

> <Gold.Protein.ActiveResidues>
 MET295  LEU298  THR299  LEU301  ALA302  GLU305  TRP335  MET336  LEU339  MET340 
 GLY342  LEU343  ARG346  PHE356  ILE373  ILE376  PHE377  LEU380  LYS471  GLY472 
 MET473  HIS475  LEU476  LEU477  ASN478  MET479  VAL484  VAL487 

> <Gold.Protein.RotatedAtoms>
   36.5990   33.2499   42.2646 H   0  0  0  0  0  0  0  0  0  0  0  0  # atno 496  bound_to 491 

> <Gold.Score>
     Score     S(PLP)   S(hbond)     S(cho)   S(metal)  DE(clash)   DE(tors)     intcor
     31.73     -31.74       0.00       0.00       0.00       0.00       0.01       0.00

> <Gold.PLP.Fitness>
31.7267

> <Gold.PLP.PLP>
-31.7418

> <Gold.PLP.part.hbond>
0.0000

> <Gold.PLP.part.metal>
0.0000

> <Gold.PLP.part.buried>
-2.5735

> <Gold.PLP.part.nonpolar>
-29.8895

> <Gold.PLP.part.repulsive>
0.0787

> <Gold.PLP.ligand.clash>
0.0000

> <Gold.PLP.ligand.torsion>
0.0076

> <Gold.PLP.Chemscore.Hbond>
0.0000

> <Gold.PLP.Chemscore.CHOScore>
0.0000

> <Gold.PLP.Chemscore.Metal>
0.0000

> <Gold.PLP.Chemscore.Internal.Correction>
0.0001

