#       Name:                EN300-114233_i001
#       Creating user name   aseyller
#       Creation time:       Fri Apr 21 18:23:48 2023


#       File generated by GOLD software.
#

@<TRIPOS>MOLECULE
EN300-114233_i001|benzaldehydes|mol2|523|dock13
    15    15     1
SMALL
USER_CHARGES


@<TRIPOS>ATOM
      1 C1          28.5006  36.0240  42.0696 C.3            1 <1>                0.0000
      2 O2          28.0018  35.6105  40.7960 O.3            1 <1>                0.0000
      3 C3          28.4537  36.2835  39.7105 C.2            1 <1>                0.0000
      4 S4          30.0849  36.3369  39.2138 S.3            1 <1>                0.0000
      5 C5          29.6869  37.3609  37.8414 C.2            1 <1>                0.0000
      6 C6          30.6072  37.8505  36.8982 C.2            1 <1>                0.0000
      7 O7          31.7625  37.4741  36.9242 O.2            1 <1>                0.0000
      8 C8          28.3349  37.6069  37.8349 C.2            1 <1>                0.0000
      9 C9          27.6674  37.0032  38.8656 C.2            1 <1>                0.0000
     10 Br10        25.7989  37.1685  39.1048 Br             1 <1>                0.0000
     11 H11         28.0599  35.4048  42.8509 H              1 <1>                0.0000
     12 H12         29.5850  35.9152  42.0879 H              1 <1>                0.0000
     13 H13         28.2373  37.0678  42.2414 H              1 <1>                0.0000
     14 H14         30.2876  38.5612  36.1505 H              1 <1>                0.0000
     15 H15         27.8464  38.2140  37.0871 H              1 <1>                0.0000
@<TRIPOS>BOND
    1    1    2 1     
    2    1   11 1     
    3    1   12 1     
    4    1   13 1     
    5    2    3 1     
    6    3    4 1     
    7    3    9 2     
    8    4    5 1     
    9    5    6 1     
   10    5    8 2     
   11    6    7 2     
   12    6   14 1     
   13    8    9 1     
   14    8   15 1     
   15    9   10 1     
@<TRIPOS>SUBSTRUCTURE
      1 ****           1
@<TRIPOS>COMMENT
> <Gold.Version>
2022.2.0

> <Gold.Id.Protein>
1qkm|1qkm_protein|mol2

> <Gold.Protein.RotatedTorsions>
[  496  491  490  487 ] final  169.85 input  -89.99 | X-H torsion

> <Gold.Protein.ActiveResidues>
 MET295  LEU298  THR299  LEU301  ALA302  GLU305  TRP335  MET336  LEU339  MET340 
 GLY342  LEU343  ARG346  PHE356  ILE373  ILE376  PHE377  LEU380  LYS471  GLY472 
 MET473  HIS475  LEU476  LEU477  ASN478  MET479  VAL484  VAL487 

> <Gold.Protein.RotatedAtoms>
   37.3151   33.3238   40.9614 H   0  0  0  0  0  0  0  0  0  0  0  0  # atno 496  bound_to 491 

> <Gold.Score>
     Score     S(PLP)   S(hbond)     S(cho)   S(metal)  DE(clash)   DE(tors)     intcor
     32.88     -32.91       0.00       0.00       0.00       0.00       0.02       0.00

> <Gold.PLP.Fitness>
32.8815

> <Gold.PLP.PLP>
-32.9115

> <Gold.PLP.part.hbond>
0.0000

> <Gold.PLP.part.metal>
0.0000

> <Gold.PLP.part.buried>
-2.5044

> <Gold.PLP.part.nonpolar>
-30.1262

> <Gold.PLP.part.repulsive>
0.1168

> <Gold.PLP.ligand.clash>
0.0000

> <Gold.PLP.ligand.torsion>
0.0150

> <Gold.PLP.Chemscore.Hbond>
0.0000

> <Gold.PLP.Chemscore.CHOScore>
0.0000

> <Gold.PLP.Chemscore.Metal>
0.0000

> <Gold.PLP.Chemscore.Internal.Correction>
0.0001

