#       Name:                EN300-114233_i001
#       Creating user name   aseyller
#       Creation time:       Fri Apr 21 18:23:43 2023


#       File generated by GOLD software.
#

@<TRIPOS>MOLECULE
EN300-114233_i001|benzaldehydes|mol2|523|dock1
    15    15     1
SMALL
USER_CHARGES


@<TRIPOS>ATOM
      1 C1          31.5041  34.3766  38.7902 C.3            1 <1>                0.0000
      2 O2          31.3784  35.7999  38.7745 O.3            1 <1>                0.0000
      3 C3          30.1269  36.3056  38.6596 C.2            1 <1>                0.0000
      4 S4          28.8246  35.9113  39.6888 S.3            1 <1>                0.0000
      5 C5          27.7387  36.9764  38.8075 C.2            1 <1>                0.0000
      6 C6          26.3814  37.1842  39.1090 C.2            1 <1>                0.0000
      7 O7          25.9414  36.8507  40.1917 O.2            1 <1>                0.0000
      8 C8          28.4251  37.5744  37.7781 C.2            1 <1>                0.0000
      9 C9          29.7397  37.2010  37.7118 C.2            1 <1>                0.0000
     10 Br10        30.9229  37.8672  36.3957 Br             1 <1>                0.0000
     11 H11         32.5555  34.1057  38.8862 H              1 <1>                0.0000
     12 H12         30.9460  33.9717  39.6344 H              1 <1>                0.0000
     13 H13         31.1066  33.9665  37.8617 H              1 <1>                0.0000
     14 H14         25.7297  37.6402  38.3785 H              1 <1>                0.0000
     15 H15         27.9721  38.2740  37.0911 H              1 <1>                0.0000
@<TRIPOS>BOND
    1    1    2 1     
    2    1   11 1     
    3    1   12 1     
    4    1   13 1     
    5    2    3 1     
    6    3    4 1     
    7    3    9 2     
    8    4    5 1     
    9    5    6 1     
   10    5    8 2     
   11    6    7 2     
   12    6   14 1     
   13    8    9 1     
   14    8   15 1     
   15    9   10 1     
@<TRIPOS>SUBSTRUCTURE
      1 ****           1
@<TRIPOS>COMMENT
> <Gold.Version>
2022.2.0

> <Gold.Id.Protein>
1qkm|1qkm_protein|mol2

> <Gold.Protein.RotatedTorsions>
[  496  491  490  487 ] final  126.64 input  -89.99 | X-H torsion

> <Gold.Protein.ActiveResidues>
 MET295  LEU298  THR299  LEU301  ALA302  GLU305  TRP335  MET336  LEU339  MET340 
 GLY342  LEU343  ARG346  PHE356  ILE373  ILE376  PHE377  LEU380  LYS471  GLY472 
 MET473  HIS475  LEU476  LEU477  ASN478  MET479  VAL484  VAL487 

> <Gold.Protein.RotatedAtoms>
   37.1298   32.9588   41.5224 H   0  0  0  0  0  0  0  0  0  0  0  0  # atno 496  bound_to 491 

> <Gold.Score>
     Score     S(PLP)   S(hbond)     S(cho)   S(metal)  DE(clash)   DE(tors)     intcor
     31.87     -32.05       0.00       0.00       0.00       0.00       0.09       0.00

> <Gold.PLP.Fitness>
31.8654

> <Gold.PLP.PLP>
-32.0461

> <Gold.PLP.part.hbond>
0.0000

> <Gold.PLP.part.metal>
0.0000

> <Gold.PLP.part.buried>
-2.5476

> <Gold.PLP.part.nonpolar>
-29.5250

> <Gold.PLP.part.repulsive>
0.1994

> <Gold.PLP.ligand.clash>
0.0000

> <Gold.PLP.ligand.torsion>
0.0904

> <Gold.PLP.Chemscore.Hbond>
0.0000

> <Gold.PLP.Chemscore.CHOScore>
0.0000

> <Gold.PLP.Chemscore.Metal>
0.0000

> <Gold.PLP.Chemscore.Internal.Correction>
0.0001

