#       Name:                EN300-114233_i001
#       Creating user name   aseyller
#       Creation time:       Fri Apr 21 18:23:47 2023


#       File generated by GOLD software.
#

@<TRIPOS>MOLECULE
EN300-114233_i001|benzaldehydes|mol2|523|dock12
    15    15     1
SMALL
USER_CHARGES


@<TRIPOS>ATOM
      1 C1          26.7255  36.5923  38.5118 C.3            1 <1>                0.0000
      2 O2          27.7797  37.5083  38.2096 O.3            1 <1>                0.0000
      3 C3          29.0436  37.0211  38.2337 C.2            1 <1>                0.0000
      4 S4          30.1476  37.1274  36.9374 S.3            1 <1>                0.0000
      5 C5          31.3878  36.2873  37.8575 C.2            1 <1>                0.0000
      6 C6          32.6806  35.9867  37.3942 C.2            1 <1>                0.0000
      7 O7          33.0281  36.3462  36.2864 O.2            1 <1>                0.0000
      8 C8          30.8954  35.9713  39.1009 C.2            1 <1>                0.0000
      9 C9          29.6063  36.3860  39.2968 C.2            1 <1>                0.0000
     10 Br10        28.6746  36.0870  40.9149 Br             1 <1>                0.0000
     11 H11         25.7677  37.1099  38.4574 H              1 <1>                0.0000
     12 H12         26.7377  35.7739  37.7919 H              1 <1>                0.0000
     13 H13         26.8669  36.1944  39.5167 H              1 <1>                0.0000
     14 H14         33.3650  35.4363  38.0226 H              1 <1>                0.0000
     15 H15         31.4710  35.4501  39.8516 H              1 <1>                0.0000
@<TRIPOS>BOND
    1    1    2 1     
    2    1   11 1     
    3    1   12 1     
    4    1   13 1     
    5    2    3 1     
    6    3    4 1     
    7    3    9 2     
    8    4    5 1     
    9    5    6 1     
   10    5    8 2     
   11    6    7 2     
   12    6   14 1     
   13    8    9 1     
   14    8   15 1     
   15    9   10 1     
@<TRIPOS>SUBSTRUCTURE
      1 ****           1
@<TRIPOS>COMMENT
> <Gold.Version>
2022.2.0

> <Gold.Id.Protein>
1qkm|1qkm_protein|mol2

> <Gold.Protein.RotatedTorsions>
[  496  491  490  487 ] final  121.70 input  -89.99 | X-H torsion

> <Gold.Protein.ActiveResidues>
 MET295  LEU298  THR299  LEU301  ALA302  GLU305  TRP335  MET336  LEU339  MET340 
 GLY342  LEU343  ARG346  PHE356  ILE373  ILE376  PHE377  LEU380  LYS471  GLY472 
 MET473  HIS475  LEU476  LEU477  ASN478  MET479  VAL484  VAL487 

> <Gold.Protein.RotatedAtoms>
   37.0936   32.9461   41.5941 H   0  0  0  0  0  0  0  0  0  0  0  0  # atno 496  bound_to 491 

> <Gold.Score>
     Score     S(PLP)   S(hbond)     S(cho)   S(metal)  DE(clash)   DE(tors)     intcor
     32.53     -32.58       0.00       0.00       0.00       0.00       0.02       0.00

> <Gold.PLP.Fitness>
32.5315

> <Gold.PLP.PLP>
-32.5810

> <Gold.PLP.part.hbond>
0.0000

> <Gold.PLP.part.metal>
0.0000

> <Gold.PLP.part.buried>
-1.7737

> <Gold.PLP.part.nonpolar>
-30.3752

> <Gold.PLP.part.repulsive>
0.0273

> <Gold.PLP.ligand.clash>
0.0000

> <Gold.PLP.ligand.torsion>
0.0248

> <Gold.PLP.Chemscore.Hbond>
0.0000

> <Gold.PLP.Chemscore.CHOScore>
0.0000

> <Gold.PLP.Chemscore.Metal>
0.0000

> <Gold.PLP.Chemscore.Internal.Correction>
0.0001

