#       Name:                EN300-24518_i001
#       Creating user name   aseyller
#       Creation time:       Fri Apr 21 18:48:27 2023


#       File generated by GOLD software.
#

@<TRIPOS>MOLECULE
EN300-24518_i001|benzaldehydes|mol2|632|dock7
    23    24     1
SMALL
USER_CHARGES


@<TRIPOS>ATOM
      1 O1          29.6735  39.3465  37.4519 O.2            1 <1>                0.0000
      2 N2          30.1367  38.4686  36.7460 N.pl3          1 <1>                0.0000
      3 O3          29.9759  38.5092  35.5393 O.2            1 <1>                0.0000
      4 C4          30.9000  37.3557  37.3540 C.ar           1 <1>                0.0000
      5 C5          32.2086  37.1292  36.9799 C.ar           1 <1>                0.0000
      6 C6          32.9236  36.0898  37.5475 C.ar           1 <1>                0.0000
      7 C7          32.3325  35.2703  38.4932 C.ar           1 <1>                0.0000
      8 C8          31.0252  35.4856  38.8763 C.ar           1 <1>                0.0000
      9 C9          30.2995  36.5364  38.3116 C.ar           1 <1>                0.0000
     10 C10         28.8988  36.7733  38.7174 C.2            1 <1>                0.0000
     11 C11         27.9175  37.2688  37.9051 C.2            1 <1>                0.0000
     12 C12         26.6953  37.4026  38.4986 C.2            1 <1>                0.0000
     13 C13         26.6525  37.0174  39.8146 C.2            1 <1>                0.0000
     14 C14         25.5079  37.0622  40.6383 C.2            1 <1>                0.0000
     15 O15         25.6286  37.2035  41.8387 O.2            1 <1>                0.0000
     16 S16         28.2406  36.4532  40.3161 S.3            1 <1>                0.0000
     17 H17         32.6756  37.7646  36.2420 H              1 <1>                0.0000
     18 H18         33.9476  35.9169  37.2511 H              1 <1>                0.0000
     19 H19         32.8962  34.4602  38.9319 H              1 <1>                0.0000
     20 H20         30.5650  34.8452  39.6144 H              1 <1>                0.0000
     21 H21         28.0953  37.5343  36.8734 H              1 <1>                0.0000
     22 H22         25.8309  37.7820  37.9739 H              1 <1>                0.0000
     23 H23         24.5244  36.9709  40.2015 H              1 <1>                0.0000
@<TRIPOS>BOND
    1    1    2 2     
    2    2    3 2     
    3    2    4 1     
    4    4    5 ar    
    5    4    9 ar    
    6    5    6 ar    
    7    5   17 1     
    8    6    7 ar    
    9    6   18 1     
   10    7    8 ar    
   11    7   19 1     
   12    8    9 ar    
   13    8   20 1     
   14    9   10 1     
   15   10   11 2     
   16   10   16 1     
   17   11   12 1     
   18   11   21 1     
   19   12   13 2     
   20   12   22 1     
   21   13   14 1     
   22   13   16 1     
   23   14   15 2     
   24   14   23 1     
@<TRIPOS>SUBSTRUCTURE
      1 ****           1
@<TRIPOS>COMMENT
> <Gold.Version>
2022.2.0

> <Gold.Id.Protein>
1qkm|1qkm_protein|mol2

> <Gold.Protein.RotatedTorsions>
[  496  491  490  487 ] final  169.07 input  -89.99 | X-H torsion

> <Gold.Protein.ActiveResidues>
 MET295  LEU298  THR299  LEU301  ALA302  GLU305  TRP335  MET336  LEU339  MET340 
 GLY342  LEU343  ARG346  PHE356  ILE373  ILE376  PHE377  LEU380  LYS471  GLY472 
 MET473  HIS475  LEU476  LEU477  ASN478  MET479  VAL484  VAL487 

> <Gold.Protein.RotatedAtoms>
   37.3142   33.3138   40.9695 H   0  0  0  0  0  0  0  0  0  0  0  0  # atno 496  bound_to 491 

> <Gold.Score>
     Score     S(PLP)   S(hbond)     S(cho)   S(metal)  DE(clash)   DE(tors)     intcor
     52.28     -52.79       0.03       0.00       0.00       0.00       1.68       2.78

> <Gold.PLP.Fitness>
52.2763

> <Gold.PLP.PLP>
-52.7906

> <Gold.PLP.part.hbond>
-1.0000

> <Gold.PLP.part.metal>
0.0000

> <Gold.PLP.part.buried>
-4.3546

> <Gold.PLP.part.nonpolar>
-49.2464

> <Gold.PLP.part.repulsive>
0.2363

> <Gold.PLP.ligand.clash>
0.0000

> <Gold.PLP.ligand.torsion>
1.6838

> <Gold.PLP.Chemscore.Hbond>
0.0255

> <Gold.PLP.Chemscore.CHOScore>
0.0000

> <Gold.PLP.Chemscore.Metal>
0.0000

> <Gold.Chemscore.Hbonds>
donor molecule, donor type, donor heavy atom, donor atom, acceptor molecule, acceptor atom, score
      P1  H  1258  1270       L1    15  0.03

> <Gold.PLP.Chemscore.Internal.Correction>
2.7769

