#       Name:                EN300-24518_i001
#       Creating user name   aseyller
#       Creation time:       Fri Apr 21 18:48:36 2023


#       File generated by GOLD software.
#

@<TRIPOS>MOLECULE
EN300-24518_i001|benzaldehydes|mol2|632|dock19
    23    24     1
SMALL
USER_CHARGES


@<TRIPOS>ATOM
      1 O1          30.7099  39.7193  36.1879 O.2            1 <1>                0.0000
      2 N2          30.4827  38.5227  36.1960 N.pl3          1 <1>                0.0000
      3 O3          29.3329  38.1213  36.2165 O.2            1 <1>                0.0000
      4 C4          31.6037  37.5564  36.1751 C.ar           1 <1>                0.0000
      5 C5          32.5460  37.6122  35.1688 C.ar           1 <1>                0.0000
      6 C6          33.5947  36.7101  35.1481 C.ar           1 <1>                0.0000
      7 C7          33.7062  35.7462  36.1348 C.ar           1 <1>                0.0000
      8 C8          32.7713  35.6793  37.1466 C.ar           1 <1>                0.0000
      9 C9          31.7134  36.5903  37.1768 C.ar           1 <1>                0.0000
     10 C10         30.7084  36.5249  38.2578 C.2            1 <1>                0.0000
     11 C11         30.0802  37.6039  38.8141 C.2            1 <1>                0.0000
     12 C12         29.1863  37.3010  39.8006 C.2            1 <1>                0.0000
     13 C13         29.0651  35.9617  40.0720 C.2            1 <1>                0.0000
     14 C14         28.2094  35.4033  41.0449 C.2            1 <1>                0.0000
     15 O15         27.1012  35.8694  41.2185 O.2            1 <1>                0.0000
     16 S16         30.1344  35.0468  39.0177 S.3            1 <1>                0.0000
     17 H17         32.4644  38.3615  34.3954 H              1 <1>                0.0000
     18 H18         34.3295  36.7582  34.3580 H              1 <1>                0.0000
     19 H19         34.5270  35.0446  36.1123 H              1 <1>                0.0000
     20 H20         32.8594  34.9265  37.9161 H              1 <1>                0.0000
     21 H21         30.2760  38.6179  38.4980 H              1 <1>                0.0000
     22 H22         28.6199  38.0557  40.3258 H              1 <1>                0.0000
     23 H23         28.5396  34.5613  41.6353 H              1 <1>                0.0000
@<TRIPOS>BOND
    1    1    2 2     
    2    2    3 2     
    3    2    4 1     
    4    4    5 ar    
    5    4    9 ar    
    6    5    6 ar    
    7    5   17 1     
    8    6    7 ar    
    9    6   18 1     
   10    7    8 ar    
   11    7   19 1     
   12    8    9 ar    
   13    8   20 1     
   14    9   10 1     
   15   10   11 2     
   16   10   16 1     
   17   11   12 1     
   18   11   21 1     
   19   12   13 2     
   20   12   22 1     
   21   13   14 1     
   22   13   16 1     
   23   14   15 2     
   24   14   23 1     
@<TRIPOS>SUBSTRUCTURE
      1 ****           1
@<TRIPOS>COMMENT
> <Gold.Version>
2022.2.0

> <Gold.Id.Protein>
1qkm|1qkm_protein|mol2

> <Gold.Protein.RotatedTorsions>
[  496  491  490  487 ] final   21.32 input  -89.99 | X-H torsion

> <Gold.Protein.ActiveResidues>
 MET295  LEU298  THR299  LEU301  ALA302  GLU305  TRP335  MET336  LEU339  MET340 
 GLY342  LEU343  ARG346  PHE356  ILE373  ILE376  PHE377  LEU380  LYS471  GLY472 
 MET473  HIS475  LEU476  LEU477  ASN478  MET479  VAL484  VAL487 

> <Gold.Protein.RotatedAtoms>
   36.3074   33.8913   42.3610 H   0  0  0  0  0  0  0  0  0  0  0  0  # atno 496  bound_to 491 

> <Gold.Score>
     Score     S(PLP)   S(hbond)     S(cho)   S(metal)  DE(clash)   DE(tors)     intcor
     47.27     -48.11       0.00       0.00       0.00       0.00       1.81       2.78

> <Gold.PLP.Fitness>
47.2696

> <Gold.PLP.PLP>
-48.1148

> <Gold.PLP.part.hbond>
0.0000

> <Gold.PLP.part.metal>
0.0000

> <Gold.PLP.part.buried>
-4.8639

> <Gold.PLP.part.nonpolar>
-44.3322

> <Gold.PLP.part.repulsive>
0.5663

> <Gold.PLP.ligand.clash>
0.0000

> <Gold.PLP.ligand.torsion>
1.8110

> <Gold.PLP.Chemscore.Hbond>
0.0000

> <Gold.PLP.Chemscore.CHOScore>
0.0000

> <Gold.PLP.Chemscore.Metal>
0.0000

> <Gold.PLP.Chemscore.Internal.Correction>
2.7769

