#       Name:                EN300-24518_i001
#       Creating user name   aseyller
#       Creation time:       Fri Apr 21 18:48:37 2023


#       File generated by GOLD software.
#

@<TRIPOS>MOLECULE
EN300-24518_i001|benzaldehydes|mol2|632|dock20
    23    24     1
SMALL
USER_CHARGES


@<TRIPOS>ATOM
      1 O1          27.9460  36.9771  37.0234 O.2            1 <1>                0.0000
      2 N2          27.3657  37.6410  37.8638 N.pl3          1 <1>                0.0000
      3 O3          26.9887  38.7677  37.5959 O.2            1 <1>                0.0000
      4 C4          27.1135  37.0761  39.2085 C.ar           1 <1>                0.0000
      5 C5          25.8994  37.2849  39.8296 C.ar           1 <1>                0.0000
      6 C6          25.6618  36.7573  41.0862 C.ar           1 <1>                0.0000
      7 C7          26.6389  36.0174  41.7289 C.ar           1 <1>                0.0000
      8 C8          27.8571  35.8009  41.1194 C.ar           1 <1>                0.0000
      9 C9          28.1015  36.3258  39.8487 C.ar           1 <1>                0.0000
     10 C10         29.4038  36.0977  39.1895 C.2            1 <1>                0.0000
     11 C11         30.0621  34.9007  39.1414 C.2            1 <1>                0.0000
     12 C12         31.2535  34.9280  38.4752 C.2            1 <1>                0.0000
     13 C13         31.5949  36.1540  37.9627 C.2            1 <1>                0.0000
     14 C14         32.7727  36.4329  37.2377 C.2            1 <1>                0.0000
     15 O15         33.4676  35.5219  36.8342 O.2            1 <1>                0.0000
     16 S16         30.3374  37.3230  38.3419 S.3            1 <1>                0.0000
     17 H17         25.1328  37.8620  39.3338 H              1 <1>                0.0000
     18 H18         24.7096  36.9238  41.5679 H              1 <1>                0.0000
     19 H19         26.4472  35.6089  42.7101 H              1 <1>                0.0000
     20 H20         28.6188  35.2234  41.6222 H              1 <1>                0.0000
     21 H21         29.6702  34.0026  39.5956 H              1 <1>                0.0000
     22 H22         31.8777  34.0542  38.3611 H              1 <1>                0.0000
     23 H23         33.0564  37.4562  37.0414 H              1 <1>                0.0000
@<TRIPOS>BOND
    1    1    2 2     
    2    2    3 2     
    3    2    4 1     
    4    4    5 ar    
    5    4    9 ar    
    6    5    6 ar    
    7    5   17 1     
    8    6    7 ar    
    9    6   18 1     
   10    7    8 ar    
   11    7   19 1     
   12    8    9 ar    
   13    8   20 1     
   14    9   10 1     
   15   10   11 2     
   16   10   16 1     
   17   11   12 1     
   18   11   21 1     
   19   12   13 2     
   20   12   22 1     
   21   13   14 1     
   22   13   16 1     
   23   14   15 2     
   24   14   23 1     
@<TRIPOS>SUBSTRUCTURE
      1 ****           1
@<TRIPOS>COMMENT
> <Gold.Version>
2022.2.0

> <Gold.Id.Protein>
1qkm|1qkm_protein|mol2

> <Gold.Protein.RotatedTorsions>
[  496  491  490  487 ] final   94.02 input  -89.99 | X-H torsion

> <Gold.Protein.ActiveResidues>
 MET295  LEU298  THR299  LEU301  ALA302  GLU305  TRP335  MET336  LEU339  MET340 
 GLY342  LEU343  ARG346  PHE356  ILE373  ILE376  PHE377  LEU380  LYS471  GLY472 
 MET473  HIS475  LEU476  LEU477  ASN478  MET479  VAL484  VAL487 

> <Gold.Protein.RotatedAtoms>
   36.8573   32.9976   41.9751 H   0  0  0  0  0  0  0  0  0  0  0  0  # atno 496  bound_to 491 

> <Gold.Score>
     Score     S(PLP)   S(hbond)     S(cho)   S(metal)  DE(clash)   DE(tors)     intcor
     48.43     -48.48       0.00       0.00       0.00       0.00       1.42       2.78

> <Gold.PLP.Fitness>
48.4266

> <Gold.PLP.PLP>
-48.4811

> <Gold.PLP.part.hbond>
0.0000

> <Gold.PLP.part.metal>
0.0000

> <Gold.PLP.part.buried>
3.0092

> <Gold.PLP.part.nonpolar>
-52.6190

> <Gold.PLP.part.repulsive>
0.0000

> <Gold.PLP.ligand.clash>
0.0000

> <Gold.PLP.ligand.torsion>
1.4157

> <Gold.PLP.Chemscore.Hbond>
0.0000

> <Gold.PLP.Chemscore.CHOScore>
0.0000

> <Gold.PLP.Chemscore.Metal>
0.0000

> <Gold.PLP.Chemscore.Internal.Correction>
2.7769

