#       Name:                EN300-24518_i001
#       Creating user name   aseyller
#       Creation time:       Fri Apr 21 18:48:24 2023


#       File generated by GOLD software.
#

@<TRIPOS>MOLECULE
EN300-24518_i001|benzaldehydes|mol2|632|dock3
    23    24     1
SMALL
USER_CHARGES


@<TRIPOS>ATOM
      1 O1          29.7347  38.6635  35.5402 O.2            1 <1>                0.0000
      2 N2          30.0312  38.4249  36.6972 N.pl3          1 <1>                0.0000
      3 O3          29.5603  39.0968  37.5974 O.2            1 <1>                0.0000
      4 C4          30.9589  37.3146  37.0096 C.ar           1 <1>                0.0000
      5 C5          32.1123  37.1487  36.2708 C.ar           1 <1>                0.0000
      6 C6          32.9807  36.1118  36.5618 C.ar           1 <1>                0.0000
      7 C7          32.6994  35.2343  37.5942 C.ar           1 <1>                0.0000
      8 C8          31.5500  35.3887  38.3408 C.ar           1 <1>                0.0000
      9 C9          30.6718  36.4365  38.0562 C.ar           1 <1>                0.0000
     10 C10         29.4389  36.6084  38.8519 C.2            1 <1>                0.0000
     11 C11         29.3559  36.4838  40.2106 C.2            1 <1>                0.0000
     12 C12         28.1098  36.6880  40.7298 C.2            1 <1>                0.0000
     13 C13         27.1443  36.9852  39.8015 C.2            1 <1>                0.0000
     14 C14         25.7868  37.2364  40.0922 C.2            1 <1>                0.0000
     15 O15         25.4157  37.3068  41.2467 O.2            1 <1>                0.0000
     16 S16         27.8586  37.0115  38.1950 S.3            1 <1>                0.0000
     17 H17         32.3375  37.8296  35.4633 H              1 <1>                0.0000
     18 H18         33.8821  35.9865  35.9803 H              1 <1>                0.0000
     19 H19         33.3813  34.4266  37.8157 H              1 <1>                0.0000
     20 H20         31.3315  34.7031  39.1463 H              1 <1>                0.0000
     21 H21         30.2099  36.2420  40.8259 H              1 <1>                0.0000
     22 H22         27.9007  36.6205  41.7872 H              1 <1>                0.0000
     23 H23         25.0774  37.3662  39.2882 H              1 <1>                0.0000
@<TRIPOS>BOND
    1    1    2 2     
    2    2    3 2     
    3    2    4 1     
    4    4    5 ar    
    5    4    9 ar    
    6    5    6 ar    
    7    5   17 1     
    8    6    7 ar    
    9    6   18 1     
   10    7    8 ar    
   11    7   19 1     
   12    8    9 ar    
   13    8   20 1     
   14    9   10 1     
   15   10   11 2     
   16   10   16 1     
   17   11   12 1     
   18   11   21 1     
   19   12   13 2     
   20   12   22 1     
   21   13   14 1     
   22   13   16 1     
   23   14   15 2     
   24   14   23 1     
@<TRIPOS>SUBSTRUCTURE
      1 ****           1
@<TRIPOS>COMMENT
> <Gold.Version>
2022.2.0

> <Gold.Id.Protein>
1qkm|1qkm_protein|mol2

> <Gold.Protein.RotatedTorsions>
[  496  491  490  487 ] final  -49.13 input  -89.99 | X-H torsion

> <Gold.Protein.ActiveResidues>
 MET295  LEU298  THR299  LEU301  ALA302  GLU305  TRP335  MET336  LEU339  MET340 
 GLY342  LEU343  ARG346  PHE356  ILE373  ILE376  PHE377  LEU380  LYS471  GLY472 
 MET473  HIS475  LEU476  LEU477  ASN478  MET479  VAL484  VAL487 

> <Gold.Protein.RotatedAtoms>
   36.4188   34.7005   41.6422 H   0  0  0  0  0  0  0  0  0  0  0  0  # atno 496  bound_to 491 

> <Gold.Score>
     Score     S(PLP)   S(hbond)     S(cho)   S(metal)  DE(clash)   DE(tors)     intcor
     50.21     -50.28       0.00       0.00       0.00       0.00       1.42       2.78

> <Gold.PLP.Fitness>
50.2137

> <Gold.PLP.PLP>
-50.2753

> <Gold.PLP.part.hbond>
-0.6758

> <Gold.PLP.part.metal>
0.0000

> <Gold.PLP.part.buried>
-3.9904

> <Gold.PLP.part.nonpolar>
-45.6609

> <Gold.PLP.part.repulsive>
0.1825

> <Gold.PLP.ligand.clash>
0.0000

> <Gold.PLP.ligand.torsion>
1.4192

> <Gold.PLP.Chemscore.Hbond>
0.0000

> <Gold.PLP.Chemscore.CHOScore>
0.0000

> <Gold.PLP.Chemscore.Metal>
0.0000

> <Gold.PLP.Chemscore.Internal.Correction>
2.7769

