#       Name:                EN300-24518_i001
#       Creating user name   aseyller
#       Creation time:       Fri Apr 21 18:48:23 2023


#       File generated by GOLD software.
#

@<TRIPOS>MOLECULE
EN300-24518_i001|benzaldehydes|mol2|632|dock2
    23    24     1
SMALL
USER_CHARGES


@<TRIPOS>ATOM
      1 O1          29.9130  37.9347  36.3335 O.2            1 <1>                0.0000
      2 N2          30.0564  37.5710  37.4870 N.pl3          1 <1>                0.0000
      3 O3          29.6737  38.2794  38.4009 O.2            1 <1>                0.0000
      4 C4          30.6902  36.2654  37.7779 C.ar           1 <1>                0.0000
      5 C5          31.8001  35.8614  37.0648 C.ar           1 <1>                0.0000
      6 C6          32.3941  34.6417  37.3358 C.ar           1 <1>                0.0000
      7 C7          31.8800  33.8186  38.3225 C.ar           1 <1>                0.0000
      8 C8          30.7711  34.2103  39.0430 C.ar           1 <1>                0.0000
      9 C9          30.1700  35.4427  38.7786 C.ar           1 <1>                0.0000
     10 C10         28.9821  35.8689  39.5466 C.2            1 <1>                0.0000
     11 C11         28.8539  35.7899  40.9052 C.2            1 <1>                0.0000
     12 C12         27.6640  36.2450  41.3961 C.2            1 <1>                0.0000
     13 C13         26.7911  36.7076  40.4441 C.2            1 <1>                0.0000
     14 C14         25.5049  37.2261  40.7034 C.2            1 <1>                0.0000
     15 O15         24.9904  37.0585  41.7910 O.2            1 <1>                0.0000
     16 S16         27.5229  36.5615  38.8519 S.3            1 <1>                0.0000
     17 H17         32.2059  36.4987  36.2931 H              1 <1>                0.0000
     18 H18         33.2626  34.3303  36.7746 H              1 <1>                0.0000
     19 H19         32.3482  32.8675  38.5286 H              1 <1>                0.0000
     20 H20         30.3708  33.5669  39.8127 H              1 <1>                0.0000
     21 H21         29.6335  35.3973  41.5413 H              1 <1>                0.0000
     22 H22         27.4284  36.2408  42.4501 H              1 <1>                0.0000
     23 H23         24.9778  37.7722  39.9351 H              1 <1>                0.0000
@<TRIPOS>BOND
    1    1    2 2     
    2    2    3 2     
    3    2    4 1     
    4    4    5 ar    
    5    4    9 ar    
    6    5    6 ar    
    7    5   17 1     
    8    6    7 ar    
    9    6   18 1     
   10    7    8 ar    
   11    7   19 1     
   12    8    9 ar    
   13    8   20 1     
   14    9   10 1     
   15   10   11 2     
   16   10   16 1     
   17   11   12 1     
   18   11   21 1     
   19   12   13 2     
   20   12   22 1     
   21   13   14 1     
   22   13   16 1     
   23   14   15 2     
   24   14   23 1     
@<TRIPOS>SUBSTRUCTURE
      1 ****           1
@<TRIPOS>COMMENT
> <Gold.Version>
2022.2.0

> <Gold.Id.Protein>
1qkm|1qkm_protein|mol2

> <Gold.Protein.RotatedTorsions>
[  496  491  490  487 ] final   15.32 input  -89.99 | X-H torsion

> <Gold.Protein.ActiveResidues>
 MET295  LEU298  THR299  LEU301  ALA302  GLU305  TRP335  MET336  LEU339  MET340 
 GLY342  LEU343  ARG346  PHE356  ILE373  ILE376  PHE377  LEU380  LYS471  GLY472 
 MET473  HIS475  LEU476  LEU477  ASN478  MET479  VAL484  VAL487 

> <Gold.Protein.RotatedAtoms>
   36.2868   33.9848   42.3366 H   0  0  0  0  0  0  0  0  0  0  0  0  # atno 496  bound_to 491 

> <Gold.Score>
     Score     S(PLP)   S(hbond)     S(cho)   S(metal)  DE(clash)   DE(tors)     intcor
     55.13     -54.16       0.38       0.00       0.00       0.00       1.48       2.78

> <Gold.PLP.Fitness>
55.1312

> <Gold.PLP.PLP>
-54.1635

> <Gold.PLP.part.hbond>
-0.9821

> <Gold.PLP.part.metal>
0.0000

> <Gold.PLP.part.buried>
-3.3209

> <Gold.PLP.part.nonpolar>
-50.7553

> <Gold.PLP.part.repulsive>
0.2723

> <Gold.PLP.ligand.clash>
0.0000

> <Gold.PLP.ligand.torsion>
1.4806

> <Gold.PLP.Chemscore.Hbond>
0.3840

> <Gold.PLP.Chemscore.CHOScore>
0.0000

> <Gold.PLP.Chemscore.Metal>
0.0000

> <Gold.Chemscore.Hbonds>
donor molecule, donor type, donor heavy atom, donor atom, acceptor molecule, acceptor atom, score
      P1  H  1258  1270       L1    15  0.38

> <Gold.PLP.Chemscore.Internal.Correction>
2.7769

