#       Name:                EN300-24518_i001
#       Creating user name   aseyller
#       Creation time:       Fri Apr 21 18:48:23 2023


#       File generated by GOLD software.
#

@<TRIPOS>MOLECULE
EN300-24518_i001|benzaldehydes|mol2|632|dock1
    23    24     1
SMALL
USER_CHARGES


@<TRIPOS>ATOM
      1 O1          29.9605  38.0631  36.0125 O.2            1 <1>                0.0000
      2 N2          30.0192  37.7560  37.1897 N.pl3          1 <1>                0.0000
      3 O3          29.5346  38.4872  38.0347 O.2            1 <1>                0.0000
      4 C4          30.6742  36.4913  37.5929 C.ar           1 <1>                0.0000
      5 C5          31.8489  36.0970  36.9861 C.ar           1 <1>                0.0000
      6 C6          32.4627  34.9155  37.3621 C.ar           1 <1>                0.0000
      7 C7          31.9037  34.1212  38.3479 C.ar           1 <1>                0.0000
      8 C8          30.7298  34.5036  38.9627 C.ar           1 <1>                0.0000
      9 C9          30.1080  35.6978  38.5921 C.ar           1 <1>                0.0000
     10 C10         28.8505  36.1139  39.2467 C.2            1 <1>                0.0000
     11 C11         27.6936  36.4367  38.5943 C.2            1 <1>                0.0000
     12 C12         26.6566  36.7922  39.4082 C.2            1 <1>                0.0000
     13 C13         26.9464  36.7670  40.7489 C.2            1 <1>                0.0000
     14 C14         26.0427  37.0921  41.7824 C.2            1 <1>                0.0000
     15 O15         24.8942  36.6997  41.7308 O.2            1 <1>                0.0000
     16 S16         28.6142  36.2613  40.9827 S.3            1 <1>                0.0000
     17 H17         32.2900  36.7119  36.2156 H              1 <1>                0.0000
     18 H18         33.3820  34.6115  36.8838 H              1 <1>                0.0000
     19 H19         32.3876  33.1998  38.6362 H              1 <1>                0.0000
     20 H20         30.2945  33.8828  39.7319 H              1 <1>                0.0000
     21 H21         27.6065  36.4129  37.5181 H              1 <1>                0.0000
     22 H22         25.6856  37.0714  39.0268 H              1 <1>                0.0000
     23 H23         26.3719  37.6897  42.6196 H              1 <1>                0.0000
@<TRIPOS>BOND
    1    1    2 2     
    2    2    3 2     
    3    2    4 1     
    4    4    5 ar    
    5    4    9 ar    
    6    5    6 ar    
    7    5   17 1     
    8    6    7 ar    
    9    6   18 1     
   10    7    8 ar    
   11    7   19 1     
   12    8    9 ar    
   13    8   20 1     
   14    9   10 1     
   15   10   11 2     
   16   10   16 1     
   17   11   12 1     
   18   11   21 1     
   19   12   13 2     
   20   12   22 1     
   21   13   14 1     
   22   13   16 1     
   23   14   15 2     
   24   14   23 1     
@<TRIPOS>SUBSTRUCTURE
      1 ****           1
@<TRIPOS>COMMENT
> <Gold.Version>
2022.2.0

> <Gold.Id.Protein>
1qkm|1qkm_protein|mol2

> <Gold.Protein.RotatedTorsions>
[  496  491  490  487 ] final  -36.20 input  -89.99 | X-H torsion

> <Gold.Protein.ActiveResidues>
 MET295  LEU298  THR299  LEU301  ALA302  GLU305  TRP335  MET336  LEU339  MET340 
 GLY342  LEU343  ARG346  PHE356  ILE373  ILE376  PHE377  LEU380  LYS471  GLY472 
 MET473  HIS475  LEU476  LEU477  ASN478  MET479  VAL484  VAL487 

> <Gold.Protein.RotatedAtoms>
   36.3433   34.6228   41.8249 H   0  0  0  0  0  0  0  0  0  0  0  0  # atno 496  bound_to 491 

> <Gold.Score>
     Score     S(PLP)   S(hbond)     S(cho)   S(metal)  DE(clash)   DE(tors)     intcor
     53.06     -52.30       0.61       0.00       0.00       0.00       1.96       2.86

> <Gold.PLP.Fitness>
53.0638

> <Gold.PLP.PLP>
-52.2962

> <Gold.PLP.part.hbond>
-1.0000

> <Gold.PLP.part.metal>
0.0000

> <Gold.PLP.part.buried>
-2.8260

> <Gold.PLP.part.nonpolar>
-49.4327

> <Gold.PLP.part.repulsive>
0.2941

> <Gold.PLP.ligand.clash>
0.0000

> <Gold.PLP.ligand.torsion>
1.9572

> <Gold.PLP.Chemscore.Hbond>
0.6080

> <Gold.PLP.Chemscore.CHOScore>
0.0000

> <Gold.PLP.Chemscore.Metal>
0.0000

> <Gold.Chemscore.Hbonds>
donor molecule, donor type, donor heavy atom, donor atom, acceptor molecule, acceptor atom, score
      P1  H  1258  1270       L1    15  0.61

> <Gold.PLP.Chemscore.Internal.Correction>
2.8580

