#       Name:                EN300-24518_i001
#       Creating user name   aseyller
#       Creation time:       Fri Apr 21 18:48:33 2023


#       File generated by GOLD software.
#

@<TRIPOS>MOLECULE
EN300-24518_i001|benzaldehydes|mol2|632|dock16
    23    24     1
SMALL
USER_CHARGES


@<TRIPOS>ATOM
      1 O1          30.0939  39.2806  36.9345 O.2            1 <1>                0.0000
      2 N2          30.4112  38.4307  36.1217 N.pl3          1 <1>                0.0000
      3 O3          30.0088  38.5049  34.9745 O.2            1 <1>                0.0000
      4 C4          31.2905  37.3110  36.5267 C.ar           1 <1>                0.0000
      5 C5          32.5152  37.1376  35.9155 C.ar           1 <1>                0.0000
      6 C6          33.3385  36.0920  36.2932 C.ar           1 <1>                0.0000
      7 C7          32.9403  35.2130  37.2853 C.ar           1 <1>                0.0000
      8 C8          31.7186  35.3749  37.9046 C.ar           1 <1>                0.0000
      9 C9          30.8851  36.4315  37.5322 C.ar           1 <1>                0.0000
     10 C10         29.5753  36.6113  38.1915 C.2            1 <1>                0.0000
     11 C11         28.4683  37.1588  37.6056 C.2            1 <1>                0.0000
     12 C12         27.3667  37.2228  38.4096 C.2            1 <1>                0.0000
     13 C13         27.5517  36.7265  39.6751 C.2            1 <1>                0.0000
     14 C14         26.5662  36.6833  40.6838 C.2            1 <1>                0.0000
     15 O15         25.4929  37.2244  40.5079 O.2            1 <1>                0.0000
     16 S16         29.2028  36.1463  39.8458 S.3            1 <1>                0.0000
     17 H17         32.8317  37.8196  35.1402 H              1 <1>                0.0000
     18 H18         34.2962  35.9608  35.8115 H              1 <1>                0.0000
     19 H19         33.5876  34.3985  37.5749 H              1 <1>                0.0000
     20 H20         31.4090  34.6881  38.6786 H              1 <1>                0.0000
     21 H21         28.4654  37.5138  36.5856 H              1 <1>                0.0000
     22 H22         26.4246  37.6320  38.0759 H              1 <1>                0.0000
     23 H23         26.7660  36.1692  41.6123 H              1 <1>                0.0000
@<TRIPOS>BOND
    1    1    2 2     
    2    2    3 2     
    3    2    4 1     
    4    4    5 ar    
    5    4    9 ar    
    6    5    6 ar    
    7    5   17 1     
    8    6    7 ar    
    9    6   18 1     
   10    7    8 ar    
   11    7   19 1     
   12    8    9 ar    
   13    8   20 1     
   14    9   10 1     
   15   10   11 2     
   16   10   16 1     
   17   11   12 1     
   18   11   21 1     
   19   12   13 2     
   20   12   22 1     
   21   13   14 1     
   22   13   16 1     
   23   14   15 2     
   24   14   23 1     
@<TRIPOS>SUBSTRUCTURE
      1 ****           1
@<TRIPOS>COMMENT
> <Gold.Version>
2022.2.0

> <Gold.Id.Protein>
1qkm|1qkm_protein|mol2

> <Gold.Protein.RotatedTorsions>
[  496  491  490  487 ] final  177.05 input  -89.99 | X-H torsion

> <Gold.Protein.ActiveResidues>
 MET295  LEU298  THR299  LEU301  ALA302  GLU305  TRP335  MET336  LEU339  MET340 
 GLY342  LEU343  ARG346  PHE356  ILE373  ILE376  PHE377  LEU380  LYS471  GLY472 
 MET473  HIS475  LEU476  LEU477  ASN478  MET479  VAL484  VAL487 

> <Gold.Protein.RotatedAtoms>
   37.3188   33.4202   40.8926 H   0  0  0  0  0  0  0  0  0  0  0  0  # atno 496  bound_to 491 

> <Gold.Score>
     Score     S(PLP)   S(hbond)     S(cho)   S(metal)  DE(clash)   DE(tors)     intcor
     46.28     -46.54       0.00       0.00       0.00       0.00       1.52       2.78

> <Gold.PLP.Fitness>
46.2760

> <Gold.PLP.PLP>
-46.5352

> <Gold.PLP.part.hbond>
0.0000

> <Gold.PLP.part.metal>
0.0000

> <Gold.PLP.part.buried>
-4.9079

> <Gold.PLP.part.nonpolar>
-42.3961

> <Gold.PLP.part.repulsive>
0.1311

> <Gold.PLP.ligand.clash>
0.0000

> <Gold.PLP.ligand.torsion>
1.5180

> <Gold.PLP.Chemscore.Hbond>
0.0000

> <Gold.PLP.Chemscore.CHOScore>
0.0000

> <Gold.PLP.Chemscore.Metal>
0.0000

> <Gold.PLP.Chemscore.Internal.Correction>
2.7769

