#       Name:                EN300-24518_i001
#       Creating user name   aseyller
#       Creation time:       Fri Apr 21 18:48:34 2023


#       File generated by GOLD software.
#

@<TRIPOS>MOLECULE
EN300-24518_i001|benzaldehydes|mol2|632|dock17
    23    24     1
SMALL
USER_CHARGES


@<TRIPOS>ATOM
      1 O1          30.0093  39.7342  37.2994 O.2            1 <1>                0.0000
      2 N2          29.5446  38.6088  37.3324 N.pl3          1 <1>                0.0000
      3 O3          28.3443  38.4418  37.2106 O.2            1 <1>                0.0000
      4 C4          30.4393  37.4438  37.5145 C.ar           1 <1>                0.0000
      5 C5          31.6206  37.3617  36.8064 C.ar           1 <1>                0.0000
      6 C6          32.4582  36.2738  36.9759 C.ar           1 <1>                0.0000
      7 C7          32.1179  35.2609  37.8553 C.ar           1 <1>                0.0000
      8 C8          30.9400  35.3303  38.5696 C.ar           1 <1>                0.0000
      9 C9          30.0927  36.4284  38.4077 C.ar           1 <1>                0.0000
     10 C10         28.8296  36.5097  39.1697 C.2            1 <1>                0.0000
     11 C11         27.5895  36.2260  38.6696 C.2            1 <1>                0.0000
     12 C12         26.5653  36.3707  39.5607 C.2            1 <1>                0.0000
     13 C13         26.9492  36.7776  40.8133 C.2            1 <1>                0.0000
     14 C14         26.0767  36.9962  41.9003 C.2            1 <1>                0.0000
     15 O15         24.8995  36.7137  41.8006 O.2            1 <1>                0.0000
     16 S16         28.6954  36.9788  40.8590 S.3            1 <1>                0.0000
     17 H17         31.8918  38.1484  36.1180 H              1 <1>                0.0000
     18 H18         33.3817  36.2145  36.4191 H              1 <1>                0.0000
     19 H19         32.7760  34.4140  37.9824 H              1 <1>                0.0000
     20 H20         30.6756  34.5391  39.2556 H              1 <1>                0.0000
     21 H21         27.4320  35.9120  37.6483 H              1 <1>                0.0000
     22 H22         25.5347  36.1803  39.3000 H              1 <1>                0.0000
     23 H23         26.4555  37.4145  42.8211 H              1 <1>                0.0000
@<TRIPOS>BOND
    1    1    2 2     
    2    2    3 2     
    3    2    4 1     
    4    4    5 ar    
    5    4    9 ar    
    6    5    6 ar    
    7    5   17 1     
    8    6    7 ar    
    9    6   18 1     
   10    7    8 ar    
   11    7   19 1     
   12    8    9 ar    
   13    8   20 1     
   14    9   10 1     
   15   10   11 2     
   16   10   16 1     
   17   11   12 1     
   18   11   21 1     
   19   12   13 2     
   20   12   22 1     
   21   13   14 1     
   22   13   16 1     
   23   14   15 2     
   24   14   23 1     
@<TRIPOS>SUBSTRUCTURE
      1 ****           1
@<TRIPOS>COMMENT
> <Gold.Version>
2022.2.0

> <Gold.Id.Protein>
1qkm|1qkm_protein|mol2

> <Gold.Protein.RotatedTorsions>
[  496  491  490  487 ] final   16.34 input  -89.99 | X-H torsion

> <Gold.Protein.ActiveResidues>
 MET295  LEU298  THR299  LEU301  ALA302  GLU305  TRP335  MET336  LEU339  MET340 
 GLY342  LEU343  ARG346  PHE356  ILE373  ILE376  PHE377  LEU380  LYS471  GLY472 
 MET473  HIS475  LEU476  LEU477  ASN478  MET479  VAL484  VAL487 

> <Gold.Protein.RotatedAtoms>
   36.2899   33.9689   42.3413 H   0  0  0  0  0  0  0  0  0  0  0  0  # atno 496  bound_to 491 

> <Gold.Score>
     Score     S(PLP)   S(hbond)     S(cho)   S(metal)  DE(clash)   DE(tors)     intcor
     51.46     -51.27       0.59       0.00       0.00       0.00       2.18       2.78

> <Gold.PLP.Fitness>
51.4583

> <Gold.PLP.PLP>
-51.2722

> <Gold.PLP.part.hbond>
-1.0000

> <Gold.PLP.part.metal>
0.0000

> <Gold.PLP.part.buried>
-3.1940

> <Gold.PLP.part.nonpolar>
-47.0415

> <Gold.PLP.part.repulsive>
0.2993

> <Gold.PLP.ligand.clash>
0.0000

> <Gold.PLP.ligand.torsion>
2.1834

> <Gold.PLP.Chemscore.Hbond>
0.5920

> <Gold.PLP.Chemscore.CHOScore>
0.0000

> <Gold.PLP.Chemscore.Metal>
0.0000

> <Gold.Chemscore.Hbonds>
donor molecule, donor type, donor heavy atom, donor atom, acceptor molecule, acceptor atom, score
      P1  H  1258  1270       L1    15  0.59

> <Gold.PLP.Chemscore.Internal.Correction>
2.7769

