#       Name:                EN300-24518_i001
#       Creating user name   aseyller
#       Creation time:       Fri Apr 21 18:48:30 2023


#       File generated by GOLD software.
#

@<TRIPOS>MOLECULE
EN300-24518_i001|benzaldehydes|mol2|632|dock11
    23    24     1
SMALL
USER_CHARGES


@<TRIPOS>ATOM
      1 O1          29.7623  34.5947  38.5332 O.2            1 <1>                0.0000
      2 N2          30.8574  35.1268  38.4990 N.pl3          1 <1>                0.0000
      3 O3          31.7939  34.6320  39.1005 O.2            1 <1>                0.0000
      4 C4          31.0516  36.3714  37.7217 C.ar           1 <1>                0.0000
      5 C5          32.1962  36.5468  36.9717 C.ar           1 <1>                0.0000
      6 C6          32.3790  37.7092  36.2442 C.ar           1 <1>                0.0000
      7 C7          31.4167  38.7036  36.2636 C.ar           1 <1>                0.0000
      8 C8          30.2677  38.5412  37.0090 C.ar           1 <1>                0.0000
      9 C9          30.0741  37.3680  37.7411 C.ar           1 <1>                0.0000
     10 C10         28.8456  37.1869  38.5416 C.2            1 <1>                0.0000
     11 C11         27.5728  37.3874  38.0852 C.2            1 <1>                0.0000
     12 C12         26.5910  37.1571  39.0056 C.2            1 <1>                0.0000
     13 C13         27.0436  36.7619  40.2389 C.2            1 <1>                0.0000
     14 C14         26.2248  36.4662  41.3492 C.2            1 <1>                0.0000
     15 O15         25.1726  37.0538  41.5015 O.2            1 <1>                0.0000
     16 S16         28.7997  36.6738  40.2226 S.3            1 <1>                0.0000
     17 H17         32.9514  35.7750  36.9528 H              1 <1>                0.0000
     18 H18         33.2769  37.8414  35.6588 H              1 <1>                0.0000
     19 H19         31.5659  39.6089  35.6939 H              1 <1>                0.0000
     20 H20         29.5175  39.3181  37.0233 H              1 <1>                0.0000
     21 H21         27.3602  37.7038  37.0748 H              1 <1>                0.0000
     22 H22         25.5416  37.2770  38.7807 H              1 <1>                0.0000
     23 H23         26.5334  35.7174  42.0636 H              1 <1>                0.0000
@<TRIPOS>BOND
    1    1    2 2     
    2    2    3 2     
    3    2    4 1     
    4    4    5 ar    
    5    4    9 ar    
    6    5    6 ar    
    7    5   17 1     
    8    6    7 ar    
    9    6   18 1     
   10    7    8 ar    
   11    7   19 1     
   12    8    9 ar    
   13    8   20 1     
   14    9   10 1     
   15   10   11 2     
   16   10   16 1     
   17   11   12 1     
   18   11   21 1     
   19   12   13 2     
   20   12   22 1     
   21   13   14 1     
   22   13   16 1     
   23   14   15 2     
   24   14   23 1     
@<TRIPOS>SUBSTRUCTURE
      1 ****           1
@<TRIPOS>COMMENT
> <Gold.Version>
2022.2.0

> <Gold.Id.Protein>
1qkm|1qkm_protein|mol2

> <Gold.Protein.RotatedTorsions>
[  496  491  490  487 ] final -146.33 input  -89.99 | X-H torsion

> <Gold.Protein.ActiveResidues>
 MET295  LEU298  THR299  LEU301  ALA302  GLU305  TRP335  MET336  LEU339  MET340 
 GLY342  LEU343  ARG346  PHE356  ILE373  ILE376  PHE377  LEU380  LYS471  GLY472 
 MET473  HIS475  LEU476  LEU477  ASN478  MET479  VAL484  VAL487 

> <Gold.Protein.RotatedAtoms>
   37.2117   33.9770   40.7203 H   0  0  0  0  0  0  0  0  0  0  0  0  # atno 496  bound_to 491 

> <Gold.Score>
     Score     S(PLP)   S(hbond)     S(cho)   S(metal)  DE(clash)   DE(tors)     intcor
     48.13     -48.13       0.21       0.00       0.00       0.02       1.70       2.78

> <Gold.PLP.Fitness>
48.1299

> <Gold.PLP.PLP>
-48.1347

> <Gold.PLP.part.hbond>
-1.0000

> <Gold.PLP.part.metal>
0.0000

> <Gold.PLP.part.buried>
-2.9111

> <Gold.PLP.part.nonpolar>
-45.2187

> <Gold.PLP.part.repulsive>
1.2556

> <Gold.PLP.ligand.clash>
0.0183

> <Gold.PLP.ligand.torsion>
1.7034

> <Gold.PLP.Chemscore.Hbond>
0.2145

> <Gold.PLP.Chemscore.CHOScore>
0.0000

> <Gold.PLP.Chemscore.Metal>
0.0000

> <Gold.Chemscore.Hbonds>
donor molecule, donor type, donor heavy atom, donor atom, acceptor molecule, acceptor atom, score
      P1  H  1258  1270       L1    15  0.21

> <Gold.PLP.Chemscore.Internal.Correction>
2.7769

