#       Name:                EN300-24518_i001
#       Creating user name   aseyller
#       Creation time:       Fri Apr 21 18:48:28 2023


#       File generated by GOLD software.
#

@<TRIPOS>MOLECULE
EN300-24518_i001|benzaldehydes|mol2|632|dock8
    23    24     1
SMALL
USER_CHARGES


@<TRIPOS>ATOM
      1 O1          30.4518  40.2975  36.9397 O.2            1 <1>                0.0000
      2 N2          30.1097  39.3730  36.2242 N.pl3          1 <1>                0.0000
      3 O3          28.9617  39.3060  35.8231 O.2            1 <1>                0.0000
      4 C4          31.0908  38.3343  35.8375 C.ar           1 <1>                0.0000
      5 C5          31.9361  38.5456  34.7678 C.ar           1 <1>                0.0000
      6 C6          32.8540  37.5760  34.4054 C.ar           1 <1>                0.0000
      7 C7          32.9308  36.3884  35.1117 C.ar           1 <1>                0.0000
      8 C8          32.0918  36.1643  36.1833 C.ar           1 <1>                0.0000
      9 C9          31.1669  37.1410  36.5581 C.ar           1 <1>                0.0000
     10 C10         30.2653  36.9080  37.7050 C.2            1 <1>                0.0000
     11 C11         29.0121  37.4368  37.8406 C.2            1 <1>                0.0000
     12 C12         28.3610  37.0816  38.9868 C.2            1 <1>                0.0000
     13 C13         29.0723  36.2512  39.8156 C.2            1 <1>                0.0000
     14 C14         28.6142  35.7495  41.0521 C.2            1 <1>                0.0000
     15 O15         27.5663  36.1488  41.5189 O.2            1 <1>                0.0000
     16 S16         30.6393  35.9025  39.0981 S.3            1 <1>                0.0000
     17 H17         31.8809  39.4699  34.2119 H              1 <1>                0.0000
     18 H18         33.5133  37.7465  33.5671 H              1 <1>                0.0000
     19 H19         33.6492  35.6354  34.8231 H              1 <1>                0.0000
     20 H20         32.1528  35.2370  36.7337 H              1 <1>                0.0000
     21 H21         28.5712  38.0858  37.0984 H              1 <1>                0.0000
     22 H22         27.3654  37.4272  39.2226 H              1 <1>                0.0000
     23 H23         29.1953  35.0105  41.5836 H              1 <1>                0.0000
@<TRIPOS>BOND
    1    1    2 2     
    2    2    3 2     
    3    2    4 1     
    4    4    5 ar    
    5    4    9 ar    
    6    5    6 ar    
    7    5   17 1     
    8    6    7 ar    
    9    6   18 1     
   10    7    8 ar    
   11    7   19 1     
   12    8    9 ar    
   13    8   20 1     
   14    9   10 1     
   15   10   11 2     
   16   10   16 1     
   17   11   12 1     
   18   11   21 1     
   19   12   13 2     
   20   12   22 1     
   21   13   14 1     
   22   13   16 1     
   23   14   15 2     
   24   14   23 1     
@<TRIPOS>SUBSTRUCTURE
      1 ****           1
@<TRIPOS>COMMENT
> <Gold.Version>
2022.2.0

> <Gold.Id.Protein>
1qkm|1qkm_protein|mol2

> <Gold.Protein.RotatedTorsions>
[  496  491  490  487 ] final -140.07 input  -89.99 | X-H torsion

> <Gold.Protein.ActiveResidues>
 MET295  LEU298  THR299  LEU301  ALA302  GLU305  TRP335  MET336  LEU339  MET340 
 GLY342  LEU343  ARG346  PHE356  ILE373  ILE376  PHE377  LEU380  LYS471  GLY472 
 MET473  HIS475  LEU476  LEU477  ASN478  MET479  VAL484  VAL487 

> <Gold.Protein.RotatedAtoms>
   37.1743   34.0729   40.7237 H   0  0  0  0  0  0  0  0  0  0  0  0  # atno 496  bound_to 491 

> <Gold.Score>
     Score     S(PLP)   S(hbond)     S(cho)   S(metal)  DE(clash)   DE(tors)     intcor
     47.77     -48.68       0.00       0.00       0.00       0.00       1.85       2.78

> <Gold.PLP.Fitness>
47.7676

> <Gold.PLP.PLP>
-48.6844

> <Gold.PLP.part.hbond>
0.0000

> <Gold.PLP.part.metal>
0.0000

> <Gold.PLP.part.buried>
-2.0671

> <Gold.PLP.part.nonpolar>
-47.3308

> <Gold.PLP.part.repulsive>
0.1284

> <Gold.PLP.ligand.clash>
0.0000

> <Gold.PLP.ligand.torsion>
1.8468

> <Gold.PLP.Chemscore.Hbond>
0.0000

> <Gold.PLP.Chemscore.CHOScore>
0.0000

> <Gold.PLP.Chemscore.Metal>
0.0000

> <Gold.PLP.Chemscore.Internal.Correction>
2.7769

