#       Name:                EN300-24518_i001
#       Creating user name   aseyller
#       Creation time:       Fri Apr 21 18:48:28 2023


#       File generated by GOLD software.
#

@<TRIPOS>MOLECULE
EN300-24518_i001|benzaldehydes|mol2|632|dock9
    23    24     1
SMALL
USER_CHARGES


@<TRIPOS>ATOM
      1 O1          30.2316  40.2517  37.0165 O.2            1 <1>                0.0000
      2 N2          29.9494  39.1578  36.5611 N.pl3          1 <1>                0.0000
      3 O3          28.7946  38.7709  36.5774 O.2            1 <1>                0.0000
      4 C4          31.0090  38.3013  35.9825 C.ar           1 <1>                0.0000
      5 C5          31.6537  38.6860  34.8249 C.ar           1 <1>                0.0000
      6 C6          32.6446  37.8869  34.2831 C.ar           1 <1>                0.0000
      7 C7          32.9958  36.6973  34.8969 C.ar           1 <1>                0.0000
      8 C8          32.3594  36.3009  36.0546 C.ar           1 <1>                0.0000
      9 C9          31.3623  37.1055  36.6100 C.ar           1 <1>                0.0000
     10 C10         30.6766  36.6874  37.8501 C.2            1 <1>                0.0000
     11 C11         30.6318  35.4089  38.3315 C.2            1 <1>                0.0000
     12 C12         29.9391  35.2597  39.4984 C.2            1 <1>                0.0000
     13 C13         29.4009  36.4189  39.9971 C.2            1 <1>                0.0000
     14 C14         28.6458  36.5199  41.1846 C.2            1 <1>                0.0000
     15 O15         28.5088  35.5491  41.9017 O.2            1 <1>                0.0000
     16 S16         29.8014  37.7606  38.9335 S.3            1 <1>                0.0000
     17 H17         31.3840  39.6128  34.3405 H              1 <1>                0.0000
     18 H18         33.1461  38.1927  33.3768 H              1 <1>                0.0000
     19 H19         33.7697  36.0779  34.4683 H              1 <1>                0.0000
     20 H20         32.6344  35.3723  36.5326 H              1 <1>                0.0000
     21 H21         31.1074  34.5805  37.8274 H              1 <1>                0.0000
     22 H22         29.8236  34.3049  39.9897 H              1 <1>                0.0000
     23 H23         28.1897  37.4605  41.4562 H              1 <1>                0.0000
@<TRIPOS>BOND
    1    1    2 2     
    2    2    3 2     
    3    2    4 1     
    4    4    5 ar    
    5    4    9 ar    
    6    5    6 ar    
    7    5   17 1     
    8    6    7 ar    
    9    6   18 1     
   10    7    8 ar    
   11    7   19 1     
   12    8    9 ar    
   13    8   20 1     
   14    9   10 1     
   15   10   11 2     
   16   10   16 1     
   17   11   12 1     
   18   11   21 1     
   19   12   13 2     
   20   12   22 1     
   21   13   14 1     
   22   13   16 1     
   23   14   15 2     
   24   14   23 1     
@<TRIPOS>SUBSTRUCTURE
      1 ****           1
@<TRIPOS>COMMENT
> <Gold.Version>
2022.2.0

> <Gold.Id.Protein>
1qkm|1qkm_protein|mol2

> <Gold.Protein.RotatedTorsions>
[  496  491  490  487 ] final  -54.02 input  -89.99 | X-H torsion

> <Gold.Protein.ActiveResidues>
 MET295  LEU298  THR299  LEU301  ALA302  GLU305  TRP335  MET336  LEU339  MET340 
 GLY342  LEU343  ARG346  PHE356  ILE373  ILE376  PHE377  LEU380  LYS471  GLY472 
 MET473  HIS475  LEU476  LEU477  ASN478  MET479  VAL484  VAL487 

> <Gold.Protein.RotatedAtoms>
   36.4525   34.7186   41.5714 H   0  0  0  0  0  0  0  0  0  0  0  0  # atno 496  bound_to 491 

> <Gold.Score>
     Score     S(PLP)   S(hbond)     S(cho)   S(metal)  DE(clash)   DE(tors)     intcor
     50.37     -50.52       0.00       0.00       0.00       0.00       1.46       2.78

> <Gold.PLP.Fitness>
50.3684

> <Gold.PLP.PLP>
-50.5151

> <Gold.PLP.part.hbond>
-0.0621

> <Gold.PLP.part.metal>
0.0000

> <Gold.PLP.part.buried>
-3.4307

> <Gold.PLP.part.nonpolar>
-47.4072

> <Gold.PLP.part.repulsive>
0.2019

> <Gold.PLP.ligand.clash>
0.0000

> <Gold.PLP.ligand.torsion>
1.4618

> <Gold.PLP.Chemscore.Hbond>
0.0000

> <Gold.PLP.Chemscore.CHOScore>
0.0000

> <Gold.PLP.Chemscore.Metal>
0.0000

> <Gold.PLP.Chemscore.Internal.Correction>
2.7769

