#       Name:                EN300-24518_i001
#       Creating user name   aseyller
#       Creation time:       Fri Apr 21 18:48:26 2023


#       File generated by GOLD software.
#

@<TRIPOS>MOLECULE
EN300-24518_i001|benzaldehydes|mol2|632|dock5
    23    24     1
SMALL
USER_CHARGES


@<TRIPOS>ATOM
      1 O1          33.4155  36.1298  38.0490 O.2            1 <1>                0.0000
      2 N2          32.5122  35.8075  37.2983 N.pl3          1 <1>                0.0000
      3 O3          31.9918  34.7116  37.4070 O.2            1 <1>                0.0000
      4 C4          32.0428  36.7498  36.2578 C.ar           1 <1>                0.0000
      5 C5          32.8306  37.0116  35.1558 C.ar           1 <1>                0.0000
      6 C6          32.3932  37.8917  34.1822 C.ar           1 <1>                0.0000
      7 C7          31.1641  38.5156  34.3062 C.ar           1 <1>                0.0000
      8 C8          30.3665  38.2628  35.4026 C.ar           1 <1>                0.0000
      9 C9          30.7994  37.3712  36.3863 C.ar           1 <1>                0.0000
     10 C10         29.9501  37.0954  37.5634 C.2            1 <1>                0.0000
     11 C11         28.6025  37.3145  37.6297 C.2            1 <1>                0.0000
     12 C12         28.0259  36.9830  38.8220 C.2            1 <1>                0.0000
     13 C13         28.8947  36.4837  39.7590 C.2            1 <1>                0.0000
     14 C14         28.5385  36.0724  41.0608 C.2            1 <1>                0.0000
     15 O15         27.3835  36.1528  41.4284 O.2            1 <1>                0.0000
     16 S16         30.5189  36.4285  39.0876 S.3            1 <1>                0.0000
     17 H17         33.7911  36.5286  35.0533 H              1 <1>                0.0000
     18 H18         33.0139  38.0931  33.3216 H              1 <1>                0.0000
     19 H19         30.8289  39.2020  33.5427 H              1 <1>                0.0000
     20 H20         29.4075  38.7505  35.4982 H              1 <1>                0.0000
     21 H21         28.0375  37.7191  36.8030 H              1 <1>                0.0000
     22 H22         26.9699  37.1046  39.0126 H              1 <1>                0.0000
     23 H23         29.2926  35.6860  41.7304 H              1 <1>                0.0000
@<TRIPOS>BOND
    1    1    2 2     
    2    2    3 2     
    3    2    4 1     
    4    4    5 ar    
    5    4    9 ar    
    6    5    6 ar    
    7    5   17 1     
    8    6    7 ar    
    9    6   18 1     
   10    7    8 ar    
   11    7   19 1     
   12    8    9 ar    
   13    8   20 1     
   14    9   10 1     
   15   10   11 2     
   16   10   16 1     
   17   11   12 1     
   18   11   21 1     
   19   12   13 2     
   20   12   22 1     
   21   13   14 1     
   22   13   16 1     
   23   14   15 2     
   24   14   23 1     
@<TRIPOS>SUBSTRUCTURE
      1 ****           1
@<TRIPOS>COMMENT
> <Gold.Version>
2022.2.0

> <Gold.Id.Protein>
1qkm|1qkm_protein|mol2

> <Gold.Protein.RotatedTorsions>
[  496  491  490  487 ] final  101.88 input  -89.99 | X-H torsion

> <Gold.Protein.ActiveResidues>
 MET295  LEU298  THR299  LEU301  ALA302  GLU305  TRP335  MET336  LEU339  MET340 
 GLY342  LEU343  ARG346  PHE356  ILE373  ILE376  PHE377  LEU380  LYS471  GLY472 
 MET473  HIS475  LEU476  LEU477  ASN478  MET479  VAL484  VAL487 

> <Gold.Protein.RotatedAtoms>
   36.9285   32.9620   41.8732 H   0  0  0  0  0  0  0  0  0  0  0  0  # atno 496  bound_to 491 

> <Gold.Score>
     Score     S(PLP)   S(hbond)     S(cho)   S(metal)  DE(clash)   DE(tors)     intcor
     48.63     -48.92       0.00       0.00       0.00       0.01       1.53       2.78

> <Gold.PLP.Fitness>
48.6330

> <Gold.PLP.PLP>
-48.9240

> <Gold.PLP.part.hbond>
0.0000

> <Gold.PLP.part.metal>
0.0000

> <Gold.PLP.part.buried>
-3.2511

> <Gold.PLP.part.nonpolar>
-46.2411

> <Gold.PLP.part.repulsive>
0.1946

> <Gold.PLP.ligand.clash>
0.0134

> <Gold.PLP.ligand.torsion>
1.5272

> <Gold.PLP.Chemscore.Hbond>
0.0000

> <Gold.PLP.Chemscore.CHOScore>
0.0000

> <Gold.PLP.Chemscore.Metal>
0.0000

> <Gold.PLP.Chemscore.Internal.Correction>
2.7769

