#       Name:                EN300-24518_i001
#       Creating user name   aseyller
#       Creation time:       Fri Apr 21 18:48:33 2023


#       File generated by GOLD software.
#

@<TRIPOS>MOLECULE
EN300-24518_i001|benzaldehydes|mol2|632|dock15
    23    24     1
SMALL
USER_CHARGES


@<TRIPOS>ATOM
      1 O1          32.5586  35.7735  38.4956 O.2            1 <1>                0.0000
      2 N2          31.5078  35.7749  37.8796 N.pl3          1 <1>                0.0000
      3 O3          30.6586  34.9362  38.1224 O.2            1 <1>                0.0000
      4 C4          31.2606  36.7994  36.8404 C.ar           1 <1>                0.0000
      5 C5          32.2108  37.0437  35.8703 C.ar           1 <1>                0.0000
      6 C6          31.9811  38.0006  34.8979 C.ar           1 <1>                0.0000
      7 C7          30.7984  38.7192  34.8911 C.ar           1 <1>                0.0000
      8 C8          29.8400  38.4850  35.8549 C.ar           1 <1>                0.0000
      9 C9          30.0629  37.5166  36.8360 C.ar           1 <1>                0.0000
     10 C10         29.0406  37.2601  37.8712 C.2            1 <1>                0.0000
     11 C11         27.6901  37.2612  37.6604 C.2            1 <1>                0.0000
     12 C12         26.9368  36.9971  38.7680 C.2            1 <1>                0.0000
     13 C13         27.6598  36.7736  39.9123 C.2            1 <1>                0.0000
     14 C14         27.1093  36.4820  41.1782 C.2            1 <1>                0.0000
     15 O15         25.9352  36.7050  41.3959 O.2            1 <1>                0.0000
     16 S16         29.3777  36.8998  39.5588 S.3            1 <1>                0.0000
     17 H17         33.1362  36.4869  35.8703 H              1 <1>                0.0000
     18 H18         32.7282  38.1878  34.1409 H              1 <1>                0.0000
     19 H19         30.6257  39.4652  34.1295 H              1 <1>                0.0000
     20 H20         28.9174  39.0466  35.8485 H              1 <1>                0.0000
     21 H21         27.2525  37.4563  36.6924 H              1 <1>                0.0000
     22 H22         25.8575  36.9669  38.7453 H              1 <1>                0.0000
     23 H23         27.7317  36.0604  41.9536 H              1 <1>                0.0000
@<TRIPOS>BOND
    1    1    2 2     
    2    2    3 2     
    3    2    4 1     
    4    4    5 ar    
    5    4    9 ar    
    6    5    6 ar    
    7    5   17 1     
    8    6    7 ar    
    9    6   18 1     
   10    7    8 ar    
   11    7   19 1     
   12    8    9 ar    
   13    8   20 1     
   14    9   10 1     
   15   10   11 2     
   16   10   16 1     
   17   11   12 1     
   18   11   21 1     
   19   12   13 2     
   20   12   22 1     
   21   13   14 1     
   22   13   16 1     
   23   14   15 2     
   24   14   23 1     
@<TRIPOS>SUBSTRUCTURE
      1 ****           1
@<TRIPOS>COMMENT
> <Gold.Version>
2022.2.0

> <Gold.Id.Protein>
1qkm|1qkm_protein|mol2

> <Gold.Protein.RotatedTorsions>
[  496  491  490  487 ] final  -78.78 input  -89.99 | X-H torsion

> <Gold.Protein.ActiveResidues>
 MET295  LEU298  THR299  LEU301  ALA302  GLU305  TRP335  MET336  LEU339  MET340 
 GLY342  LEU343  ARG346  PHE356  ILE373  ILE376  PHE377  LEU380  LYS471  GLY472 
 MET473  HIS475  LEU476  LEU477  ASN478  MET479  VAL484  VAL487 

> <Gold.Protein.RotatedAtoms>
   36.6549   34.7109   41.2215 H   0  0  0  0  0  0  0  0  0  0  0  0  # atno 496  bound_to 491 

> <Gold.Score>
     Score     S(PLP)   S(hbond)     S(cho)   S(metal)  DE(clash)   DE(tors)     intcor
     45.67     -45.86       0.00       0.00       0.00       0.02       1.48       2.78

> <Gold.PLP.Fitness>
45.6666

> <Gold.PLP.PLP>
-45.8638

> <Gold.PLP.part.hbond>
0.0000

> <Gold.PLP.part.metal>
0.0000

> <Gold.PLP.part.buried>
-3.0078

> <Gold.PLP.part.nonpolar>
-43.4658

> <Gold.PLP.part.repulsive>
0.3234

> <Gold.PLP.ligand.clash>
0.0172

> <Gold.PLP.ligand.torsion>
1.4785

> <Gold.PLP.Chemscore.Hbond>
0.0000

> <Gold.PLP.Chemscore.CHOScore>
0.0000

> <Gold.PLP.Chemscore.Metal>
0.0000

> <Gold.PLP.Chemscore.Internal.Correction>
2.7769

