#       Name:                EN300-24518_i001
#       Creating user name   aseyller
#       Creation time:       Fri Apr 21 18:48:32 2023


#       File generated by GOLD software.
#

@<TRIPOS>MOLECULE
EN300-24518_i001|benzaldehydes|mol2|632|dock14
    23    24     1
SMALL
USER_CHARGES


@<TRIPOS>ATOM
      1 O1          31.4912  33.7844  37.7834 O.2            1 <1>                0.0000
      2 N2          31.9021  34.9159  37.9692 N.pl3          1 <1>                0.0000
      3 O3          32.3769  35.2218  39.0483 O.2            1 <1>                0.0000
      4 C4          31.8296  35.9174  36.8817 C.ar           1 <1>                0.0000
      5 C5          32.8195  35.9689  35.9220 C.ar           1 <1>                0.0000
      6 C6          32.7531  36.9039  34.9046 C.ar           1 <1>                0.0000
      7 C7          31.6950  37.7937  34.8420 C.ar           1 <1>                0.0000
      8 C8          30.6985  37.7531  35.7948 C.ar           1 <1>                0.0000
      9 C9          30.7564  36.8081  36.8212 C.ar           1 <1>                0.0000
     10 C10         29.6924  36.7585  37.8451 C.2            1 <1>                0.0000
     11 C11         29.8664  36.3627  39.1418 C.2            1 <1>                0.0000
     12 C12         28.7373  36.3991  39.9086 C.2            1 <1>                0.0000
     13 C13         27.6121  36.8274  39.2510 C.2            1 <1>                0.0000
     14 C14         26.3302  36.9498  39.8276 C.2            1 <1>                0.0000
     15 O15         26.1833  36.7844  41.0220 O.2            1 <1>                0.0000
     16 S16         28.0128  37.2069  37.5815 S.3            1 <1>                0.0000
     17 H17         33.6484  35.2779  35.9655 H              1 <1>                0.0000
     18 H18         33.5307  36.9400  34.1560 H              1 <1>                0.0000
     19 H19         31.6495  38.5216  34.0455 H              1 <1>                0.0000
     20 H20         29.8733  38.4481  35.7448 H              1 <1>                0.0000
     21 H21         30.8230  36.0453  39.5298 H              1 <1>                0.0000
     22 H22         28.7305  36.1130  40.9499 H              1 <1>                0.0000
     23 H23         25.4797  37.1906  39.2071 H              1 <1>                0.0000
@<TRIPOS>BOND
    1    1    2 2     
    2    2    3 2     
    3    2    4 1     
    4    4    5 ar    
    5    4    9 ar    
    6    5    6 ar    
    7    5   17 1     
    8    6    7 ar    
    9    6   18 1     
   10    7    8 ar    
   11    7   19 1     
   12    8    9 ar    
   13    8   20 1     
   14    9   10 1     
   15   10   11 2     
   16   10   16 1     
   17   11   12 1     
   18   11   21 1     
   19   12   13 2     
   20   12   22 1     
   21   13   14 1     
   22   13   16 1     
   23   14   15 2     
   24   14   23 1     
@<TRIPOS>SUBSTRUCTURE
      1 ****           1
@<TRIPOS>COMMENT
> <Gold.Version>
2022.2.0

> <Gold.Id.Protein>
1qkm|1qkm_protein|mol2

> <Gold.Protein.RotatedTorsions>
[  496  491  490  487 ] final  -17.69 input  -89.99 | X-H torsion

> <Gold.Protein.ActiveResidues>
 MET295  LEU298  THR299  LEU301  ALA302  GLU305  TRP335  MET336  LEU339  MET340 
 GLY342  LEU343  ARG346  PHE356  ILE373  ILE376  PHE377  LEU380  LYS471  GLY472 
 MET473  HIS475  LEU476  LEU477  ASN478  MET479  VAL484  VAL487 

> <Gold.Protein.RotatedAtoms>
   36.2752   34.4437   42.0601 H   0  0  0  0  0  0  0  0  0  0  0  0  # atno 496  bound_to 491 

> <Gold.Score>
     Score     S(PLP)   S(hbond)     S(cho)   S(metal)  DE(clash)   DE(tors)     intcor
     45.42     -46.38       0.00       0.00       0.00       0.00       1.87       2.78

> <Gold.PLP.Fitness>
45.4175

> <Gold.PLP.PLP>
-46.3810

> <Gold.PLP.part.hbond>
-0.6756

> <Gold.PLP.part.metal>
0.0000

> <Gold.PLP.part.buried>
-0.2406

> <Gold.PLP.part.nonpolar>
-46.3263

> <Gold.PLP.part.repulsive>
0.7839

> <Gold.PLP.ligand.clash>
0.0000

> <Gold.PLP.ligand.torsion>
1.8702

> <Gold.PLP.Chemscore.Hbond>
0.0000

> <Gold.PLP.Chemscore.CHOScore>
0.0000

> <Gold.PLP.Chemscore.Metal>
0.0000

> <Gold.PLP.Chemscore.Internal.Correction>
2.7769

