#       Name:                EN300-24518_i001
#       Creating user name   aseyller
#       Creation time:       Fri Apr 21 18:48:25 2023


#       File generated by GOLD software.
#

@<TRIPOS>MOLECULE
EN300-24518_i001|benzaldehydes|mol2|632|dock4
    23    24     1
SMALL
USER_CHARGES


@<TRIPOS>ATOM
      1 O1          29.9614  34.6515  38.6650 O.2            1 <1>                0.0000
      2 N2          30.8778  35.3891  38.3492 N.pl3          1 <1>                0.0000
      3 O3          31.9934  35.2020  38.8008 O.2            1 <1>                0.0000
      4 C4          30.6369  36.5091  37.4119 C.ar           1 <1>                0.0000
      5 C5          31.4944  36.7203  36.3518 C.ar           1 <1>                0.0000
      6 C6          31.2704  37.7664  35.4746 C.ar           1 <1>                0.0000
      7 C7          30.1864  38.6079  35.6538 C.ar           1 <1>                0.0000
      8 C8          29.3213  38.4081  36.7092 C.ar           1 <1>                0.0000
      9 C9          29.5383  37.3507  37.5952 C.ar           1 <1>                0.0000
     10 C10         28.6155  37.1303  38.7278 C.2            1 <1>                0.0000
     11 C11         28.9971  36.8525  40.0106 C.2            1 <1>                0.0000
     12 C12         27.9674  36.6880  40.8919 C.2            1 <1>                0.0000
     13 C13         26.7173  36.8288  40.3447 C.2            1 <1>                0.0000
     14 C14         25.5020  36.7051  41.0507 C.2            1 <1>                0.0000
     15 O15         25.3497  37.2892  42.1048 O.2            1 <1>                0.0000
     16 S16         26.8611  37.1935  38.6306 S.3            1 <1>                0.0000
     17 H17         32.3425  36.0677  36.2067 H              1 <1>                0.0000
     18 H18         31.9447  37.9272  34.6465 H              1 <1>                0.0000
     19 H19         30.0177  39.4230  34.9657 H              1 <1>                0.0000
     20 H20         28.4758  39.0656  36.8480 H              1 <1>                0.0000
     21 H21         30.0330  36.7690  40.3043 H              1 <1>                0.0000
     22 H22         28.1246  36.4644  41.9367 H              1 <1>                0.0000
     23 H23         24.7070  36.0911  40.6538 H              1 <1>                0.0000
@<TRIPOS>BOND
    1    1    2 2     
    2    2    3 2     
    3    2    4 1     
    4    4    5 ar    
    5    4    9 ar    
    6    5    6 ar    
    7    5   17 1     
    8    6    7 ar    
    9    6   18 1     
   10    7    8 ar    
   11    7   19 1     
   12    8    9 ar    
   13    8   20 1     
   14    9   10 1     
   15   10   11 2     
   16   10   16 1     
   17   11   12 1     
   18   11   21 1     
   19   12   13 2     
   20   12   22 1     
   21   13   14 1     
   22   13   16 1     
   23   14   15 2     
   24   14   23 1     
@<TRIPOS>SUBSTRUCTURE
      1 ****           1
@<TRIPOS>COMMENT
> <Gold.Version>
2022.2.0

> <Gold.Id.Protein>
1qkm|1qkm_protein|mol2

> <Gold.Protein.RotatedTorsions>
[  496  491  490  487 ] final -158.68 input  -89.99 | X-H torsion

> <Gold.Protein.ActiveResidues>
 MET295  LEU298  THR299  LEU301  ALA302  GLU305  TRP335  MET336  LEU339  MET340 
 GLY342  LEU343  ARG346  PHE356  ILE373  ILE376  PHE377  LEU380  LYS471  GLY472 
 MET473  HIS475  LEU476  LEU477  ASN478  MET479  VAL484  VAL487 

> <Gold.Protein.RotatedAtoms>
   37.2702   33.7839   40.7425 H   0  0  0  0  0  0  0  0  0  0  0  0  # atno 496  bound_to 491 

> <Gold.Score>
     Score     S(PLP)   S(hbond)     S(cho)   S(metal)  DE(clash)   DE(tors)     intcor
     49.20     -49.84       0.16       0.00       0.00       0.00       1.95       2.78

> <Gold.PLP.Fitness>
49.2034

> <Gold.PLP.PLP>
-49.8428

> <Gold.PLP.part.hbond>
-0.9324

> <Gold.PLP.part.metal>
0.0000

> <Gold.PLP.part.buried>
-4.9885

> <Gold.PLP.part.nonpolar>
-45.1179

> <Gold.PLP.part.repulsive>
0.4163

> <Gold.PLP.ligand.clash>
0.0000

> <Gold.PLP.ligand.torsion>
1.9481

> <Gold.PLP.Chemscore.Hbond>
0.1600

> <Gold.PLP.Chemscore.CHOScore>
0.0000

> <Gold.PLP.Chemscore.Metal>
0.0000

> <Gold.Chemscore.Hbonds>
donor molecule, donor type, donor heavy atom, donor atom, acceptor molecule, acceptor atom, score
      P1  H  1258  1270       L1    15  0.16

> <Gold.PLP.Chemscore.Internal.Correction>
2.7769

