#       Name:                EN300-24518_i001
#       Creating user name   aseyller
#       Creation time:       Fri Apr 21 18:48:35 2023


#       File generated by GOLD software.
#

@<TRIPOS>MOLECULE
EN300-24518_i001|benzaldehydes|mol2|632|dock18
    23    24     1
SMALL
USER_CHARGES


@<TRIPOS>ATOM
      1 O1          31.7202  34.2668  37.7198 O.2            1 <1>                0.0000
      2 N2          31.7172  35.4820  37.8018 N.pl3          1 <1>                0.0000
      3 O3          31.5431  36.0191  38.8811 O.2            1 <1>                0.0000
      4 C4          31.9310  36.3060  36.5909 C.ar           1 <1>                0.0000
      5 C5          33.1223  36.2235  35.8999 C.ar           1 <1>                0.0000
      6 C6          33.3236  36.9925  34.7677 C.ar           1 <1>                0.0000
      7 C7          32.3331  37.8494  34.3204 C.ar           1 <1>                0.0000
      8 C8          31.1374  37.9415  35.0016 C.ar           1 <1>                0.0000
      9 C9          30.9254  37.1639  36.1420 C.ar           1 <1>                0.0000
     10 C10         29.6469  37.2571  36.8765 C.2            1 <1>                0.0000
     11 C11         28.8060  38.3346  36.8583 C.2            1 <1>                0.0000
     12 C12         27.6782  38.1944  37.6149 C.2            1 <1>                0.0000
     13 C13         27.5739  36.9936  38.2701 C.2            1 <1>                0.0000
     14 C14         26.5042  36.6150  39.1087 C.2            1 <1>                0.0000
     15 O15         25.5464  37.3503  39.2407 O.2            1 <1>                0.0000
     16 S16         28.9736  35.9958  37.8999 S.3            1 <1>                0.0000
     17 H17         33.8996  35.5573  36.2440 H              1 <1>                0.0000
     18 H18         34.2580  36.9241  34.2305 H              1 <1>                0.0000
     19 H19         32.4970  38.4474  33.4362 H              1 <1>                0.0000
     20 H20         30.3652  38.6107  34.6516 H              1 <1>                0.0000
     21 H21         29.0176  39.2281  36.2897 H              1 <1>                0.0000
     22 H22         26.9281  38.9675  37.6919 H              1 <1>                0.0000
     23 H23         26.5370  35.6715  39.6331 H              1 <1>                0.0000
@<TRIPOS>BOND
    1    1    2 2     
    2    2    3 2     
    3    2    4 1     
    4    4    5 ar    
    5    4    9 ar    
    6    5    6 ar    
    7    5   17 1     
    8    6    7 ar    
    9    6   18 1     
   10    7    8 ar    
   11    7   19 1     
   12    8    9 ar    
   13    8   20 1     
   14    9   10 1     
   15   10   11 2     
   16   10   16 1     
   17   11   12 1     
   18   11   21 1     
   19   12   13 2     
   20   12   22 1     
   21   13   14 1     
   22   13   16 1     
   23   14   15 2     
   24   14   23 1     
@<TRIPOS>SUBSTRUCTURE
      1 ****           1
@<TRIPOS>COMMENT
> <Gold.Version>
2022.2.0

> <Gold.Id.Protein>
1qkm|1qkm_protein|mol2

> <Gold.Protein.RotatedTorsions>
[  496  491  490  487 ] final  159.81 input  -89.99 | X-H torsion

> <Gold.Protein.ActiveResidues>
 MET295  LEU298  THR299  LEU301  ALA302  GLU305  TRP335  MET336  LEU339  MET340 
 GLY342  LEU343  ARG346  PHE356  ILE373  ILE376  PHE377  LEU380  LYS471  GLY472 
 MET473  HIS475  LEU476  LEU477  ASN478  MET479  VAL484  VAL487 

> <Gold.Protein.RotatedAtoms>
   37.2962   33.2032   41.0726 H   0  0  0  0  0  0  0  0  0  0  0  0  # atno 496  bound_to 491 

> <Gold.Score>
     Score     S(PLP)   S(hbond)     S(cho)   S(metal)  DE(clash)   DE(tors)     intcor
     46.40     -46.52       0.00       0.00       0.00       0.00       1.45       2.78

> <Gold.PLP.Fitness>
46.3988

> <Gold.PLP.PLP>
-46.5186

> <Gold.PLP.part.hbond>
0.0000

> <Gold.PLP.part.metal>
0.0000

> <Gold.PLP.part.buried>
-2.5801

> <Gold.PLP.part.nonpolar>
-44.2201

> <Gold.PLP.part.repulsive>
0.2082

> <Gold.PLP.ligand.clash>
0.0000

> <Gold.PLP.ligand.torsion>
1.4483

> <Gold.PLP.Chemscore.Hbond>
0.0000

> <Gold.PLP.Chemscore.CHOScore>
0.0000

> <Gold.PLP.Chemscore.Metal>
0.0000

> <Gold.PLP.Chemscore.Internal.Correction>
2.7769

