#       Name:                EN300-24518_i001
#       Creating user name   aseyller
#       Creation time:       Fri Apr 21 18:48:26 2023


#       File generated by GOLD software.
#

@<TRIPOS>MOLECULE
EN300-24518_i001|benzaldehydes|mol2|632|dock6
    23    24     1
SMALL
USER_CHARGES


@<TRIPOS>ATOM
      1 O1          31.5965  34.8933  37.6828 O.2            1 <1>                0.0000
      2 N2          32.2735  35.8798  37.4547 N.pl3          1 <1>                0.0000
      3 O3          33.2667  36.1046  38.1230 O.2            1 <1>                0.0000
      4 C4          31.8925  36.8022  36.3615 C.ar           1 <1>                0.0000
      5 C5          32.7497  37.0081  35.3002 C.ar           1 <1>                0.0000
      6 C6          32.3950  37.8694  34.2774 C.ar           1 <1>                0.0000
      7 C7          31.1795  38.5304  34.3112 C.ar           1 <1>                0.0000
      8 C8          30.3131  38.3336  35.3661 C.ar           1 <1>                0.0000
      9 C9          30.6624  37.4612  36.3990 C.ar           1 <1>                0.0000
     10 C10         29.7391  37.2452  37.5320 C.2            1 <1>                0.0000
     11 C11         30.1182  36.9239  38.8054 C.2            1 <1>                0.0000
     12 C12         29.0886  36.7734  39.6892 C.2            1 <1>                0.0000
     13 C13         27.8409  36.9696  39.1536 C.2            1 <1>                0.0000
     14 C14         26.6261  36.8702  39.8642 C.2            1 <1>                0.0000
     15 O15         25.5861  37.2167  39.3408 O.2            1 <1>                0.0000
     16 S16         27.9873  37.3701  37.4477 S.3            1 <1>                0.0000
     17 H17         33.7000  36.4959  35.2681 H              1 <1>                0.0000
     18 H18         33.0697  38.0270  33.4490 H              1 <1>                0.0000
     19 H19         30.9090  39.2019  33.5098 H              1 <1>                0.0000
     20 H20         29.3649  38.8501  35.3913 H              1 <1>                0.0000
     21 H21         31.1524  36.7984  39.0903 H              1 <1>                0.0000
     22 H22         29.2440  36.5196  40.7274 H              1 <1>                0.0000
     23 H23         26.6207  36.4861  40.8736 H              1 <1>                0.0000
@<TRIPOS>BOND
    1    1    2 2     
    2    2    3 2     
    3    2    4 1     
    4    4    5 ar    
    5    4    9 ar    
    6    5    6 ar    
    7    5   17 1     
    8    6    7 ar    
    9    6   18 1     
   10    7    8 ar    
   11    7   19 1     
   12    8    9 ar    
   13    8   20 1     
   14    9   10 1     
   15   10   11 2     
   16   10   16 1     
   17   11   12 1     
   18   11   21 1     
   19   12   13 2     
   20   12   22 1     
   21   13   14 1     
   22   13   16 1     
   23   14   15 2     
   24   14   23 1     
@<TRIPOS>SUBSTRUCTURE
      1 ****           1
@<TRIPOS>COMMENT
> <Gold.Version>
2022.2.0

> <Gold.Id.Protein>
1qkm|1qkm_protein|mol2

> <Gold.Protein.RotatedTorsions>
[  496  491  490  487 ] final -143.23 input  -89.99 | X-H torsion

> <Gold.Protein.ActiveResidues>
 MET295  LEU298  THR299  LEU301  ALA302  GLU305  TRP335  MET336  LEU339  MET340 
 GLY342  LEU343  ARG346  PHE356  ILE373  ILE376  PHE377  LEU380  LYS471  GLY472 
 MET473  HIS475  LEU476  LEU477  ASN478  MET479  VAL484  VAL487 

> <Gold.Protein.RotatedAtoms>
   37.1937   34.0248   40.7207 H   0  0  0  0  0  0  0  0  0  0  0  0  # atno 496  bound_to 491 

> <Gold.Score>
     Score     S(PLP)   S(hbond)     S(cho)   S(metal)  DE(clash)   DE(tors)     intcor
     48.49     -48.76       0.00       0.00       0.00       0.02       1.52       2.78

> <Gold.PLP.Fitness>
48.4852

> <Gold.PLP.PLP>
-48.7604

> <Gold.PLP.part.hbond>
0.0000

> <Gold.PLP.part.metal>
0.0000

> <Gold.PLP.part.buried>
-3.1199

> <Gold.PLP.part.nonpolar>
-46.0547

> <Gold.PLP.part.repulsive>
0.1806

> <Gold.PLP.ligand.clash>
0.0187

> <Gold.PLP.ligand.torsion>
1.5167

> <Gold.PLP.Chemscore.Hbond>
0.0000

> <Gold.PLP.Chemscore.CHOScore>
0.0000

> <Gold.PLP.Chemscore.Metal>
0.0000

> <Gold.PLP.Chemscore.Internal.Correction>
2.7769

