#       Name:                EN300-24518_i001
#       Creating user name   aseyller
#       Creation time:       Fri Apr 21 18:48:22 2023


#       File generated by GOLD software.
#

@<TRIPOS>MOLECULE
EN300-24518_i001
    23    24     1
SMALL
USER_CHARGES


@<TRIPOS>ATOM
      1 O1           0.1123  -2.1974  -1.0300 O.2            1 <1>                0.0000
      2 N2          -0.8257  -2.2149  -0.2532 N.pl3          1 <1>                0.0000
      3 O3          -1.1618  -3.2611   0.2722 O.2            1 <1>                0.0000
      4 C4          -1.5533  -0.9637   0.0568 C.ar           1 <1>                0.0000
      5 C5          -2.9212  -0.9854   0.2354 C.ar           1 <1>                0.0000
      6 C6          -3.6027   0.1830   0.5257 C.ar           1 <1>                0.0000
      7 C7          -2.9186   1.3807   0.6386 C.ar           1 <1>                0.0000
      8 C8          -1.5511   1.4166   0.4626 C.ar           1 <1>                0.0000
      9 C9          -0.8562   0.2400   0.1750 C.ar           1 <1>                0.0000
     10 C10          0.6087   0.2708  -0.0144 C.2            1 <1>                0.0000
     11 C11          1.2684   1.0532  -0.9205 C.2            1 <1>                0.0000
     12 C12          2.6266   0.9144  -0.9162 C.2            1 <1>                0.0000
     13 C13          3.1070   0.0113  -0.0020 C.2            1 <1>                0.0000
     14 C14          4.4685  -0.3044   0.1910 C.2            1 <1>                0.0000
     15 O15          4.7894  -1.1217   1.0304 O.2            1 <1>                0.0000
     16 S16          1.7672  -0.6878   0.8969 S.3            1 <1>                0.0000
     17 H17         -3.4612  -1.9166   0.1480 H              1 <1>                0.0000
     18 H18         -4.6735   0.1604   0.6645 H              1 <1>                0.0000
     19 H19         -3.4568   2.2893   0.8648 H              1 <1>                0.0000
     20 H20         -1.0184   2.3520   0.5509 H              1 <1>                0.0000
     21 H21          0.7549   1.7288  -1.5886 H              1 <1>                0.0000
     22 H22          3.2715   1.4710  -1.5800 H              1 <1>                0.0000
     23 H23          5.2254   0.1805  -0.4076 H              1 <1>                0.0000
@<TRIPOS>BOND
    1    1    2 2     
    2    2    3 2     
    3    2    4 1     
    4    4    5 ar    
    5    4    9 ar    
    6    5    6 ar    
    7    5   17 1     
    8    6    7 ar    
    9    6   18 1     
   10    7    8 ar    
   11    7   19 1     
   12    8    9 ar    
   13    8   20 1     
   14    9   10 1     
   15   10   11 2     
   16   10   16 1     
   17   11   12 1     
   18   11   21 1     
   19   12   13 2     
   20   12   22 1     
   21   13   14 1     
   22   13   16 1     
   23   14   15 2     
   24   14   23 1     
@<TRIPOS>SUBSTRUCTURE
      1 ****           1
