#       Name:                EN300-24518_i001
#       Creating user name   aseyller
#       Creation time:       Fri Apr 21 18:48:32 2023


#       File generated by GOLD software.
#

@<TRIPOS>MOLECULE
EN300-24518_i001|benzaldehydes|mol2|632|dock13
    23    24     1
SMALL
USER_CHARGES


@<TRIPOS>ATOM
      1 O1          28.3295  38.1254  37.6010 O.2            1 <1>                0.0000
      2 N2          29.5356  38.2771  37.5235 N.pl3          1 <1>                0.0000
      3 O3          29.9990  39.3887  37.3416 O.2            1 <1>                0.0000
      4 C4          30.4381  37.1114  37.6563 C.ar           1 <1>                0.0000
      5 C5          31.5173  36.9723  36.8080 C.ar           1 <1>                0.0000
      6 C6          32.3621  35.8837  36.9311 C.ar           1 <1>                0.0000
      7 C7          32.1313  34.9273  37.9044 C.ar           1 <1>                0.0000
      8 C8          31.0563  35.0542  38.7591 C.ar           1 <1>                0.0000
      9 C9          30.2028  36.1534  38.6440 C.ar           1 <1>                0.0000
     10 C10         29.0495  36.2961  39.5564 C.2            1 <1>                0.0000
     11 C11         29.1268  36.6657  40.8700 C.2            1 <1>                0.0000
     12 C12         27.9271  36.7320  41.5184 C.2            1 <1>                0.0000
     13 C13         26.8395  36.4163  40.7440 C.2            1 <1>                0.0000
     14 C14         25.4998  36.4127  41.1864 C.2            1 <1>                0.0000
     15 O15         25.1558  37.1508  42.0877 O.2            1 <1>                0.0000
     16 S16         27.3697  36.0234  39.1142 S.3            1 <1>                0.0000
     17 H17         31.7026  37.7147  36.0459 H              1 <1>                0.0000
     18 H18         33.2053  35.7796  36.2644 H              1 <1>                0.0000
     19 H19         32.7943  34.0796  37.9946 H              1 <1>                0.0000
     20 H20         30.8772  34.3070  39.5182 H              1 <1>                0.0000
     21 H21         30.0645  36.8879  41.3577 H              1 <1>                0.0000
     22 H22         27.8411  37.0104  42.5583 H              1 <1>                0.0000
     23 H23         24.7801  35.7537  40.7237 H              1 <1>                0.0000
@<TRIPOS>BOND
    1    1    2 2     
    2    2    3 2     
    3    2    4 1     
    4    4    5 ar    
    5    4    9 ar    
    6    5    6 ar    
    7    5   17 1     
    8    6    7 ar    
    9    6   18 1     
   10    7    8 ar    
   11    7   19 1     
   12    8    9 ar    
   13    8   20 1     
   14    9   10 1     
   15   10   11 2     
   16   10   16 1     
   17   11   12 1     
   18   11   21 1     
   19   12   13 2     
   20   12   22 1     
   21   13   14 1     
   22   13   16 1     
   23   14   15 2     
   24   14   23 1     
@<TRIPOS>SUBSTRUCTURE
      1 ****           1
@<TRIPOS>COMMENT
> <Gold.Version>
2022.2.0

> <Gold.Id.Protein>
1qkm|1qkm_protein|mol2

> <Gold.Protein.RotatedTorsions>
[  496  491  490  487 ] final   59.75 input  -89.99 | X-H torsion

> <Gold.Protein.ActiveResidues>
 MET295  LEU298  THR299  LEU301  ALA302  GLU305  TRP335  MET336  LEU339  MET340 
 GLY342  LEU343  ARG346  PHE356  ILE373  ILE376  PHE377  LEU380  LYS471  GLY472 
 MET473  HIS475  LEU476  LEU477  ASN478  MET479  VAL484  VAL487 

> <Gold.Protein.RotatedAtoms>
   36.5494   33.3225   42.3046 H   0  0  0  0  0  0  0  0  0  0  0  0  # atno 496  bound_to 491 

> <Gold.Score>
     Score     S(PLP)   S(hbond)     S(cho)   S(metal)  DE(clash)   DE(tors)     intcor
     53.78     -54.74       0.26       0.00       0.00       0.00       2.25       2.78

> <Gold.PLP.Fitness>
53.7836

> <Gold.PLP.PLP>
-54.7449

> <Gold.PLP.part.hbond>
-0.6069

> <Gold.PLP.part.metal>
0.0000

> <Gold.PLP.part.buried>
-4.3425

> <Gold.PLP.part.nonpolar>
-50.3120

> <Gold.PLP.part.repulsive>
0.2844

> <Gold.PLP.ligand.clash>
0.0000

> <Gold.PLP.ligand.torsion>
2.2531

> <Gold.PLP.Chemscore.Hbond>
0.2560

> <Gold.PLP.Chemscore.CHOScore>
0.0000

> <Gold.PLP.Chemscore.Metal>
0.0000

> <Gold.Chemscore.Hbonds>
donor molecule, donor type, donor heavy atom, donor atom, acceptor molecule, acceptor atom, score
      P1  H  1258  1270       L1    15  0.26

> <Gold.PLP.Chemscore.Internal.Correction>
2.7769

