#       Name:                EN300-24518_i001
#       Creating user name   aseyller
#       Creation time:       Fri Apr 21 18:48:31 2023


#       File generated by GOLD software.
#

@<TRIPOS>MOLECULE
EN300-24518_i001|benzaldehydes|mol2|632|dock12
    23    24     1
SMALL
USER_CHARGES


@<TRIPOS>ATOM
      1 O1          28.8839  39.2107  35.8002 O.2            1 <1>                0.0000
      2 N2          29.9987  39.2562  36.2886 N.pl3          1 <1>                0.0000
      3 O3          30.2948  40.1620  37.0472 O.2            1 <1>                0.0000
      4 C4          30.9918  38.2073  35.9650 C.ar           1 <1>                0.0000
      5 C5          31.9046  38.4089  34.9503 C.ar           1 <1>                0.0000
      6 C6          32.8337  37.4299  34.6468 C.ar           1 <1>                0.0000
      7 C7          32.8544  36.2425  35.3574 C.ar           1 <1>                0.0000
      8 C8          31.9476  36.0280  36.3744 C.ar           1 <1>                0.0000
      9 C9          31.0107  37.0143  36.6897 C.ar           1 <1>                0.0000
     10 C10         30.0367  36.7917  37.7780 C.2            1 <1>                0.0000
     11 C11         30.3072  36.1573  38.9582 C.2            1 <1>                0.0000
     12 C12         29.2493  36.0683  39.8167 C.2            1 <1>                0.0000
     13 C13         28.0870  36.6309  39.3534 C.2            1 <1>                0.0000
     14 C14         26.8636  36.6645  40.0555 C.2            1 <1>                0.0000
     15 O15         26.8044  36.2428  41.1931 O.2            1 <1>                0.0000
     16 S16         28.3565  37.3094  37.7538 S.3            1 <1>                0.0000
     17 H17         31.8935  39.3329  34.3913 H              1 <1>                0.0000
     18 H18         33.5460  37.5928  33.8515 H              1 <1>                0.0000
     19 H19         33.5819  35.4821  35.1150 H              1 <1>                0.0000
     20 H20         31.9647  35.1009  36.9281 H              1 <1>                0.0000
     21 H21         31.2823  35.7570  39.1933 H              1 <1>                0.0000
     22 H22         29.3217  35.5925  40.7835 H              1 <1>                0.0000
     23 H23         25.9798  37.0652  39.5815 H              1 <1>                0.0000
@<TRIPOS>BOND
    1    1    2 2     
    2    2    3 2     
    3    2    4 1     
    4    4    5 ar    
    5    4    9 ar    
    6    5    6 ar    
    7    5   17 1     
    8    6    7 ar    
    9    6   18 1     
   10    7    8 ar    
   11    7   19 1     
   12    8    9 ar    
   13    8   20 1     
   14    9   10 1     
   15   10   11 2     
   16   10   16 1     
   17   11   12 1     
   18   11   21 1     
   19   12   13 2     
   20   12   22 1     
   21   13   14 1     
   22   13   16 1     
   23   14   15 2     
   24   14   23 1     
@<TRIPOS>SUBSTRUCTURE
      1 ****           1
@<TRIPOS>COMMENT
> <Gold.Version>
2022.2.0

> <Gold.Id.Protein>
1qkm|1qkm_protein|mol2

> <Gold.Protein.RotatedTorsions>
[  496  491  490  487 ] final  -42.23 input  -89.99 | X-H torsion

> <Gold.Protein.ActiveResidues>
 MET295  LEU298  THR299  LEU301  ALA302  GLU305  TRP335  MET336  LEU339  MET340 
 GLY342  LEU343  ARG346  PHE356  ILE373  ILE376  PHE377  LEU380  LYS471  GLY472 
 MET473  HIS475  LEU476  LEU477  ASN478  MET479  VAL484  VAL487 

> <Gold.Protein.RotatedAtoms>
   36.3759   34.6643   41.7408 H   0  0  0  0  0  0  0  0  0  0  0  0  # atno 496  bound_to 491 

> <Gold.Score>
     Score     S(PLP)   S(hbond)     S(cho)   S(metal)  DE(clash)   DE(tors)     intcor
     45.98     -47.33       0.00       0.00       0.00       0.00       2.06       2.78

> <Gold.PLP.Fitness>
45.9844

> <Gold.PLP.PLP>
-47.3292

> <Gold.PLP.part.hbond>
0.0000

> <Gold.PLP.part.metal>
0.0000

> <Gold.PLP.part.buried>
-3.0297

> <Gold.PLP.part.nonpolar>
-45.6313

> <Gold.PLP.part.repulsive>
0.1329

> <Gold.PLP.ligand.clash>
0.0000

> <Gold.PLP.ligand.torsion>
2.0608

> <Gold.PLP.Chemscore.Hbond>
0.0000

> <Gold.PLP.Chemscore.CHOScore>
0.0000

> <Gold.PLP.Chemscore.Metal>
0.0000

> <Gold.PLP.Chemscore.Internal.Correction>
2.7769

