#       Name:                EN300-24518_i001
#       Creating user name   aseyller
#       Creation time:       Fri Apr 21 18:48:29 2023


#       File generated by GOLD software.
#

@<TRIPOS>MOLECULE
EN300-24518_i001|benzaldehydes|mol2|632|dock10
    23    24     1
SMALL
USER_CHARGES


@<TRIPOS>ATOM
      1 O1          29.9917  39.2228  37.4945 O.2            1 <1>                0.0000
      2 N2          30.4106  38.7676  36.4453 N.pl3          1 <1>                0.0000
      3 O3          30.0526  39.2505  35.3860 O.2            1 <1>                0.0000
      4 C4          31.3593  37.6315  36.4579 C.ar           1 <1>                0.0000
      5 C5          32.4523  37.6340  35.6160 C.ar           1 <1>                0.0000
      6 C6          33.3403  36.5732  35.6268 C.ar           1 <1>                0.0000
      7 C7          33.1389  35.5028  36.4806 C.ar           1 <1>                0.0000
      8 C8          32.0504  35.4875  37.3275 C.ar           1 <1>                0.0000
      9 C9          31.1533  36.5577  37.3258 C.ar           1 <1>                0.0000
     10 C10         29.9854  36.5483  38.2305 C.2            1 <1>                0.0000
     11 C11         30.0127  36.1795  39.5464 C.2            1 <1>                0.0000
     12 C12         28.8091  36.2512  40.1869 C.2            1 <1>                0.0000
     13 C13         27.7685  36.6822  39.4037 C.2            1 <1>                0.0000
     14 C14         26.4348  36.8380  39.8370 C.2            1 <1>                0.0000
     15 O15         25.6301  37.4124  39.1313 O.2            1 <1>                0.0000
     16 S16         28.3520  37.0171  37.7792 S.3            1 <1>                0.0000
     17 H17         32.6149  38.4659  34.9467 H              1 <1>                0.0000
     18 H18         34.1942  36.5802  34.9657 H              1 <1>                0.0000
     19 H19         33.8356  34.6776  36.4836 H              1 <1>                0.0000
     20 H20         31.8944  34.6515  37.9933 H              1 <1>                0.0000
     21 H21         30.9165  35.8559  40.0413 H              1 <1>                0.0000
     22 H22         28.6859  35.9891  41.2273 H              1 <1>                0.0000
     23 H23         26.1294  36.4465  40.7960 H              1 <1>                0.0000
@<TRIPOS>BOND
    1    1    2 2     
    2    2    3 2     
    3    2    4 1     
    4    4    5 ar    
    5    4    9 ar    
    6    5    6 ar    
    7    5   17 1     
    8    6    7 ar    
    9    6   18 1     
   10    7    8 ar    
   11    7   19 1     
   12    8    9 ar    
   13    8   20 1     
   14    9   10 1     
   15   10   11 2     
   16   10   16 1     
   17   11   12 1     
   18   11   21 1     
   19   12   13 2     
   20   12   22 1     
   21   13   14 1     
   22   13   16 1     
   23   14   15 2     
   24   14   23 1     
@<TRIPOS>SUBSTRUCTURE
      1 ****           1
@<TRIPOS>COMMENT
> <Gold.Version>
2022.2.0

> <Gold.Id.Protein>
1qkm|1qkm_protein|mol2

> <Gold.Protein.RotatedTorsions>
[  496  491  490  487 ] final -117.74 input  -89.99 | X-H torsion

> <Gold.Protein.ActiveResidues>
 MET295  LEU298  THR299  LEU301  ALA302  GLU305  TRP335  MET336  LEU339  MET340 
 GLY342  LEU343  ARG346  PHE356  ILE373  ILE376  PHE377  LEU380  LYS471  GLY472 
 MET473  HIS475  LEU476  LEU477  ASN478  MET479  VAL484  VAL487 

> <Gold.Protein.RotatedAtoms>
   37.0072   34.3845   40.8150 H   0  0  0  0  0  0  0  0  0  0  0  0  # atno 496  bound_to 491 

> <Gold.Score>
     Score     S(PLP)   S(hbond)     S(cho)   S(metal)  DE(clash)   DE(tors)     intcor
     46.94     -47.02       0.00       0.00       0.00       0.00       1.43       2.78

> <Gold.PLP.Fitness>
46.9374

> <Gold.PLP.PLP>
-47.0203

> <Gold.PLP.part.hbond>
0.0000

> <Gold.PLP.part.metal>
0.0000

> <Gold.PLP.part.buried>
-3.5221

> <Gold.PLP.part.nonpolar>
-44.3817

> <Gold.PLP.part.repulsive>
0.0812

> <Gold.PLP.ligand.clash>
0.0000

> <Gold.PLP.ligand.torsion>
1.4299

> <Gold.PLP.Chemscore.Hbond>
0.0000

> <Gold.PLP.Chemscore.CHOScore>
0.0000

> <Gold.PLP.Chemscore.Metal>
0.0000

> <Gold.PLP.Chemscore.Internal.Correction>
2.7769

