#       Name:                EN300-51833_i001
#       Creating user name   aseyller
#       Creation time:       Fri Apr 21 17:39:04 2023


#       File generated by GOLD software.
#

@<TRIPOS>MOLECULE
EN300-51833_i001|benzaldehydes|mol2|310|dock13
    21    22     1
SMALL
USER_CHARGES


@<TRIPOS>ATOM
      1 O1          33.5687  36.6006  34.8425 O.2            1 <1>                0.0000
      2 C2          32.5801  37.0157  35.4094 C.2            1 <1>                0.0000
      3 C3          32.0565  36.3083  36.5852 C.ar           1 <1>                0.0000
      4 C4          32.5812  35.0633  36.9496 C.ar           1 <1>                0.0000
      5 C5          32.0854  34.4060  38.0539 C.ar           1 <1>                0.0000
      6 C6          31.0685  34.9713  38.8071 C.ar           1 <1>                0.0000
      7 C7          30.5400  36.1989  38.4600 C.ar           1 <1>                0.0000
      8 C8          31.0294  36.8798  37.3548 C.ar           1 <1>                0.0000
      9 N9          30.4962  38.1208  37.0026 N.pl3          1 <1>                0.0000
     10 C10         29.2119  38.5228  37.1900 C.2            1 <1>                0.0000
     11 C11         29.1046  39.7847  36.7148 C.2            1 <1>                0.0000
     12 C12         30.3571  40.1686  36.2220 C.2            1 <1>                0.0000
     13 N13         31.1913  39.1764  36.3983 N.2            1 <1>                0.0000
     14 H14         32.0875  37.9080  35.0524 H              1 <1>                0.0000
     15 H15         33.3735  34.6183  36.3659 H              1 <1>                0.0000
     16 H16         32.4908  33.4450  38.3341 H              1 <1>                0.0000
     17 H17         30.6866  34.4478  39.6711 H              1 <1>                0.0000
     18 H18         29.7475  36.6317  39.0524 H              1 <1>                0.0000
     19 H19         28.4200  37.9401  37.6370 H              1 <1>                0.0000
     20 H20         28.2097  40.3894  36.7151 H              1 <1>                0.0000
     21 H21         30.5954  41.1229  35.7758 H              1 <1>                0.0000
@<TRIPOS>BOND
    1    1    2 2     
    2    2    3 1     
    3    2   14 1     
    4    3    4 ar    
    5    3    8 ar    
    6    4    5 ar    
    7    4   15 1     
    8    5    6 ar    
    9    5   16 1     
   10    6    7 ar    
   11    6   17 1     
   12    7    8 ar    
   13    7   18 1     
   14    8    9 1     
   15    9   10 1     
   16    9   13 1     
   17   10   11 2     
   18   10   19 1     
   19   11   12 1     
   20   11   20 1     
   21   12   13 2     
   22   12   21 1     
@<TRIPOS>SUBSTRUCTURE
      1 ****           1
@<TRIPOS>COMMENT
> <Gold.Version>
2022.2.0

> <Gold.Id.Protein>
1qkm|1qkm_protein|mol2

> <Gold.Protein.RotatedTorsions>
[  496  491  490  487 ] final  -38.23 input  -89.99 | X-H torsion

> <Gold.Protein.ActiveResidues>
 MET295  LEU298  THR299  LEU301  ALA302  GLU305  TRP335  MET336  LEU339  MET340 
 GLY342  LEU343  ARG346  PHE356  ILE373  ILE376  PHE377  LEU380  LYS471  GLY472 
 MET473  HIS475  LEU476  LEU477  ASN478  MET479  VAL484  VAL487 

> <Gold.Protein.RotatedAtoms>
   36.3537   34.6378   41.7969 H   0  0  0  0  0  0  0  0  0  0  0  0  # atno 496  bound_to 491 

> <Gold.Score>
     Score     S(PLP)   S(hbond)     S(cho)   S(metal)  DE(clash)   DE(tors)     intcor
     43.43     -43.47       0.00       0.00       0.00       0.00       0.44       0.84

> <Gold.PLP.Fitness>
43.4263

> <Gold.PLP.PLP>
-43.4679

> <Gold.PLP.part.hbond>
0.0000

> <Gold.PLP.part.metal>
0.0000

> <Gold.PLP.part.buried>
-3.0681

> <Gold.PLP.part.nonpolar>
-41.2514

> <Gold.PLP.part.repulsive>
0.1673

> <Gold.PLP.ligand.clash>
0.0000

> <Gold.PLP.ligand.torsion>
0.4419

> <Gold.PLP.Chemscore.Hbond>
0.0000

> <Gold.PLP.Chemscore.CHOScore>
0.0000

> <Gold.PLP.Chemscore.Metal>
0.0000

> <Gold.PLP.Chemscore.Internal.Correction>
0.8423

