#       Name:                EN300-51833_i001
#       Creating user name   aseyller
#       Creation time:       Fri Apr 21 17:38:59 2023


#       File generated by GOLD software.
#

@<TRIPOS>MOLECULE
EN300-51833_i001|benzaldehydes|mol2|310|dock3
    21    22     1
SMALL
USER_CHARGES


@<TRIPOS>ATOM
      1 O1          30.5403  38.6625  37.0005 O.2            1 <1>                0.0000
      2 C2          30.0246  37.8365  37.7237 C.2            1 <1>                0.0000
      3 C3          30.6755  36.5371  37.9352 C.ar           1 <1>                0.0000
      4 C4          31.8310  36.2033  37.2197 C.ar           1 <1>                0.0000
      5 C5          32.4362  34.9829  37.4238 C.ar           1 <1>                0.0000
      6 C6          31.9068  34.0825  38.3348 C.ar           1 <1>                0.0000
      7 C7          30.7670  34.3970  39.0480 C.ar           1 <1>                0.0000
      8 C8          30.1456  35.6232  38.8614 C.ar           1 <1>                0.0000
      9 N9          28.9933  35.9426  39.5816 N.pl3          1 <1>                0.0000
     10 C10         28.7694  35.6738  40.8945 C.2            1 <1>                0.0000
     11 C11         27.5400  36.1448  41.2049 C.2            1 <1>                0.0000
     12 C12         26.9935  36.7187  40.0511 C.2            1 <1>                0.0000
     13 N13         27.8637  36.6031  39.0812 N.2            1 <1>                0.0000
     14 H14         29.0890  38.0582  38.2155 H              1 <1>                0.0000
     15 H15         32.2473  36.9013  36.5084 H              1 <1>                0.0000
     16 H16         33.3277  34.7262  36.8709 H              1 <1>                0.0000
     17 H17         32.3888  33.1282  38.4874 H              1 <1>                0.0000
     18 H18         30.3612  33.6891  39.7555 H              1 <1>                0.0000
     19 H19         29.4498  35.1740  41.5682 H              1 <1>                0.0000
     20 H20         27.0636  36.0875  42.1725 H              1 <1>                0.0000
     21 H21         26.0207  37.1818  39.9755 H              1 <1>                0.0000
@<TRIPOS>BOND
    1    1    2 2     
    2    2    3 1     
    3    2   14 1     
    4    3    4 ar    
    5    3    8 ar    
    6    4    5 ar    
    7    4   15 1     
    8    5    6 ar    
    9    5   16 1     
   10    6    7 ar    
   11    6   17 1     
   12    7    8 ar    
   13    7   18 1     
   14    8    9 1     
   15    9   10 1     
   16    9   13 1     
   17   10   11 2     
   18   10   19 1     
   19   11   12 1     
   20   11   20 1     
   21   12   13 2     
   22   12   21 1     
@<TRIPOS>SUBSTRUCTURE
      1 ****           1
@<TRIPOS>COMMENT
> <Gold.Version>
2022.2.0

> <Gold.Id.Protein>
1qkm|1qkm_protein|mol2

> <Gold.Protein.RotatedTorsions>
[  496  491  490  487 ] final -133.52 input  -89.99 | X-H torsion

> <Gold.Protein.ActiveResidues>
 MET295  LEU298  THR299  LEU301  ALA302  GLU305  TRP335  MET336  LEU339  MET340 
 GLY342  LEU343  ARG346  PHE356  ILE373  ILE376  PHE377  LEU380  LYS471  GLY472 
 MET473  HIS475  LEU476  LEU477  ASN478  MET479  VAL484  VAL487 

> <Gold.Protein.RotatedAtoms>
   37.1303   34.1702   40.7379 H   0  0  0  0  0  0  0  0  0  0  0  0  # atno 496  bound_to 491 

> <Gold.Score>
     Score     S(PLP)   S(hbond)     S(cho)   S(metal)  DE(clash)   DE(tors)     intcor
     46.65     -44.05       0.00       1.00       0.00       0.00       0.64       0.88

> <Gold.PLP.Fitness>
46.6467

> <Gold.PLP.PLP>
-44.0491

> <Gold.PLP.part.hbond>
0.0000

> <Gold.PLP.part.metal>
0.0000

> <Gold.PLP.part.buried>
-2.9885

> <Gold.PLP.part.nonpolar>
-42.1614

> <Gold.PLP.part.repulsive>
0.0000

> <Gold.PLP.ligand.clash>
0.0000

> <Gold.PLP.ligand.torsion>
0.6402

> <Gold.PLP.Chemscore.Hbond>
0.0000

> <Gold.PLP.Chemscore.CHOScore>
1.0000

> <Gold.PLP.Chemscore.Metal>
0.0000

> <Gold.Chemscore.Hbonds>
donor molecule, donor type, donor heavy atom, donor atom, acceptor molecule, acceptor atom, score
      L1  C    10    19       P1   470  1.00

> <Gold.PLP.Chemscore.Internal.Correction>
0.8781

