#       Name:                EN300-51833_i001
#       Creating user name   aseyller
#       Creation time:       Fri Apr 21 17:39:05 2023


#       File generated by GOLD software.
#

@<TRIPOS>MOLECULE
EN300-51833_i001|benzaldehydes|mol2|310|dock15
    21    22     1
SMALL
USER_CHARGES


@<TRIPOS>ATOM
      1 O1          31.7977  33.9405  38.3953 O.2            1 <1>                0.0000
      2 C2          31.0231  34.7558  38.8496 C.2            1 <1>                0.0000
      3 C3          30.8688  36.0637  38.1997 C.ar           1 <1>                0.0000
      4 C4          31.8160  36.5035  37.2682 C.ar           1 <1>                0.0000
      5 C5          31.6643  37.7312  36.6623 C.ar           1 <1>                0.0000
      6 C6          30.5776  38.5344  36.9702 C.ar           1 <1>                0.0000
      7 C7          29.6347  38.1146  37.8876 C.ar           1 <1>                0.0000
      8 C8          29.7661  36.8791  38.5047 C.ar           1 <1>                0.0000
      9 N9          28.8138  36.4533  39.4323 N.pl3          1 <1>                0.0000
     10 C10         27.4768  36.6880  39.3723 C.2            1 <1>                0.0000
     11 C11         26.9107  36.1088  40.4557 C.2            1 <1>                0.0000
     12 C12         27.9276  35.5018  41.2018 C.2            1 <1>                0.0000
     13 N13         29.0653  35.7026  40.5880 N.2            1 <1>                0.0000
     14 H14         30.4437  34.5183  39.7296 H              1 <1>                0.0000
     15 H15         32.6648  35.8816  37.0250 H              1 <1>                0.0000
     16 H16         32.3961  38.0698  35.9439 H              1 <1>                0.0000
     17 H17         30.4678  39.4953  36.4897 H              1 <1>                0.0000
     18 H18         28.7913  38.7473  38.1218 H              1 <1>                0.0000
     19 H19         26.9598  37.2377  38.5997 H              1 <1>                0.0000
     20 H20         25.8592  36.1144  40.7021 H              1 <1>                0.0000
     21 H21         27.7951  34.9568  42.1248 H              1 <1>                0.0000
@<TRIPOS>BOND
    1    1    2 2     
    2    2    3 1     
    3    2   14 1     
    4    3    4 ar    
    5    3    8 ar    
    6    4    5 ar    
    7    4   15 1     
    8    5    6 ar    
    9    5   16 1     
   10    6    7 ar    
   11    6   17 1     
   12    7    8 ar    
   13    7   18 1     
   14    8    9 1     
   15    9   10 1     
   16    9   13 1     
   17   10   11 2     
   18   10   19 1     
   19   11   12 1     
   20   11   20 1     
   21   12   13 2     
   22   12   21 1     
@<TRIPOS>SUBSTRUCTURE
      1 ****           1
@<TRIPOS>COMMENT
> <Gold.Version>
2022.2.0

> <Gold.Id.Protein>
1qkm|1qkm_protein|mol2

> <Gold.Protein.RotatedTorsions>
[  496  491  490  487 ] final   61.93 input  -89.99 | X-H torsion

> <Gold.Protein.ActiveResidues>
 MET295  LEU298  THR299  LEU301  ALA302  GLU305  TRP335  MET336  LEU339  MET340 
 GLY342  LEU343  ARG346  PHE356  ILE373  ILE376  PHE377  LEU380  LYS471  GLY472 
 MET473  HIS475  LEU476  LEU477  ASN478  MET479  VAL484  VAL487 

> <Gold.Protein.RotatedAtoms>
   36.5676   33.2949   42.2907 H   0  0  0  0  0  0  0  0  0  0  0  0  # atno 496  bound_to 491 

> <Gold.Score>
     Score     S(PLP)   S(hbond)     S(cho)   S(metal)  DE(clash)   DE(tors)     intcor
     44.16     -41.45       0.00       1.00       0.00       0.00       0.57       0.84

> <Gold.PLP.Fitness>
44.1590

> <Gold.PLP.PLP>
-41.4495

> <Gold.PLP.part.hbond>
0.0000

> <Gold.PLP.part.metal>
0.0000

> <Gold.PLP.part.buried>
-3.6662

> <Gold.PLP.part.nonpolar>
-38.6665

> <Gold.PLP.part.repulsive>
0.1805

> <Gold.PLP.ligand.clash>
0.0000

> <Gold.PLP.ligand.torsion>
0.5664

> <Gold.PLP.Chemscore.Hbond>
0.0000

> <Gold.PLP.Chemscore.CHOScore>
1.0000

> <Gold.PLP.Chemscore.Metal>
0.0000

> <Gold.Chemscore.Hbonds>
donor molecule, donor type, donor heavy atom, donor atom, acceptor molecule, acceptor atom, score
      L1  C    12    21       P1   582  1.00

> <Gold.PLP.Chemscore.Internal.Correction>
0.8423

