#       Name:                EN300-51833_i001
#       Creating user name   aseyller
#       Creation time:       Fri Apr 21 17:39:07 2023


#       File generated by GOLD software.
#

@<TRIPOS>MOLECULE
EN300-51833_i001|benzaldehydes|mol2|310|dock20
    21    22     1
SMALL
USER_CHARGES


@<TRIPOS>ATOM
      1 O1          31.0523  35.2630  39.0879 O.2            1 <1>                0.0000
      2 C2          30.5139  36.2921  38.7383 C.2            1 <1>                0.0000
      3 C3          29.0643  36.4566  38.9073 C.ar           1 <1>                0.0000
      4 C4          28.3628  35.6425  39.8037 C.ar           1 <1>                0.0000
      5 C5          27.0034  35.8029  39.9572 C.ar           1 <1>                0.0000
      6 C6          26.3254  36.7671  39.2282 C.ar           1 <1>                0.0000
      7 C7          27.0035  37.5779  38.3394 C.ar           1 <1>                0.0000
      8 C8          28.3735  37.4362  38.1744 C.ar           1 <1>                0.0000
      9 N9          29.0604  38.2549  37.2764 N.pl3          1 <1>                0.0000
     10 C10         28.7779  39.5552  37.0011 C.2            1 <1>                0.0000
     11 C11         29.6740  39.9831  36.0827 C.2            1 <1>                0.0000
     12 C12         30.5306  38.9167  35.7856 C.2            1 <1>                0.0000
     13 N13         30.1679  37.8844  36.5026 N.2            1 <1>                0.0000
     14 H14         31.1011  37.0893  38.3069 H              1 <1>                0.0000
     15 H15         28.8863  34.8894  40.3739 H              1 <1>                0.0000
     16 H16         26.4630  35.1739  40.6490 H              1 <1>                0.0000
     17 H17         25.2595  36.8849  39.3558 H              1 <1>                0.0000
     18 H18         26.4670  38.3263  37.7752 H              1 <1>                0.0000
     19 H19         27.9816  40.1407  37.4365 H              1 <1>                0.0000
     20 H20         29.7201  40.9732  35.6537 H              1 <1>                0.0000
     21 H21         31.3534  38.9429  35.0864 H              1 <1>                0.0000
@<TRIPOS>BOND
    1    1    2 2     
    2    2    3 1     
    3    2   14 1     
    4    3    4 ar    
    5    3    8 ar    
    6    4    5 ar    
    7    4   15 1     
    8    5    6 ar    
    9    5   16 1     
   10    6    7 ar    
   11    6   17 1     
   12    7    8 ar    
   13    7   18 1     
   14    8    9 1     
   15    9   10 1     
   16    9   13 1     
   17   10   11 2     
   18   10   19 1     
   19   11   12 1     
   20   11   20 1     
   21   12   13 2     
   22   12   21 1     
@<TRIPOS>SUBSTRUCTURE
      1 ****           1
@<TRIPOS>COMMENT
> <Gold.Version>
2022.2.0

> <Gold.Id.Protein>
1qkm|1qkm_protein|mol2

> <Gold.Protein.RotatedTorsions>
[  496  491  490  487 ] final -114.13 input  -89.99 | X-H torsion

> <Gold.Protein.ActiveResidues>
 MET295  LEU298  THR299  LEU301  ALA302  GLU305  TRP335  MET336  LEU339  MET340 
 GLY342  LEU343  ARG346  PHE356  ILE373  ILE376  PHE377  LEU380  LYS471  GLY472 
 MET473  HIS475  LEU476  LEU477  ASN478  MET479  VAL484  VAL487 

> <Gold.Protein.RotatedAtoms>
   36.9763   34.4284   40.8408 H   0  0  0  0  0  0  0  0  0  0  0  0  # atno 496  bound_to 491 

> <Gold.Score>
     Score     S(PLP)   S(hbond)     S(cho)   S(metal)  DE(clash)   DE(tors)     intcor
     43.52     -43.78       0.00       0.00       0.00       0.00       0.55       0.84

> <Gold.PLP.Fitness>
43.5161

> <Gold.PLP.PLP>
-43.7774

> <Gold.PLP.part.hbond>
0.0000

> <Gold.PLP.part.metal>
0.0000

> <Gold.PLP.part.buried>
-2.8204

> <Gold.PLP.part.nonpolar>
-40.7977

> <Gold.PLP.part.repulsive>
0.4248

> <Gold.PLP.ligand.clash>
0.0000

> <Gold.PLP.ligand.torsion>
0.5518

> <Gold.PLP.Chemscore.Hbond>
0.0000

> <Gold.PLP.Chemscore.CHOScore>
0.0000

> <Gold.PLP.Chemscore.Metal>
0.0000

> <Gold.PLP.Chemscore.Internal.Correction>
0.8423

