#       Name:                EN300-51833_i001
#       Creating user name   aseyller
#       Creation time:       Fri Apr 21 17:39:02 2023


#       File generated by GOLD software.
#

@<TRIPOS>MOLECULE
EN300-51833_i001|benzaldehydes|mol2|310|dock8
    21    22     1
SMALL
USER_CHARGES


@<TRIPOS>ATOM
      1 O1          32.0129  34.9027  38.4024 O.2            1 <1>                0.0000
      2 C2          30.9877  35.4147  38.7997 C.2            1 <1>                0.0000
      3 C3          30.3852  36.5269  38.0533 C.ar           1 <1>                0.0000
      4 C4          30.9950  37.0054  36.8882 C.ar           1 <1>                0.0000
      5 C5          30.4238  38.0485  36.1931 C.ar           1 <1>                0.0000
      6 C6          29.2471  38.6274  36.6416 C.ar           1 <1>                0.0000
      7 C7          28.6336  38.1667  37.7897 C.ar           1 <1>                0.0000
      8 C8          29.1897  37.1135  38.5010 C.ar           1 <1>                0.0000
      9 N9          28.5708  36.6466  39.6618 N.pl3          1 <1>                0.0000
     10 C10         29.1457  36.5403  40.8884 C.2            1 <1>                0.0000
     11 C11         28.2133  36.0489  41.7362 C.2            1 <1>                0.0000
     12 C12         27.0333  35.8477  41.0108 C.2            1 <1>                0.0000
     13 N13         27.2443  36.2097  39.7715 N.2            1 <1>                0.0000
     14 H14         30.5155  35.0500  39.6999 H              1 <1>                0.0000
     15 H15         31.9122  36.5579  36.5347 H              1 <1>                0.0000
     16 H16         30.8954  38.4172  35.2943 H              1 <1>                0.0000
     17 H17         28.8073  39.4448  36.0894 H              1 <1>                0.0000
     18 H18         27.7171  38.6242  38.1320 H              1 <1>                0.0000
     19 H19         30.1631  36.8006  41.1405 H              1 <1>                0.0000
     20 H20         28.3547  35.8467  42.7877 H              1 <1>                0.0000
     21 H21         26.1053  35.4630  41.4076 H              1 <1>                0.0000
@<TRIPOS>BOND
    1    1    2 2     
    2    2    3 1     
    3    2   14 1     
    4    3    4 ar    
    5    3    8 ar    
    6    4    5 ar    
    7    4   15 1     
    8    5    6 ar    
    9    5   16 1     
   10    6    7 ar    
   11    6   17 1     
   12    7    8 ar    
   13    7   18 1     
   14    8    9 1     
   15    9   10 1     
   16    9   13 1     
   17   10   11 2     
   18   10   19 1     
   19   11   12 1     
   20   11   20 1     
   21   12   13 2     
   22   12   21 1     
@<TRIPOS>SUBSTRUCTURE
      1 ****           1
@<TRIPOS>COMMENT
> <Gold.Version>
2022.2.0

> <Gold.Id.Protein>
1qkm|1qkm_protein|mol2

> <Gold.Protein.RotatedTorsions>
[  496  491  490  487 ] final  134.25 input  -89.99 | X-H torsion

> <Gold.Protein.ActiveResidues>
 MET295  LEU298  THR299  LEU301  ALA302  GLU305  TRP335  MET336  LEU339  MET340 
 GLY342  LEU343  ARG346  PHE356  ILE373  ILE376  PHE377  LEU380  LYS471  GLY472 
 MET473  HIS475  LEU476  LEU477  ASN478  MET479  VAL484  VAL487 

> <Gold.Protein.RotatedAtoms>
   37.1805   32.9910   41.4127 H   0  0  0  0  0  0  0  0  0  0  0  0  # atno 496  bound_to 491 

> <Gold.Score>
     Score     S(PLP)   S(hbond)     S(cho)   S(metal)  DE(clash)   DE(tors)     intcor
     44.95     -41.24       0.00       1.62       0.00       0.00       1.01       0.86

> <Gold.PLP.Fitness>
44.9474

> <Gold.PLP.PLP>
-41.2351

> <Gold.PLP.part.hbond>
0.0000

> <Gold.PLP.part.metal>
0.0000

> <Gold.PLP.part.buried>
-1.7920

> <Gold.PLP.part.nonpolar>
-40.0157

> <Gold.PLP.part.repulsive>
0.1074

> <Gold.PLP.ligand.clash>
0.0000

> <Gold.PLP.ligand.torsion>
1.0074

> <Gold.PLP.Chemscore.Hbond>
0.0000

> <Gold.PLP.Chemscore.CHOScore>
1.6208

> <Gold.PLP.Chemscore.Metal>
0.0000

> <Gold.Chemscore.Hbonds>
donor molecule, donor type, donor heavy atom, donor atom, acceptor molecule, acceptor atom, score
      L1  C    10    19       P1   470  0.85
      L1  C    12    21       P1   582  0.77

> <Gold.PLP.Chemscore.Internal.Correction>
0.8647

