#       Name:                EN300-51833_i001
#       Creating user name   aseyller
#       Creation time:       Fri Apr 21 17:39:01 2023


#       File generated by GOLD software.
#

@<TRIPOS>MOLECULE
EN300-51833_i001|benzaldehydes|mol2|310|dock6
    21    22     1
SMALL
USER_CHARGES


@<TRIPOS>ATOM
      1 O1          28.5904  39.1404  36.7771 O.2            1 <1>                0.0000
      2 C2          28.6704  38.2443  37.5905 C.2            1 <1>                0.0000
      3 C3          29.9072  37.4599  37.6996 C.ar           1 <1>                0.0000
      4 C4          30.9580  37.6729  36.8003 C.ar           1 <1>                0.0000
      5 C5          32.1153  36.9338  36.9091 C.ar           1 <1>                0.0000
      6 C6          32.2451  35.9790  37.9054 C.ar           1 <1>                0.0000
      7 C7          31.2170  35.7569  38.8000 C.ar           1 <1>                0.0000
      8 C8          30.0456  36.4947  38.7111 C.ar           1 <1>                0.0000
      9 N9          29.0053  36.2713  39.6147 N.pl3          1 <1>                0.0000
     10 C10         27.7215  35.9600  39.2966 C.2            1 <1>                0.0000
     11 C11         27.0343  35.8254  40.4539 C.2            1 <1>                0.0000
     12 C12         27.9200  36.0605  41.5119 C.2            1 <1>                0.0000
     13 N13         29.1001  36.3219  41.0115 N.2            1 <1>                0.0000
     14 H14         27.8337  38.0261  38.2377 H              1 <1>                0.0000
     15 H15         30.8618  38.4155  36.0219 H              1 <1>                0.0000
     16 H16         32.9254  37.0988  36.2144 H              1 <1>                0.0000
     17 H17         33.1565  35.4047  37.9822 H              1 <1>                0.0000
     18 H18         31.3267  35.0106  39.5729 H              1 <1>                0.0000
     19 H19         27.3221  35.8419  38.3002 H              1 <1>                0.0000
     20 H20         25.9864  35.5804  40.5454 H              1 <1>                0.0000
     21 H21         27.6723  36.0275  42.5627 H              1 <1>                0.0000
@<TRIPOS>BOND
    1    1    2 2     
    2    2    3 1     
    3    2   14 1     
    4    3    4 ar    
    5    3    8 ar    
    6    4    5 ar    
    7    4   15 1     
    8    5    6 ar    
    9    5   16 1     
   10    6    7 ar    
   11    6   17 1     
   12    7    8 ar    
   13    7   18 1     
   14    8    9 1     
   15    9   10 1     
   16    9   13 1     
   17   10   11 2     
   18   10   19 1     
   19   11   12 1     
   20   11   20 1     
   21   12   13 2     
   22   12   21 1     
@<TRIPOS>SUBSTRUCTURE
      1 ****           1
@<TRIPOS>COMMENT
> <Gold.Version>
2022.2.0

> <Gold.Id.Protein>
1qkm|1qkm_protein|mol2

> <Gold.Protein.RotatedTorsions>
[  496  491  490  487 ] final -171.82 input  -89.99 | X-H torsion

> <Gold.Protein.ActiveResidues>
 MET295  LEU298  THR299  LEU301  ALA302  GLU305  TRP335  MET336  LEU339  MET340 
 GLY342  LEU343  ARG346  PHE356  ILE373  ILE376  PHE377  LEU380  LYS471  GLY472 
 MET473  HIS475  LEU476  LEU477  ASN478  MET479  VAL484  VAL487 

> <Gold.Protein.RotatedAtoms>
   37.3080   33.5815   40.8072 H   0  0  0  0  0  0  0  0  0  0  0  0  # atno 496  bound_to 491 

> <Gold.Score>
     Score     S(PLP)   S(hbond)     S(cho)   S(metal)  DE(clash)   DE(tors)     intcor
     44.94     -43.11       0.00       1.00       0.00       0.00       1.02       0.86

> <Gold.PLP.Fitness>
44.9412

> <Gold.PLP.PLP>
-43.1076

> <Gold.PLP.part.hbond>
0.0000

> <Gold.PLP.part.metal>
0.0000

> <Gold.PLP.part.buried>
-3.5180

> <Gold.PLP.part.nonpolar>
-39.7058

> <Gold.PLP.part.repulsive>
0.1246

> <Gold.PLP.ligand.clash>
0.0000

> <Gold.PLP.ligand.torsion>
1.0155

> <Gold.PLP.Chemscore.Hbond>
0.0000

> <Gold.PLP.Chemscore.CHOScore>
1.0000

> <Gold.PLP.Chemscore.Metal>
0.0000

> <Gold.Chemscore.Hbonds>
donor molecule, donor type, donor heavy atom, donor atom, acceptor molecule, acceptor atom, score
      L1  C    12    21       P1   582  1.00

> <Gold.PLP.Chemscore.Internal.Correction>
0.8647

