#       Name:                EN300-51833_i001
#       Creating user name   aseyller
#       Creation time:       Fri Apr 21 17:38:59 2023


#       File generated by GOLD software.
#

@<TRIPOS>MOLECULE
EN300-51833_i001|benzaldehydes|mol2|310|dock2
    21    22     1
SMALL
USER_CHARGES


@<TRIPOS>ATOM
      1 O1          30.2379  38.9469  37.1936 O.2            1 <1>                0.0000
      2 C2          29.8000  38.1292  37.9752 C.2            1 <1>                0.0000
      3 C3          30.4918  36.8471  38.1610 C.ar           1 <1>                0.0000
      4 C4          31.7582  36.6425  37.6017 C.ar           1 <1>                0.0000
      5 C5          32.4011  35.4375  37.7806 C.ar           1 <1>                0.0000
      6 C6          31.8003  34.4253  38.5124 C.ar           1 <1>                0.0000
      7 C7          30.5509  34.6118  39.0701 C.ar           1 <1>                0.0000
      8 C8          29.8891  35.8199  38.9064 C.ar           1 <1>                0.0000
      9 N9          28.6261  36.0100  39.4696 N.pl3          1 <1>                0.0000
     10 C10         27.4875  36.3202  38.7959 C.2            1 <1>                0.0000
     11 C11         26.4885  36.4155  39.7029 C.2            1 <1>                0.0000
     12 C12         27.0279  36.1568  40.9683 C.2            1 <1>                0.0000
     13 N13         28.3049  35.9090  40.8294 N.2            1 <1>                0.0000
     14 H14         28.9039  38.3458  38.5378 H              1 <1>                0.0000
     15 H15         32.2305  37.4279  37.0304 H              1 <1>                0.0000
     16 H16         33.3782  35.2806  37.3483 H              1 <1>                0.0000
     17 H17         32.3128  33.4842  38.6468 H              1 <1>                0.0000
     18 H18         30.0902  33.8173  39.6384 H              1 <1>                0.0000
     19 H19         27.3968  36.4649  37.7295 H              1 <1>                0.0000
     20 H20         25.4564  36.6504  39.4884 H              1 <1>                0.0000
     21 H21         26.4820  36.1575  41.9003 H              1 <1>                0.0000
@<TRIPOS>BOND
    1    1    2 2     
    2    2    3 1     
    3    2   14 1     
    4    3    4 ar    
    5    3    8 ar    
    6    4    5 ar    
    7    4   15 1     
    8    5    6 ar    
    9    5   16 1     
   10    6    7 ar    
   11    6   17 1     
   12    7    8 ar    
   13    7   18 1     
   14    8    9 1     
   15    9   10 1     
   16    9   13 1     
   17   10   11 2     
   18   10   19 1     
   19   11   12 1     
   20   11   20 1     
   21   12   13 2     
   22   12   21 1     
@<TRIPOS>SUBSTRUCTURE
      1 ****           1
@<TRIPOS>COMMENT
> <Gold.Version>
2022.2.0

> <Gold.Id.Protein>
1qkm|1qkm_protein|mol2

> <Gold.Protein.RotatedTorsions>
[  496  491  490  487 ] final  -32.06 input  -89.99 | X-H torsion

> <Gold.Protein.ActiveResidues>
 MET295  LEU298  THR299  LEU301  ALA302  GLU305  TRP335  MET336  LEU339  MET340 
 GLY342  LEU343  ARG346  PHE356  ILE373  ILE376  PHE377  LEU380  LYS471  GLY472 
 MET473  HIS475  LEU476  LEU477  ASN478  MET479  VAL484  VAL487 

> <Gold.Protein.RotatedAtoms>
   36.3237   34.5892   41.8809 H   0  0  0  0  0  0  0  0  0  0  0  0  # atno 496  bound_to 491 

> <Gold.Score>
     Score     S(PLP)   S(hbond)     S(cho)   S(metal)  DE(clash)   DE(tors)     intcor
     46.28     -44.62       0.00       1.00       0.00       0.00       1.11       0.88

> <Gold.PLP.Fitness>
46.2764

> <Gold.PLP.PLP>
-44.6196

> <Gold.PLP.part.hbond>
0.0000

> <Gold.PLP.part.metal>
0.0000

> <Gold.PLP.part.buried>
-3.5780

> <Gold.PLP.part.nonpolar>
-41.5905

> <Gold.PLP.part.repulsive>
0.1174

> <Gold.PLP.ligand.clash>
0.0000

> <Gold.PLP.ligand.torsion>
1.1107

> <Gold.PLP.Chemscore.Hbond>
0.0000

> <Gold.PLP.Chemscore.CHOScore>
1.0000

> <Gold.PLP.Chemscore.Metal>
0.0000

> <Gold.Chemscore.Hbonds>
donor molecule, donor type, donor heavy atom, donor atom, acceptor molecule, acceptor atom, score
      L1  C    12    21       P1   582  1.00

> <Gold.PLP.Chemscore.Internal.Correction>
0.8781

