#       Name:                EN300-51833_i001
#       Creating user name   aseyller
#       Creation time:       Fri Apr 21 17:39:06 2023


#       File generated by GOLD software.
#

@<TRIPOS>MOLECULE
EN300-51833_i001|benzaldehydes|mol2|310|dock17
    21    22     1
SMALL
USER_CHARGES


@<TRIPOS>ATOM
      1 O1          28.5081  35.5017  42.3305 O.2            1 <1>                0.0000
      2 C2          28.7906  35.8788  41.2129 C.2            1 <1>                0.0000
      3 C3          27.7653  36.5048  40.3681 C.ar           1 <1>                0.0000
      4 C4          26.4607  36.6676  40.8476 C.ar           1 <1>                0.0000
      5 C5          25.5045  37.2561  40.0496 C.ar           1 <1>                0.0000
      6 C6          25.8274  37.6885  38.7731 C.ar           1 <1>                0.0000
      7 C7          27.1101  37.5346  38.2855 C.ar           1 <1>                0.0000
      8 C8          28.0891  36.9496  39.0753 C.ar           1 <1>                0.0000
      9 N9          29.3863  36.7932  38.5840 N.pl3          1 <1>                0.0000
     10 C10         30.0223  37.6292  37.7221 C.2            1 <1>                0.0000
     11 C11         31.2568  37.1241  37.4979 C.2            1 <1>                0.0000
     12 C12         31.3829  35.9454  38.2423 C.2            1 <1>                0.0000
     13 N13         30.2669  35.7494  38.8962 N.2            1 <1>                0.0000
     14 H14         29.7972  35.7583  40.8406 H              1 <1>                0.0000
     15 H15         26.2039  36.3321  41.8415 H              1 <1>                0.0000
     16 H16         24.4980  37.3809  40.4205 H              1 <1>                0.0000
     17 H17         25.0704  38.1487  38.1553 H              1 <1>                0.0000
     18 H18         27.3526  37.8741  37.2894 H              1 <1>                0.0000
     19 H19         29.6154  38.5332  37.2934 H              1 <1>                0.0000
     20 H20         32.0121  37.5541  36.8568 H              1 <1>                0.0000
     21 H21         32.2545  35.3084  38.2745 H              1 <1>                0.0000
@<TRIPOS>BOND
    1    1    2 2     
    2    2    3 1     
    3    2   14 1     
    4    3    4 ar    
    5    3    8 ar    
    6    4    5 ar    
    7    4   15 1     
    8    5    6 ar    
    9    5   16 1     
   10    6    7 ar    
   11    6   17 1     
   12    7    8 ar    
   13    7   18 1     
   14    8    9 1     
   15    9   10 1     
   16    9   13 1     
   17   10   11 2     
   18   10   19 1     
   19   11   12 1     
   20   11   20 1     
   21   12   13 2     
   22   12   21 1     
@<TRIPOS>SUBSTRUCTURE
      1 ****           1
@<TRIPOS>COMMENT
> <Gold.Version>
2022.2.0

> <Gold.Id.Protein>
1qkm|1qkm_protein|mol2

> <Gold.Protein.RotatedTorsions>
[  496  491  490  487 ] final -103.76 input  -89.99 | X-H torsion

> <Gold.Protein.ActiveResidues>
 MET295  LEU298  THR299  LEU301  ALA302  GLU305  TRP335  MET336  LEU339  MET340 
 GLY342  LEU343  ARG346  PHE356  ILE373  ILE376  PHE377  LEU380  LYS471  GLY472 
 MET473  HIS475  LEU476  LEU477  ASN478  MET479  VAL484  VAL487 

> <Gold.Protein.RotatedAtoms>
   36.8841   34.5404   40.9300 H   0  0  0  0  0  0  0  0  0  0  0  0  # atno 496  bound_to 491 

> <Gold.Score>
     Score     S(PLP)   S(hbond)     S(cho)   S(metal)  DE(clash)   DE(tors)     intcor
     44.62     -44.64       0.00       0.00       0.00       0.00       0.43       0.84

> <Gold.PLP.Fitness>
44.6210

> <Gold.PLP.PLP>
-44.6417

> <Gold.PLP.part.hbond>
-0.7904

> <Gold.PLP.part.metal>
0.0000

> <Gold.PLP.part.buried>
-1.6093

> <Gold.PLP.part.nonpolar>
-43.2419

> <Gold.PLP.part.repulsive>
1.2553

> <Gold.PLP.ligand.clash>
0.0000

> <Gold.PLP.ligand.torsion>
0.4315

> <Gold.PLP.Chemscore.Hbond>
0.0000

> <Gold.PLP.Chemscore.CHOScore>
0.0000

> <Gold.PLP.Chemscore.Metal>
0.0000

> <Gold.PLP.Chemscore.Internal.Correction>
0.8423

