#       Name:                EN300-51833_i001
#       Creating user name   aseyller
#       Creation time:       Fri Apr 21 17:39:00 2023


#       File generated by GOLD software.
#

@<TRIPOS>MOLECULE
EN300-51833_i001|benzaldehydes|mol2|310|dock4
    21    22     1
SMALL
USER_CHARGES


@<TRIPOS>ATOM
      1 O1          28.0777  38.4387  37.2674 O.2            1 <1>                0.0000
      2 C2          27.5789  37.3885  37.6129 C.2            1 <1>                0.0000
      3 C3          27.5872  37.0027  39.0299 C.ar           1 <1>                0.0000
      4 C4          26.4097  37.0641  39.7836 C.ar           1 <1>                0.0000
      5 C5          26.4251  36.7001  41.1120 C.ar           1 <1>                0.0000
      6 C6          27.6016  36.2729  41.7072 C.ar           1 <1>                0.0000
      7 C7          28.7717  36.2073  40.9770 C.ar           1 <1>                0.0000
      8 C8          28.7762  36.5639  39.6364 C.ar           1 <1>                0.0000
      9 N9          29.9582  36.4982  38.8968 N.pl3          1 <1>                0.0000
     10 C10         30.9614  35.5981  39.0689 C.2            1 <1>                0.0000
     11 C11         31.9202  35.8743  38.1556 C.2            1 <1>                0.0000
     12 C12         31.4946  36.9742  37.4018 C.2            1 <1>                0.0000
     13 N13         30.3192  37.3448  37.8406 N.2            1 <1>                0.0000
     14 H14         27.1246  36.7392  36.8791 H              1 <1>                0.0000
     15 H15         25.4903  37.3966  39.3246 H              1 <1>                0.0000
     16 H16         25.5159  36.7482  41.6927 H              1 <1>                0.0000
     17 H17         27.6031  35.9898  42.7494 H              1 <1>                0.0000
     18 H18         29.6839  35.8736  41.4491 H              1 <1>                0.0000
     19 H19         30.9884  34.8058  39.8024 H              1 <1>                0.0000
     20 H20         32.8507  35.3405  38.0305 H              1 <1>                0.0000
     21 H21         32.0415  37.4357  36.5928 H              1 <1>                0.0000
@<TRIPOS>BOND
    1    1    2 2     
    2    2    3 1     
    3    2   14 1     
    4    3    4 ar    
    5    3    8 ar    
    6    4    5 ar    
    7    4   15 1     
    8    5    6 ar    
    9    5   16 1     
   10    6    7 ar    
   11    6   17 1     
   12    7    8 ar    
   13    7   18 1     
   14    8    9 1     
   15    9   10 1     
   16    9   13 1     
   17   10   11 2     
   18   10   19 1     
   19   11   12 1     
   20   11   20 1     
   21   12   13 2     
   22   12   21 1     
@<TRIPOS>SUBSTRUCTURE
      1 ****           1
@<TRIPOS>COMMENT
> <Gold.Version>
2022.2.0

> <Gold.Id.Protein>
1qkm|1qkm_protein|mol2

> <Gold.Protein.RotatedTorsions>
[  496  491  490  487 ] final  116.25 input  -89.99 | X-H torsion

> <Gold.Protein.ActiveResidues>
 MET295  LEU298  THR299  LEU301  ALA302  GLU305  TRP335  MET336  LEU339  MET340 
 GLY342  LEU343  ARG346  PHE356  ILE373  ILE376  PHE377  LEU380  LYS471  GLY472 
 MET473  HIS475  LEU476  LEU477  ASN478  MET479  VAL484  VAL487 

> <Gold.Protein.RotatedAtoms>
   37.0510   32.9398   41.6728 H   0  0  0  0  0  0  0  0  0  0  0  0  # atno 496  bound_to 491 

> <Gold.Score>
     Score     S(PLP)   S(hbond)     S(cho)   S(metal)  DE(clash)   DE(tors)     intcor
     46.66     -45.43       0.00       0.87       0.00       0.00       1.12       0.88

> <Gold.PLP.Fitness>
46.6611

> <Gold.PLP.PLP>
-45.4327

> <Gold.PLP.part.hbond>
0.0000

> <Gold.PLP.part.metal>
0.0000

> <Gold.PLP.part.buried>
-1.3627

> <Gold.PLP.part.nonpolar>
-44.2015

> <Gold.PLP.part.repulsive>
0.0000

> <Gold.PLP.ligand.clash>
0.0000

> <Gold.PLP.ligand.torsion>
1.1232

> <Gold.PLP.Chemscore.Hbond>
0.0000

> <Gold.PLP.Chemscore.CHOScore>
0.8655

> <Gold.PLP.Chemscore.Metal>
0.0000

> <Gold.Chemscore.Hbonds>
donor molecule, donor type, donor heavy atom, donor atom, acceptor molecule, acceptor atom, score
      L1  C    10    19       P1   470  0.87

> <Gold.PLP.Chemscore.Internal.Correction>
0.8781

