#       Name:                EN300-51833_i001
#       Creating user name   aseyller
#       Creation time:       Fri Apr 21 17:39:01 2023


#       File generated by GOLD software.
#

@<TRIPOS>MOLECULE
EN300-51833_i001|benzaldehydes|mol2|310|dock7
    21    22     1
SMALL
USER_CHARGES


@<TRIPOS>ATOM
      1 O1          29.1047  39.8520  36.5273 O.2            1 <1>                0.0000
      2 C2          29.3491  38.6941  36.7930 C.2            1 <1>                0.0000
      3 C3          28.4137  37.9162  37.6156 C.ar           1 <1>                0.0000
      4 C4          27.0898  38.3424  37.7708 C.ar           1 <1>                0.0000
      5 C5          26.2180  37.6074  38.5434 C.ar           1 <1>                0.0000
      6 C6          26.6450  36.4466  39.1689 C.ar           1 <1>                0.0000
      7 C7          27.9483  36.0132  39.0258 C.ar           1 <1>                0.0000
      8 C8          28.8404  36.7360  38.2473 C.ar           1 <1>                0.0000
      9 N9          30.1582  36.2993  38.1017 N.pl3          1 <1>                0.0000
     10 C10         30.8853  35.6246  39.0304 C.2            1 <1>                0.0000
     11 C11         32.1073  35.3884  38.5006 C.2            1 <1>                0.0000
     12 C12         32.1317  35.9327  37.2113 C.2            1 <1>                0.0000
     13 N13         30.9650  36.4730  36.9698 N.2            1 <1>                0.0000
     14 H14         30.2526  38.2338  36.4210 H              1 <1>                0.0000
     15 H15         26.7522  39.2465  37.2857 H              1 <1>                0.0000
     16 H16         25.1967  37.9374  38.6627 H              1 <1>                0.0000
     17 H17         25.9536  35.8774  39.7726 H              1 <1>                0.0000
     18 H18         28.2723  35.1077  39.5172 H              1 <1>                0.0000
     19 H19         30.5486  35.3307  40.0136 H              1 <1>                0.0000
     20 H20         32.9212  34.8713  38.9872 H              1 <1>                0.0000
     21 H21         32.9697  35.9074  36.5304 H              1 <1>                0.0000
@<TRIPOS>BOND
    1    1    2 2     
    2    2    3 1     
    3    2   14 1     
    4    3    4 ar    
    5    3    8 ar    
    6    4    5 ar    
    7    4   15 1     
    8    5    6 ar    
    9    5   16 1     
   10    6    7 ar    
   11    6   17 1     
   12    7    8 ar    
   13    7   18 1     
   14    8    9 1     
   15    9   10 1     
   16    9   13 1     
   17   10   11 2     
   18   10   19 1     
   19   11   12 1     
   20   11   20 1     
   21   12   13 2     
   22   12   21 1     
@<TRIPOS>SUBSTRUCTURE
      1 ****           1
@<TRIPOS>COMMENT
> <Gold.Version>
2022.2.0

> <Gold.Id.Protein>
1qkm|1qkm_protein|mol2

> <Gold.Protein.RotatedTorsions>
[  496  491  490  487 ] final  -65.93 input  -89.99 | X-H torsion

> <Gold.Protein.ActiveResidues>
 MET295  LEU298  THR299  LEU301  ALA302  GLU305  TRP335  MET336  LEU339  MET340 
 GLY342  LEU343  ARG346  PHE356  ILE373  ILE376  PHE377  LEU380  LYS471  GLY472 
 MET473  HIS475  LEU476  LEU477  ASN478  MET479  VAL484  VAL487 

> <Gold.Protein.RotatedAtoms>
   36.5443   34.7357   41.3994 H   0  0  0  0  0  0  0  0  0  0  0  0  # atno 496  bound_to 491 

> <Gold.Score>
     Score     S(PLP)   S(hbond)     S(cho)   S(metal)  DE(clash)   DE(tors)     intcor
     45.10     -42.31       0.00       0.98       0.00       0.00       0.50       0.86

> <Gold.PLP.Fitness>
45.0971

> <Gold.PLP.PLP>
-42.3094

> <Gold.PLP.part.hbond>
0.0000

> <Gold.PLP.part.metal>
0.0000

> <Gold.PLP.part.buried>
-2.0839

> <Gold.PLP.part.nonpolar>
-40.5226

> <Gold.PLP.part.repulsive>
0.0000

> <Gold.PLP.ligand.clash>
0.0000

> <Gold.PLP.ligand.torsion>
0.5014

> <Gold.PLP.Chemscore.Hbond>
0.0000

> <Gold.PLP.Chemscore.CHOScore>
0.9753

> <Gold.PLP.Chemscore.Metal>
0.0000

> <Gold.Chemscore.Hbonds>
donor molecule, donor type, donor heavy atom, donor atom, acceptor molecule, acceptor atom, score
      L1  C    10    19       P1   470  0.98

> <Gold.PLP.Chemscore.Internal.Correction>
0.8647

