#       Name:                EN300-51833_i001
#       Creating user name   aseyller
#       Creation time:       Fri Apr 21 17:38:58 2023


#       File generated by GOLD software.
#

@<TRIPOS>MOLECULE
EN300-51833_i001
    21    22     1
SMALL
USER_CHARGES


@<TRIPOS>ATOM
      1 O1           1.3434  -3.1360   0.1429 O.2            1 <1>                0.0000
      2 C2           0.5916  -2.1842   0.1462 C.2            1 <1>                0.0000
      3 C3           1.1289  -0.8236   0.0158 C.ar           1 <1>                0.0000
      4 C4           2.5120  -0.6112  -0.0019 C.ar           1 <1>                0.0000
      5 C5           3.0086   0.6677  -0.1250 C.ar           1 <1>                0.0000
      6 C6           2.1453   1.7467  -0.2316 C.ar           1 <1>                0.0000
      7 C7           0.7781   1.5534  -0.2153 C.ar           1 <1>                0.0000
      8 C8           0.2578   0.2728  -0.0979 C.ar           1 <1>                0.0000
      9 N9          -1.1240   0.0757  -0.0812 N.pl3          1 <1>                0.0000
     10 C10         -2.0221   0.7650   0.6702 C.2            1 <1>                0.0000
     11 C11         -3.2508   0.2708   0.3950 C.2            1 <1>                0.0000
     12 C12         -3.1037  -0.7500  -0.5513 C.2            1 <1>                0.0000
     13 N13         -1.8330  -0.8640  -0.8407 N.2            1 <1>                0.0000
     14 H14         -0.4733  -2.3375   0.2406 H              1 <1>                0.0000
     15 H15          3.1890  -1.4486   0.0812 H              1 <1>                0.0000
     16 H16          4.0761   0.8305  -0.1382 H              1 <1>                0.0000
     17 H17          2.5447   2.7455  -0.3277 H              1 <1>                0.0000
     18 H18          0.1129   2.4001  -0.2985 H              1 <1>                0.0000
     19 H19         -1.7957   1.5627   1.3622 H              1 <1>                0.0000
     20 H20         -4.1815   0.6047   0.8295 H              1 <1>                0.0000
     21 H21         -3.9035  -1.3403  -0.9737 H              1 <1>                0.0000
@<TRIPOS>BOND
    1    1    2 2     
    2    2    3 1     
    3    2   14 1     
    4    3    4 ar    
    5    3    8 ar    
    6    4    5 ar    
    7    4   15 1     
    8    5    6 ar    
    9    5   16 1     
   10    6    7 ar    
   11    6   17 1     
   12    7    8 ar    
   13    7   18 1     
   14    8    9 1     
   15    9   10 1     
   16    9   13 1     
   17   10   11 2     
   18   10   19 1     
   19   11   12 1     
   20   11   20 1     
   21   12   13 2     
   22   12   21 1     
@<TRIPOS>SUBSTRUCTURE
      1 ****           1
