#       Name:                EN300-51833_i001
#       Creating user name   aseyller
#       Creation time:       Fri Apr 21 17:39:05 2023


#       File generated by GOLD software.
#

@<TRIPOS>MOLECULE
EN300-51833_i001|benzaldehydes|mol2|310|dock16
    21    22     1
SMALL
USER_CHARGES


@<TRIPOS>ATOM
      1 O1          31.8724  34.6795  37.5303 O.2            1 <1>                0.0000
      2 C2          32.6431  35.5142  37.1053 C.2            1 <1>                0.0000
      3 C3          32.1576  36.5757  36.2140 C.ar           1 <1>                0.0000
      4 C4          32.8746  36.9084  35.0592 C.ar           1 <1>                0.0000
      5 C5          32.4128  37.9048  34.2277 C.ar           1 <1>                0.0000
      6 C6          31.2407  38.5805  34.5286 C.ar           1 <1>                0.0000
      7 C7          30.5222  38.2640  35.6646 C.ar           1 <1>                0.0000
      8 C8          30.9672  37.2598  36.5119 C.ar           1 <1>                0.0000
      9 N9          30.2421  36.9387  37.6607 N.pl3          1 <1>                0.0000
     10 C10         28.8921  37.0045  37.8000 C.2            1 <1>                0.0000
     11 C11         28.5909  36.6109  39.0585 C.2            1 <1>                0.0000
     12 C12         29.7884  36.2945  39.7104 C.2            1 <1>                0.0000
     13 N13         30.7760  36.4851  38.8739 N.2            1 <1>                0.0000
     14 H14         33.6854  35.4793  37.3858 H              1 <1>                0.0000
     15 H15         33.7887  36.3852  34.8204 H              1 <1>                0.0000
     16 H16         32.9671  38.1611  33.3370 H              1 <1>                0.0000
     17 H17         30.8871  39.3602  33.8702 H              1 <1>                0.0000
     18 H18         29.6102  38.7960  35.8913 H              1 <1>                0.0000
     19 H19         28.1874  37.3154  37.0429 H              1 <1>                0.0000
     20 H20         27.6006  36.5518  39.4855 H              1 <1>                0.0000
     21 H21         29.8810  35.9481  40.7292 H              1 <1>                0.0000
@<TRIPOS>BOND
    1    1    2 2     
    2    2    3 1     
    3    2   14 1     
    4    3    4 ar    
    5    3    8 ar    
    6    4    5 ar    
    7    4   15 1     
    8    5    6 ar    
    9    5   16 1     
   10    6    7 ar    
   11    6   17 1     
   12    7    8 ar    
   13    7   18 1     
   14    8    9 1     
   15    9   10 1     
   16    9   13 1     
   17   10   11 2     
   18   10   19 1     
   19   11   12 1     
   20   11   20 1     
   21   12   13 2     
   22   12   21 1     
@<TRIPOS>SUBSTRUCTURE
      1 ****           1
@<TRIPOS>COMMENT
> <Gold.Version>
2022.2.0

> <Gold.Id.Protein>
1qkm|1qkm_protein|mol2

> <Gold.Protein.RotatedTorsions>
[  496  491  490  487 ] final  158.92 input  -89.99 | X-H torsion

> <Gold.Protein.ActiveResidues>
 MET295  LEU298  THR299  LEU301  ALA302  GLU305  TRP335  MET336  LEU339  MET340 
 GLY342  LEU343  ARG346  PHE356  ILE373  ILE376  PHE377  LEU380  LYS471  GLY472 
 MET473  HIS475  LEU476  LEU477  ASN478  MET479  VAL484  VAL487 

> <Gold.Protein.RotatedAtoms>
   37.2938   33.1934   41.0832 H   0  0  0  0  0  0  0  0  0  0  0  0  # atno 496  bound_to 491 

> <Gold.Score>
     Score     S(PLP)   S(hbond)     S(cho)   S(metal)  DE(clash)   DE(tors)     intcor
     43.30     -41.11       0.00       1.00       0.00       0.04       0.80       0.84

> <Gold.PLP.Fitness>
43.3012

> <Gold.PLP.PLP>
-41.1072

> <Gold.PLP.part.hbond>
0.0000

> <Gold.PLP.part.metal>
0.0000

> <Gold.PLP.part.buried>
-2.1313

> <Gold.PLP.part.nonpolar>
-39.3323

> <Gold.PLP.part.repulsive>
0.0941

> <Gold.PLP.ligand.clash>
0.0396

> <Gold.PLP.ligand.torsion>
0.8043

> <Gold.PLP.Chemscore.Hbond>
0.0000

> <Gold.PLP.Chemscore.CHOScore>
1.0000

> <Gold.PLP.Chemscore.Metal>
0.0000

> <Gold.Chemscore.Hbonds>
donor molecule, donor type, donor heavy atom, donor atom, acceptor molecule, acceptor atom, score
      L1  C    12    21       P1   470  1.00

> <Gold.PLP.Chemscore.Internal.Correction>
0.8423

