#       Name:                EN300-51833_i001
#       Creating user name   aseyller
#       Creation time:       Fri Apr 21 17:39:04 2023


#       File generated by GOLD software.
#

@<TRIPOS>MOLECULE
EN300-51833_i001|benzaldehydes|mol2|310|dock14
    21    22     1
SMALL
USER_CHARGES


@<TRIPOS>ATOM
      1 O1          29.9906  39.3166  35.8666 O.2            1 <1>                0.0000
      2 C2          29.7584  38.4290  36.6600 C.2            1 <1>                0.0000
      3 C3          30.7941  37.4368  36.9757 C.ar           1 <1>                0.0000
      4 C4          31.9518  37.3539  36.1939 C.ar           1 <1>                0.0000
      5 C5          32.9191  36.4211  36.4964 C.ar           1 <1>                0.0000
      6 C6          32.7523  35.5631  37.5720 C.ar           1 <1>                0.0000
      7 C7          31.6154  35.6323  38.3527 C.ar           1 <1>                0.0000
      8 C8          30.6319  36.5685  38.0683 C.ar           1 <1>                0.0000
      9 N9          29.4820  36.6397  38.8564 N.pl3          1 <1>                0.0000
     10 C10         29.4345  36.5623  40.2121 C.2            1 <1>                0.0000
     11 C11         28.1386  36.6748  40.5833 C.2            1 <1>                0.0000
     12 C12         27.3689  36.8254  39.4240 C.2            1 <1>                0.0000
     13 N13         28.1716  36.8098  38.3911 N.2            1 <1>                0.0000
     14 H14         28.7914  38.3709  37.1376 H              1 <1>                0.0000
     15 H15         32.0864  38.0200  35.3544 H              1 <1>                0.0000
     16 H16         33.8119  36.3578  35.8922 H              1 <1>                0.0000
     17 H17         33.5166  34.8353  37.8008 H              1 <1>                0.0000
     18 H18         31.4936  34.9595  39.1886 H              1 <1>                0.0000
     19 H19         30.2786  36.4338  40.8735 H              1 <1>                0.0000
     20 H20         27.7638  36.6518  41.5959 H              1 <1>                0.0000
     21 H21         26.2954  36.9391  39.3884 H              1 <1>                0.0000
@<TRIPOS>BOND
    1    1    2 2     
    2    2    3 1     
    3    2   14 1     
    4    3    4 ar    
    5    3    8 ar    
    6    4    5 ar    
    7    4   15 1     
    8    5    6 ar    
    9    5   16 1     
   10    6    7 ar    
   11    6   17 1     
   12    7    8 ar    
   13    7   18 1     
   14    8    9 1     
   15    9   10 1     
   16    9   13 1     
   17   10   11 2     
   18   10   19 1     
   19   11   12 1     
   20   11   20 1     
   21   12   13 2     
   22   12   21 1     
@<TRIPOS>SUBSTRUCTURE
      1 ****           1
@<TRIPOS>COMMENT
> <Gold.Version>
2022.2.0

> <Gold.Id.Protein>
1qkm|1qkm_protein|mol2

> <Gold.Protein.RotatedTorsions>
[  496  491  490  487 ] final  -72.55 input  -89.99 | X-H torsion

> <Gold.Protein.ActiveResidues>
 MET295  LEU298  THR299  LEU301  ALA302  GLU305  TRP335  MET336  LEU339  MET340 
 GLY342  LEU343  ARG346  PHE356  ILE373  ILE376  PHE377  LEU380  LYS471  GLY472 
 MET473  HIS475  LEU476  LEU477  ASN478  MET479  VAL484  VAL487 

> <Gold.Protein.RotatedAtoms>
   36.6001   34.7285   41.3062 H   0  0  0  0  0  0  0  0  0  0  0  0  # atno 496  bound_to 491 

> <Gold.Score>
     Score     S(PLP)   S(hbond)     S(cho)   S(metal)  DE(clash)   DE(tors)     intcor
     42.92     -40.49       0.00       1.00       0.00       0.00       0.71       0.84

> <Gold.PLP.Fitness>
42.9211

> <Gold.PLP.PLP>
-40.4939

> <Gold.PLP.part.hbond>
0.0000

> <Gold.PLP.part.metal>
0.0000

> <Gold.PLP.part.buried>
-3.0809

> <Gold.PLP.part.nonpolar>
-38.2459

> <Gold.PLP.part.repulsive>
0.0000

> <Gold.PLP.ligand.clash>
0.0000

> <Gold.PLP.ligand.torsion>
0.7076

> <Gold.PLP.Chemscore.Hbond>
0.0000

> <Gold.PLP.Chemscore.CHOScore>
1.0000

> <Gold.PLP.Chemscore.Metal>
0.0000

> <Gold.Chemscore.Hbonds>
donor molecule, donor type, donor heavy atom, donor atom, acceptor molecule, acceptor atom, score
      L1  C    10    19       P1   470  1.00

> <Gold.PLP.Chemscore.Internal.Correction>
0.8423

