#       Name:                EN300-51833_i001
#       Creating user name   aseyller
#       Creation time:       Fri Apr 21 17:39:06 2023


#       File generated by GOLD software.
#

@<TRIPOS>MOLECULE
EN300-51833_i001|benzaldehydes|mol2|310|dock18
    21    22     1
SMALL
USER_CHARGES


@<TRIPOS>ATOM
      1 O1          32.3969  35.0457  37.8426 O.2            1 <1>                0.0000
      2 C2          31.4949  35.6708  38.3590 C.2            1 <1>                0.0000
      3 C3          31.0787  36.9612  37.7945 C.ar           1 <1>                0.0000
      4 C4          31.9188  37.6469  36.9100 C.ar           1 <1>                0.0000
      5 C5          31.5215  38.8565  36.3842 C.ar           1 <1>                0.0000
      6 C6          30.2929  39.3990  36.7265 C.ar           1 <1>                0.0000
      7 C7          29.4530  38.7347  37.5983 C.ar           1 <1>                0.0000
      8 C8          29.8320  37.5126  38.1344 C.ar           1 <1>                0.0000
      9 N9          28.9841  36.8399  39.0159 N.pl3          1 <1>                0.0000
     10 C10         29.2978  36.4299  40.2728 C.2            1 <1>                0.0000
     11 C11         28.2057  35.8218  40.7895 C.2            1 <1>                0.0000
     12 C12         27.1932  35.8590  39.8237 C.2            1 <1>                0.0000
     13 N13         27.6558  36.4722  38.7647 N.2            1 <1>                0.0000
     14 H14         30.9948  35.2765  39.2313 H              1 <1>                0.0000
     15 H15         32.8774  37.2286  36.6404 H              1 <1>                0.0000
     16 H16         32.1708  39.3849  35.7020 H              1 <1>                0.0000
     17 H17         29.9907  40.3479  36.3088 H              1 <1>                0.0000
     18 H18         28.4976  39.1651  37.8597 H              1 <1>                0.0000
     19 H19         30.2475  36.5649  40.7691 H              1 <1>                0.0000
     20 H20         28.1286  35.3839  41.7737 H              1 <1>                0.0000
     21 H21         26.1981  35.4541  39.9353 H              1 <1>                0.0000
@<TRIPOS>BOND
    1    1    2 2     
    2    2    3 1     
    3    2   14 1     
    4    3    4 ar    
    5    3    8 ar    
    6    4    5 ar    
    7    4   15 1     
    8    5    6 ar    
    9    5   16 1     
   10    6    7 ar    
   11    6   17 1     
   12    7    8 ar    
   13    7   18 1     
   14    8    9 1     
   15    9   10 1     
   16    9   13 1     
   17   10   11 2     
   18   10   19 1     
   19   11   12 1     
   20   11   20 1     
   21   12   13 2     
   22   12   21 1     
@<TRIPOS>SUBSTRUCTURE
      1 ****           1
@<TRIPOS>COMMENT
> <Gold.Version>
2022.2.0

> <Gold.Id.Protein>
1qkm|1qkm_protein|mol2

> <Gold.Protein.RotatedTorsions>
[  496  491  490  487 ] final  142.79 input  -89.99 | X-H torsion

> <Gold.Protein.ActiveResidues>
 MET295  LEU298  THR299  LEU301  ALA302  GLU305  TRP335  MET336  LEU339  MET340 
 GLY342  LEU343  ARG346  PHE356  ILE373  ILE376  PHE377  LEU380  LYS471  GLY472 
 MET473  HIS475  LEU476  LEU477  ASN478  MET479  VAL484  VAL487 

> <Gold.Protein.RotatedAtoms>
   37.2292   33.0449   41.2925 H   0  0  0  0  0  0  0  0  0  0  0  0  # atno 496  bound_to 491 

> <Gold.Score>
     Score     S(PLP)   S(hbond)     S(cho)   S(metal)  DE(clash)   DE(tors)     intcor
     43.22     -41.55       0.00       1.00       0.00       0.00       1.09       0.84

> <Gold.PLP.Fitness>
43.2243

> <Gold.PLP.PLP>
-41.5539

> <Gold.PLP.part.hbond>
0.0000

> <Gold.PLP.part.metal>
0.0000

> <Gold.PLP.part.buried>
-2.9773

> <Gold.PLP.part.nonpolar>
-38.9465

> <Gold.PLP.part.repulsive>
0.0382

> <Gold.PLP.ligand.clash>
0.0000

> <Gold.PLP.ligand.torsion>
1.0860

> <Gold.PLP.Chemscore.Hbond>
0.0000

> <Gold.PLP.Chemscore.CHOScore>
1.0000

> <Gold.PLP.Chemscore.Metal>
0.0000

> <Gold.Chemscore.Hbonds>
donor molecule, donor type, donor heavy atom, donor atom, acceptor molecule, acceptor atom, score
      L1  C    10    19       P1   470  1.00

> <Gold.PLP.Chemscore.Internal.Correction>
0.8423

