#       Name:                EN300-51833_i001
#       Creating user name   aseyller
#       Creation time:       Fri Apr 21 17:39:02 2023


#       File generated by GOLD software.
#

@<TRIPOS>MOLECULE
EN300-51833_i001|benzaldehydes|mol2|310|dock10
    21    22     1
SMALL
USER_CHARGES


@<TRIPOS>ATOM
      1 O1          28.1474  38.9826  36.9977 O.2            1 <1>                0.0000
      2 C2          28.6113  37.9269  37.3738 C.2            1 <1>                0.0000
      3 C3          27.9672  37.1905  38.4691 C.ar           1 <1>                0.0000
      4 C4          26.6586  37.5029  38.8541 C.ar           1 <1>                0.0000
      5 C5          26.0609  36.8075  39.8820 C.ar           1 <1>                0.0000
      6 C6          26.7489  35.7990  40.5380 C.ar           1 <1>                0.0000
      7 C7          28.0409  35.4793  40.1700 C.ar           1 <1>                0.0000
      8 C8          28.6587  36.1638  39.1336 C.ar           1 <1>                0.0000
      9 N9          29.9647  35.8419  38.7604 N.pl3          1 <1>                0.0000
     10 C10         30.5305  34.6074  38.8101 C.2            1 <1>                0.0000
     11 C11         31.8021  34.7218  38.3633 C.2            1 <1>                0.0000
     12 C12         32.0238  36.0631  38.0301 C.2            1 <1>                0.0000
     13 N13         30.9242  36.7328  38.2622 N.2            1 <1>                0.0000
     14 H14         29.4954  37.5262  36.9002 H              1 <1>                0.0000
     15 H15         26.1182  38.2882  38.3463 H              1 <1>                0.0000
     16 H16         25.0511  37.0497  40.1785 H              1 <1>                0.0000
     17 H17         26.2714  35.2598  41.3427 H              1 <1>                0.0000
     18 H18         28.5696  34.6922  40.6871 H              1 <1>                0.0000
     19 H19         30.0516  33.6995  39.1459 H              1 <1>                0.0000
     20 H20         32.5202  33.9195  38.2792 H              1 <1>                0.0000
     21 H21         32.9446  36.4743  37.6434 H              1 <1>                0.0000
@<TRIPOS>BOND
    1    1    2 2     
    2    2    3 1     
    3    2   14 1     
    4    3    4 ar    
    5    3    8 ar    
    6    4    5 ar    
    7    4   15 1     
    8    5    6 ar    
    9    5   16 1     
   10    6    7 ar    
   11    6   17 1     
   12    7    8 ar    
   13    7   18 1     
   14    8    9 1     
   15    9   10 1     
   16    9   13 1     
   17   10   11 2     
   18   10   19 1     
   19   11   12 1     
   20   11   20 1     
   21   12   13 2     
   22   12   21 1     
@<TRIPOS>SUBSTRUCTURE
      1 ****           1
@<TRIPOS>COMMENT
> <Gold.Version>
2022.2.0

> <Gold.Id.Protein>
1qkm|1qkm_protein|mol2

> <Gold.Protein.RotatedTorsions>
[  496  491  490  487 ] final  167.46 input  -89.99 | X-H torsion

> <Gold.Protein.ActiveResidues>
 MET295  LEU298  THR299  LEU301  ALA302  GLU305  TRP335  MET336  LEU339  MET340 
 GLY342  LEU343  ARG346  PHE356  ILE373  ILE376  PHE377  LEU380  LYS471  GLY472 
 MET473  HIS475  LEU476  LEU477  ASN478  MET479  VAL484  VAL487 

> <Gold.Protein.RotatedAtoms>
   37.3121   33.2936   40.9863 H   0  0  0  0  0  0  0  0  0  0  0  0  # atno 496  bound_to 491 

> <Gold.Score>
     Score     S(PLP)   S(hbond)     S(cho)   S(metal)  DE(clash)   DE(tors)     intcor
     44.89     -45.01       0.00       0.00       0.00       0.00       0.49       0.86

> <Gold.PLP.Fitness>
44.8934

> <Gold.PLP.PLP>
-45.0084

> <Gold.PLP.part.hbond>
0.0000

> <Gold.PLP.part.metal>
0.0000

> <Gold.PLP.part.buried>
-3.8333

> <Gold.PLP.part.nonpolar>
-41.0730

> <Gold.PLP.part.repulsive>
0.0393

> <Gold.PLP.ligand.clash>
0.0000

> <Gold.PLP.ligand.torsion>
0.4899

> <Gold.PLP.Chemscore.Hbond>
0.0000

> <Gold.PLP.Chemscore.CHOScore>
0.0000

> <Gold.PLP.Chemscore.Metal>
0.0000

> <Gold.PLP.Chemscore.Internal.Correction>
0.8647

