#       Name:                EN300-51833_i001
#       Creating user name   aseyller
#       Creation time:       Fri Apr 21 17:39:00 2023


#       File generated by GOLD software.
#

@<TRIPOS>MOLECULE
EN300-51833_i001|benzaldehydes|mol2|310|dock5
    21    22     1
SMALL
USER_CHARGES


@<TRIPOS>ATOM
      1 O1          31.2625  34.6176  39.0774 O.2            1 <1>                0.0000
      2 C2          30.2848  35.3348  39.1072 C.2            1 <1>                0.0000
      3 C3          30.2509  36.5640  38.3042 C.ar           1 <1>                0.0000
      4 C4          31.3685  36.9458  37.5534 C.ar           1 <1>                0.0000
      5 C5          31.3292  38.0998  36.8023 C.ar           1 <1>                0.0000
      6 C6          30.1878  38.8858  36.7857 C.ar           1 <1>                0.0000
      7 C7          29.0771  38.5226  37.5215 C.ar           1 <1>                0.0000
      8 C8          29.0944  37.3612  38.2800 C.ar           1 <1>                0.0000
      9 N9          27.9725  36.9927  39.0244 N.pl3          1 <1>                0.0000
     10 C10         26.6767  37.2246  38.6878 C.2            1 <1>                0.0000
     11 C11         25.9007  36.7120  39.6700 C.2            1 <1>                0.0000
     12 C12         26.7426  36.1497  40.6365 C.2            1 <1>                0.0000
     13 N13         27.9815  36.3123  40.2490 N.2            1 <1>                0.0000
     14 H14         29.4373  35.0672  39.7209 H              1 <1>                0.0000
     15 H15         32.2605  36.3370  37.5632 H              1 <1>                0.0000
     16 H16         32.1923  38.3937  36.2236 H              1 <1>                0.0000
     17 H17         30.1671  39.7887  36.1935 H              1 <1>                0.0000
     18 H18         28.1922  39.1414  37.5029 H              1 <1>                0.0000
     19 H19         26.3293  37.7277  37.7974 H              1 <1>                0.0000
     20 H20         24.8213  36.7334  39.7029 H              1 <1>                0.0000
     21 H21         26.4237  35.6611  41.5454 H              1 <1>                0.0000
@<TRIPOS>BOND
    1    1    2 2     
    2    2    3 1     
    3    2   14 1     
    4    3    4 ar    
    5    3    8 ar    
    6    4    5 ar    
    7    4   15 1     
    8    5    6 ar    
    9    5   16 1     
   10    6    7 ar    
   11    6   17 1     
   12    7    8 ar    
   13    7   18 1     
   14    8    9 1     
   15    9   10 1     
   16    9   13 1     
   17   10   11 2     
   18   10   19 1     
   19   11   12 1     
   20   11   20 1     
   21   12   13 2     
   22   12   21 1     
@<TRIPOS>SUBSTRUCTURE
      1 ****           1
@<TRIPOS>COMMENT
> <Gold.Version>
2022.2.0

> <Gold.Id.Protein>
1qkm|1qkm_protein|mol2

> <Gold.Protein.RotatedTorsions>
[  496  491  490  487 ] final -145.82 input  -89.99 | X-H torsion

> <Gold.Protein.ActiveResidues>
 MET295  LEU298  THR299  LEU301  ALA302  GLU305  TRP335  MET336  LEU339  MET340 
 GLY342  LEU343  ARG346  PHE356  ILE373  ILE376  PHE377  LEU380  LYS471  GLY472 
 MET473  HIS475  LEU476  LEU477  ASN478  MET479  VAL484  VAL487 

> <Gold.Protein.RotatedAtoms>
   37.2088   33.9848   40.7202 H   0  0  0  0  0  0  0  0  0  0  0  0  # atno 496  bound_to 491 

> <Gold.Score>
     Score     S(PLP)   S(hbond)     S(cho)   S(metal)  DE(clash)   DE(tors)     intcor
     45.37     -42.37       0.00       1.00       0.00       0.00       0.43       0.86

> <Gold.PLP.Fitness>
45.3679

> <Gold.PLP.PLP>
-42.3710

> <Gold.PLP.part.hbond>
0.0000

> <Gold.PLP.part.metal>
0.0000

> <Gold.PLP.part.buried>
-3.1788

> <Gold.PLP.part.nonpolar>
-39.7348

> <Gold.PLP.part.repulsive>
0.4997

> <Gold.PLP.ligand.clash>
0.0000

> <Gold.PLP.ligand.torsion>
0.4339

> <Gold.PLP.Chemscore.Hbond>
0.0000

> <Gold.PLP.Chemscore.CHOScore>
1.0000

> <Gold.PLP.Chemscore.Metal>
0.0000

> <Gold.Chemscore.Hbonds>
donor molecule, donor type, donor heavy atom, donor atom, acceptor molecule, acceptor atom, score
      L1  C    12    21       P1   582  1.00

> <Gold.PLP.Chemscore.Internal.Correction>
0.8647

