#       Name:                EN300-51833_i001
#       Creating user name   aseyller
#       Creation time:       Fri Apr 21 17:38:59 2023


#       File generated by GOLD software.
#

@<TRIPOS>MOLECULE
EN300-51833_i001|benzaldehydes|mol2|310|dock1
    21    22     1
SMALL
USER_CHARGES


@<TRIPOS>ATOM
      1 O1          29.3285  39.3892  36.7976 O.2            1 <1>                0.0000
      2 C2          29.1453  38.4930  37.5941 C.2            1 <1>                0.0000
      3 C3          30.1735  37.4626  37.7895 C.ar           1 <1>                0.0000
      4 C4          31.3430  37.4800  37.0211 C.ar           1 <1>                0.0000
      5 C5          32.3031  36.5106  37.2103 C.ar           1 <1>                0.0000
      6 C6          32.1173  35.5169  38.1585 C.ar           1 <1>                0.0000
      7 C7          30.9686  35.4860  38.9241 C.ar           1 <1>                0.0000
      8 C8          29.9921  36.4564  38.7531 C.ar           1 <1>                0.0000
      9 N9          28.8303  36.4265  39.5262 N.pl3          1 <1>                0.0000
     10 C10         28.7399  36.0230  40.8205 C.2            1 <1>                0.0000
     11 C11         27.4472  36.1474  41.1987 C.2            1 <1>                0.0000
     12 C12         26.7234  36.6408  40.1070 C.2            1 <1>                0.0000
     13 N13         27.5503  36.8131  39.1080 N.2            1 <1>                0.0000
     14 H14         28.2280  38.4551  38.1629 H              1 <1>                0.0000
     15 H15         31.4924  38.2519  36.2807 H              1 <1>                0.0000
     16 H16         33.2050  36.5247  36.6166 H              1 <1>                0.0000
     17 H17         32.8762  34.7614  38.2991 H              1 <1>                0.0000
     18 H18         30.8321  34.7077  39.6603 H              1 <1>                0.0000
     19 H19         29.5531  35.6669  41.4357 H              1 <1>                0.0000
     20 H20         27.0442  35.9075  42.1716 H              1 <1>                0.0000
     21 H21         25.6635  36.8480  40.0929 H              1 <1>                0.0000
@<TRIPOS>BOND
    1    1    2 2     
    2    2    3 1     
    3    2   14 1     
    4    3    4 ar    
    5    3    8 ar    
    6    4    5 ar    
    7    4   15 1     
    8    5    6 ar    
    9    5   16 1     
   10    6    7 ar    
   11    6   17 1     
   12    7    8 ar    
   13    7   18 1     
   14    8    9 1     
   15    9   10 1     
   16    9   13 1     
   17   10   11 2     
   18   10   19 1     
   19   11   12 1     
   20   11   20 1     
   21   12   13 2     
   22   12   21 1     
@<TRIPOS>SUBSTRUCTURE
      1 ****           1
@<TRIPOS>COMMENT
> <Gold.Version>
2022.2.0

> <Gold.Id.Protein>
1qkm|1qkm_protein|mol2

> <Gold.Protein.RotatedTorsions>
[  496  491  490  487 ] final -156.14 input  -89.99 | X-H torsion

> <Gold.Protein.ActiveResidues>
 MET295  LEU298  THR299  LEU301  ALA302  GLU305  TRP335  MET336  LEU339  MET340 
 GLY342  LEU343  ARG346  PHE356  ILE373  ILE376  PHE377  LEU380  LYS471  GLY472 
 MET473  HIS475  LEU476  LEU477  ASN478  MET479  VAL484  VAL487 

> <Gold.Protein.RotatedAtoms>
   37.2599   33.8238   40.7348 H   0  0  0  0  0  0  0  0  0  0  0  0  # atno 496  bound_to 491 

> <Gold.Score>
     Score     S(PLP)   S(hbond)     S(cho)   S(metal)  DE(clash)   DE(tors)     intcor
     46.79     -43.86       0.00       1.00       0.00       0.00       0.47       0.88

> <Gold.PLP.Fitness>
46.7875

> <Gold.PLP.PLP>
-43.8572

> <Gold.PLP.part.hbond>
0.0000

> <Gold.PLP.part.metal>
0.0000

> <Gold.PLP.part.buried>
-3.0021

> <Gold.PLP.part.nonpolar>
-41.4387

> <Gold.PLP.part.repulsive>
0.0000

> <Gold.PLP.ligand.clash>
0.0000

> <Gold.PLP.ligand.torsion>
0.4739

> <Gold.PLP.Chemscore.Hbond>
0.0000

> <Gold.PLP.Chemscore.CHOScore>
1.0000

> <Gold.PLP.Chemscore.Metal>
0.0000

> <Gold.Chemscore.Hbonds>
donor molecule, donor type, donor heavy atom, donor atom, acceptor molecule, acceptor atom, score
      L1  C    10    19       P1   470  1.00

> <Gold.PLP.Chemscore.Internal.Correction>
0.8781

