#       Name:                EN300-51833_i001
#       Creating user name   aseyller
#       Creation time:       Fri Apr 21 17:39:02 2023


#       File generated by GOLD software.
#

@<TRIPOS>MOLECULE
EN300-51833_i001|benzaldehydes|mol2|310|dock9
    21    22     1
SMALL
USER_CHARGES


@<TRIPOS>ATOM
      1 O1          29.0072  39.0645  36.7288 O.2            1 <1>                0.0000
      2 C2          28.6050  38.2928  37.5737 C.2            1 <1>                0.0000
      3 C3          29.4706  37.2043  38.0456 C.ar           1 <1>                0.0000
      4 C4          30.7231  36.9950  37.4575 C.ar           1 <1>                0.0000
      5 C5          31.5297  35.9724  37.9058 C.ar           1 <1>                0.0000
      6 C6          31.1075  35.1485  38.9373 C.ar           1 <1>                0.0000
      7 C7          29.8742  35.3420  39.5274 C.ar           1 <1>                0.0000
      8 C8          29.0492  36.3699  39.0945 C.ar           1 <1>                0.0000
      9 N9          27.8022  36.5668  39.6900 N.pl3          1 <1>                0.0000
     10 C10         27.5128  36.4198  41.0094 C.2            1 <1>                0.0000
     11 C11         26.2005  36.7032  41.1746 C.2            1 <1>                0.0000
     12 C12         25.6691  37.0333  39.9225 C.2            1 <1>                0.0000
     13 N13         26.6271  36.9572  39.0348 N.2            1 <1>                0.0000
     14 H14         27.6119  38.4087  37.9821 H              1 <1>                0.0000
     15 H15         31.0566  37.6340  36.6532 H              1 <1>                0.0000
     16 H16         32.4959  35.8115  37.4510 H              1 <1>                0.0000
     17 H17         31.7474  34.3495  39.2815 H              1 <1>                0.0000
     18 H18         29.5532  34.6949  40.3303 H              1 <1>                0.0000
     19 H19         28.2052  36.1290  41.7856 H              1 <1>                0.0000
     20 H20         25.6581  36.6785  42.1082 H              1 <1>                0.0000
     21 H21         24.6436  37.3080  39.7236 H              1 <1>                0.0000
@<TRIPOS>BOND
    1    1    2 2     
    2    2    3 1     
    3    2   14 1     
    4    3    4 ar    
    5    3    8 ar    
    6    4    5 ar    
    7    4   15 1     
    8    5    6 ar    
    9    5   16 1     
   10    6    7 ar    
   11    6   17 1     
   12    7    8 ar    
   13    7   18 1     
   14    8    9 1     
   15    9   10 1     
   16    9   13 1     
   17   10   11 2     
   18   10   19 1     
   19   11   12 1     
   20   11   20 1     
   21   12   13 2     
   22   12   21 1     
@<TRIPOS>SUBSTRUCTURE
      1 ****           1
@<TRIPOS>COMMENT
> <Gold.Version>
2022.2.0

> <Gold.Id.Protein>
1qkm|1qkm_protein|mol2

> <Gold.Protein.RotatedTorsions>
[  496  491  490  487 ] final  135.27 input  -89.99 | X-H torsion

> <Gold.Protein.ActiveResidues>
 MET295  LEU298  THR299  LEU301  ALA302  GLU305  TRP335  MET336  LEU339  MET340 
 GLY342  LEU343  ARG346  PHE356  ILE373  ILE376  PHE377  LEU380  LYS471  GLY472 
 MET473  HIS475  LEU476  LEU477  ASN478  MET479  VAL484  VAL487 

> <Gold.Protein.RotatedAtoms>
   37.1868   32.9965   41.3981 H   0  0  0  0  0  0  0  0  0  0  0  0  # atno 496  bound_to 491 

> <Gold.Score>
     Score     S(PLP)   S(hbond)     S(cho)   S(metal)  DE(clash)   DE(tors)     intcor
     45.64     -42.91       0.00       0.99       0.00       0.00       0.55       0.86

> <Gold.PLP.Fitness>
45.6422

> <Gold.PLP.PLP>
-42.9095

> <Gold.PLP.part.hbond>
0.0000

> <Gold.PLP.part.metal>
0.0000

> <Gold.PLP.part.buried>
-2.6005

> <Gold.PLP.part.nonpolar>
-41.3140

> <Gold.PLP.part.repulsive>
0.0362

> <Gold.PLP.ligand.clash>
0.0000

> <Gold.PLP.ligand.torsion>
0.5540

> <Gold.PLP.Chemscore.Hbond>
0.0000

> <Gold.PLP.Chemscore.CHOScore>
0.9920

> <Gold.PLP.Chemscore.Metal>
0.0000

> <Gold.Chemscore.Hbonds>
donor molecule, donor type, donor heavy atom, donor atom, acceptor molecule, acceptor atom, score
      L1  C    12    21       P1  1131  0.99

> <Gold.PLP.Chemscore.Internal.Correction>
0.8647

