#       Name:                EN300-51833_i001
#       Creating user name   aseyller
#       Creation time:       Fri Apr 21 17:39:07 2023


#       File generated by GOLD software.
#

@<TRIPOS>MOLECULE
EN300-51833_i001|benzaldehydes|mol2|310|dock19
    21    22     1
SMALL
USER_CHARGES


@<TRIPOS>ATOM
      1 O1          28.7858  39.4327  36.8603 O.2            1 <1>                0.0000
      2 C2          29.7329  38.6845  36.7410 C.2            1 <1>                0.0000
      3 C3          29.9193  37.5788  37.6894 C.ar           1 <1>                0.0000
      4 C4          29.0169  37.3950  38.7432 C.ar           1 <1>                0.0000
      5 C5          29.1979  36.3555  39.6286 C.ar           1 <1>                0.0000
      6 C6          30.2698  35.4893  39.4816 C.ar           1 <1>                0.0000
      7 C7          31.1690  35.6577  38.4472 C.ar           1 <1>                0.0000
      8 C8          31.0013  36.6950  37.5415 C.ar           1 <1>                0.0000
      9 N9          31.9094  36.8666  36.4953 N.pl3          1 <1>                0.0000
     10 C10         32.5766  35.8783  35.8439 C.2            1 <1>                0.0000
     11 C11         33.3533  36.4607  34.9020 C.2            1 <1>                0.0000
     12 C12         33.1580  37.8447  34.9767 C.2            1 <1>                0.0000
     13 N13         32.2909  38.0882  35.9255 N.2            1 <1>                0.0000
     14 H14         30.4367  38.8287  35.9346 H              1 <1>                0.0000
     15 H15         28.1802  38.0675  38.8624 H              1 <1>                0.0000
     16 H16         28.5012  36.2148  40.4416 H              1 <1>                0.0000
     17 H17         30.4029  34.6773  40.1811 H              1 <1>                0.0000
     18 H18         32.0016  34.9782  38.3406 H              1 <1>                0.0000
     19 H19         32.5008  34.8194  36.0426 H              1 <1>                0.0000
     20 H20         34.0092  35.9481  34.2139 H              1 <1>                0.0000
     21 H21         33.6384  38.5853  34.3543 H              1 <1>                0.0000
@<TRIPOS>BOND
    1    1    2 2     
    2    2    3 1     
    3    2   14 1     
    4    3    4 ar    
    5    3    8 ar    
    6    4    5 ar    
    7    4   15 1     
    8    5    6 ar    
    9    5   16 1     
   10    6    7 ar    
   11    6   17 1     
   12    7    8 ar    
   13    7   18 1     
   14    8    9 1     
   15    9   10 1     
   16    9   13 1     
   17   10   11 2     
   18   10   19 1     
   19   11   12 1     
   20   11   20 1     
   21   12   13 2     
   22   12   21 1     
@<TRIPOS>SUBSTRUCTURE
      1 ****           1
@<TRIPOS>COMMENT
> <Gold.Version>
2022.2.0

> <Gold.Id.Protein>
1qkm|1qkm_protein|mol2

> <Gold.Protein.RotatedTorsions>
[  496  491  490  487 ] final    4.62 input  -89.99 | X-H torsion

> <Gold.Protein.ActiveResidues>
 MET295  LEU298  THR299  LEU301  ALA302  GLU305  TRP335  MET336  LEU339  MET340 
 GLY342  LEU343  ARG346  PHE356  ILE373  ILE376  PHE377  LEU380  LYS471  GLY472 
 MET473  HIS475  LEU476  LEU477  ASN478  MET479  VAL484  VAL487 

> <Gold.Protein.RotatedAtoms>
   36.2640   34.1467   42.2719 H   0  0  0  0  0  0  0  0  0  0  0  0  # atno 496  bound_to 491 

> <Gold.Score>
     Score     S(PLP)   S(hbond)     S(cho)   S(metal)  DE(clash)   DE(tors)     intcor
     43.62     -40.64       0.00       1.00       0.00       0.00       0.43       0.84

> <Gold.PLP.Fitness>
43.6191

> <Gold.PLP.PLP>
-40.6402

> <Gold.PLP.part.hbond>
0.0000

> <Gold.PLP.part.metal>
0.0000

> <Gold.PLP.part.buried>
-0.9221

> <Gold.PLP.part.nonpolar>
-39.8048

> <Gold.PLP.part.repulsive>
0.0259

> <Gold.PLP.ligand.clash>
0.0000

> <Gold.PLP.ligand.torsion>
0.4317

> <Gold.PLP.Chemscore.Hbond>
0.0000

> <Gold.PLP.Chemscore.CHOScore>
1.0000

> <Gold.PLP.Chemscore.Metal>
0.0000

> <Gold.Chemscore.Hbonds>
donor molecule, donor type, donor heavy atom, donor atom, acceptor molecule, acceptor atom, score
      L1  C    12    21       P1  3229  1.00

> <Gold.PLP.Chemscore.Internal.Correction>
0.8423

