#       Name:                EN300-51833_i001
#       Creating user name   aseyller
#       Creation time:       Fri Apr 21 17:39:03 2023


#       File generated by GOLD software.
#

@<TRIPOS>MOLECULE
EN300-51833_i001|benzaldehydes|mol2|310|dock11
    21    22     1
SMALL
USER_CHARGES


@<TRIPOS>ATOM
      1 O1          32.1278  33.4644  38.1517 O.2            1 <1>                0.0000
      2 C2          32.0134  34.5400  37.6030 C.2            1 <1>                0.0000
      3 C3          31.0272  35.5124  38.0916 C.ar           1 <1>                0.0000
      4 C4          30.2581  35.2265  39.2253 C.ar           1 <1>                0.0000
      5 C5          29.3355  36.1437  39.6780 C.ar           1 <1>                0.0000
      6 C6          29.1642  37.3494  39.0164 C.ar           1 <1>                0.0000
      7 C7          29.9152  37.6459  37.8962 C.ar           1 <1>                0.0000
      8 C8          30.8538  36.7382  37.4275 C.ar           1 <1>                0.0000
      9 N9          31.6137  37.0364  36.2952 N.pl3          1 <1>                0.0000
     10 C10         31.2022  37.7629  35.2232 C.2            1 <1>                0.0000
     11 C11         32.2320  37.8205  34.3482 C.2            1 <1>                0.0000
     12 C12         33.3056  37.1099  34.8974 C.2            1 <1>                0.0000
     13 N13         32.9388  36.6451  36.0639 N.2            1 <1>                0.0000
     14 H14         32.6398  34.7844  36.7579 H              1 <1>                0.0000
     15 H15         30.3875  34.2882  39.7442 H              1 <1>                0.0000
     16 H16         28.7423  35.9219  40.5528 H              1 <1>                0.0000
     17 H17         28.4381  38.0618  39.3794 H              1 <1>                0.0000
     18 H18         29.7747  38.5878  37.3868 H              1 <1>                0.0000
     19 H19         30.2288  38.2126  35.0933 H              1 <1>                0.0000
     20 H20         32.2266  38.3253  33.3934 H              1 <1>                0.0000
     21 H21         34.2734  36.9723  34.4381 H              1 <1>                0.0000
@<TRIPOS>BOND
    1    1    2 2     
    2    2    3 1     
    3    2   14 1     
    4    3    4 ar    
    5    3    8 ar    
    6    4    5 ar    
    7    4   15 1     
    8    5    6 ar    
    9    5   16 1     
   10    6    7 ar    
   11    6   17 1     
   12    7    8 ar    
   13    7   18 1     
   14    8    9 1     
   15    9   10 1     
   16    9   13 1     
   17   10   11 2     
   18   10   19 1     
   19   11   12 1     
   20   11   20 1     
   21   12   13 2     
   22   12   21 1     
@<TRIPOS>SUBSTRUCTURE
      1 ****           1
@<TRIPOS>COMMENT
> <Gold.Version>
2022.2.0

> <Gold.Id.Protein>
1qkm|1qkm_protein|mol2

> <Gold.Protein.RotatedTorsions>
[  496  491  490  487 ] final    9.96 input  -89.99 | X-H torsion

> <Gold.Protein.ActiveResidues>
 MET295  LEU298  THR299  LEU301  ALA302  GLU305  TRP335  MET336  LEU339  MET340 
 GLY342  LEU343  ARG346  PHE356  ILE373  ILE376  PHE377  LEU380  LYS471  GLY472 
 MET473  HIS475  LEU476  LEU477  ASN478  MET479  VAL484  VAL487 

> <Gold.Protein.RotatedAtoms>
   36.2731   34.0668   42.3075 H   0  0  0  0  0  0  0  0  0  0  0  0  # atno 496  bound_to 491 

> <Gold.Score>
     Score     S(PLP)   S(hbond)     S(cho)   S(metal)  DE(clash)   DE(tors)     intcor
     45.70     -42.90       0.00       0.96       0.00       0.00       0.46       0.84

> <Gold.PLP.Fitness>
45.6990

> <Gold.PLP.PLP>
-42.9037

> <Gold.PLP.part.hbond>
0.0000

> <Gold.PLP.part.metal>
0.0000

> <Gold.PLP.part.buried>
-3.0980

> <Gold.PLP.part.nonpolar>
-39.9327

> <Gold.PLP.part.repulsive>
0.0870

> <Gold.PLP.ligand.clash>
0.0000

> <Gold.PLP.ligand.torsion>
0.4626

> <Gold.PLP.Chemscore.Hbond>
0.0000

> <Gold.PLP.Chemscore.CHOScore>
0.9594

> <Gold.PLP.Chemscore.Metal>
0.0000

> <Gold.Chemscore.Hbonds>
donor molecule, donor type, donor heavy atom, donor atom, acceptor molecule, acceptor atom, score
      L1  C    12    21       P1  3229  0.96

> <Gold.PLP.Chemscore.Internal.Correction>
0.8423

