#       Name:                EN300-26870132_i002
#       Creating user name   fsindt
#       Creation time:       Wed Mar  1 04:38:58 2023


#       File generated by GOLD software.
#

@<TRIPOS>MOLECULE
EN300-26870132_i002|acide_1|mol2|6716|dock15
    41    41     1
SMALL
USER_CHARGES


@<TRIPOS>ATOM
      1 C1          -0.5128 -14.4649   7.0285 C.3            1 <1>                0.0000
      2 C2           0.1931 -14.2238   8.3643 C.3            1 <1>                0.0000
      3 C3           1.6994 -14.0942   8.1292 C.3            1 <1>                0.0000
      4 C4          -0.3372 -12.9352   8.9961 C.3            1 <1>                0.0000
      5 O5          -0.0633 -15.3410   9.2558 O.3            1 <1>                0.0000
      6 C6           0.5200 -15.3015  10.4686 C.2            1 <1>                0.0000
      7 O7           1.1480 -14.3185  10.8090 O.2            1 <1>                0.0000
      8 N8           0.4075 -16.3522  11.3051 N.am           1 <1>                0.0000
      9 C9           1.0422 -16.3093  12.6246 C.3            1 <1>                0.0000
     10 C10          1.9525 -17.5275  12.7927 C.3            1 <1>                0.0000
     11 C11          1.0967 -18.7793  12.9967 C.3            1 <1>                0.0000
     12 C12          1.5640 -19.8765  12.0371 C.3            1 <1>                0.0000
     13 C13          0.8901 -21.1933  12.4416 C.3            1 <1>                0.0000
     14 C14          1.4421 -21.6289  13.7995 C.3            1 <1>                0.0000
     15 N15          1.3651 -20.5328  14.7570 N.am           1 <1>                0.0000
     16 C16          1.2323 -19.2502  14.4163 C.2            1 <1>                0.0000
     17 O17          1.2207 -18.4198  15.3001 O.2            1 <1>                0.0000
     18 C18         -0.0199 -16.3246  13.6937 C.2            1 <1>                0.0000
     19 O19          0.0844 -15.5979  14.6670 O.co2          1 <1>                0.0000
     20 O20         -0.9833 -17.0639  13.5853 O.co2          1 <1>               -1.0000
     21 H21         -0.1350 -15.3830   6.5784 H              1 <1>                0.0000
     22 H22         -1.5859 -14.5573   7.1960 H              1 <1>                0.0000
     23 H23         -0.3203 -13.6263   6.3592 H              1 <1>                0.0000
     24 H24          1.8918 -13.2556   7.4599 H              1 <1>                0.0000
     25 H25          2.2022 -13.9224   9.0809 H              1 <1>                0.0000
     26 H26          2.0771 -15.0123   7.6791 H              1 <1>                0.0000
     27 H27         -1.4103 -13.0275   9.1636 H              1 <1>                0.0000
     28 H28          0.1657 -12.7634   9.9478 H              1 <1>                0.0000
     29 H29         -0.1447 -12.0965   8.3269 H              1 <1>                0.0000
     30 H30          1.6342 -15.3983  12.7136 H              1 <1>                0.0000
     31 H31          2.5662 -17.6485  11.9001 H              1 <1>                0.0000
     32 H32          2.5968 -17.3826  13.6599 H              1 <1>                0.0000
     33 H33          0.0527 -18.5412  12.7937 H              1 <1>                0.0000
     34 H34          1.2803 -19.6173  11.0171 H              1 <1>                0.0000
     35 H35          2.6468 -19.9836  12.1014 H              1 <1>                0.0000
     36 H36         -0.1873 -21.0453  12.5151 H              1 <1>                0.0000
     37 H37          1.1063 -21.9588  11.6963 H              1 <1>                0.0000
     38 H38          0.8608 -22.4730  14.1707 H              1 <1>                0.0000
     39 H39          2.4821 -21.9345  13.6845 H              1 <1>                0.0000
     40 H40         -0.0937 -17.1369  11.0332 H              1 <1>                0.0000
     41 H41          1.4135 -20.7496  15.7011 H              1 <1>                0.0000
@<TRIPOS>BOND
    1    1    2 1     
    2    1   21 1     
    3    1   22 1     
    4    1   23 1     
    5    2    3 1     
    6    2    4 1     
    7    2    5 1     
    8    3   24 1     
    9    3   25 1     
   10    3   26 1     
   11    4   27 1     
   12    4   28 1     
   13    4   29 1     
   14    5    6 1     
   15    6    7 2     
   16    6    8 am    
   17    8    9 1     
   18    8   40 1     
   19    9   10 1     
   20    9   18 1     
   21    9   30 1     
   22   10   11 1     
   23   10   31 1     
   24   10   32 1     
   25   11   12 1     
   26   11   16 1     
   27   11   33 1     
   28   12   13 1     
   29   12   34 1     
   30   12   35 1     
   31   13   14 1     
   32   13   36 1     
   33   13   37 1     
   34   14   15 1     
   35   14   38 1     
   36   14   39 1     
   37   15   16 am    
   38   15   41 1     
   39   16   17 2     
   40   18   19 ar    
   41   18   20 ar    
@<TRIPOS>SUBSTRUCTURE
      1 ****           1
@<TRIPOS>SET
DONOR_HYDROGENS      STATIC     ATOMS    <user>   **** ""
2 40 41
ATOM$RED        STATIC     ATOMS    COLORGROUP SYSTEM
2 40 41
@<TRIPOS>COMMENT
> <Gold.Version>
2022.2.0

> <Gold.Id.Protein>
3pbl|protein|mol2

> <Gold.Protein.RotatedTorsions>
[ 1303 1298 1297 1294 ] final   17.78 input  179.99 | X-H torsion
[ 2461 2456 2455 2452 ] final   94.89 input   30.03 | X-H torsion
[ 2515 2510 2509 2506 ] final   51.79 input  -89.99 | X-H torsion
[ 3721 3712 3711 3710 ] final   49.14 input -179.91 | X-H torsion
[ 3841 3832 3831 3830 ] final  -19.70 input -179.91 | X-H torsion
[ 3767 3762 3761 3758 ] final -141.20 input  -89.99 | X-H torsion
[ 2472 2467 2466 2463 ] final   98.52 input  -89.97 | X-H torsion

> <Gold.Protein.ActiveResidues>
 VAL82   VAL86   LEU89   PHE106  VAL107  ASP110  VAL111  MET112  CYS114  THR115 
 CYS181  SER182  ILE183  PHE188  VAL189  ILE190  SER192  SER193  SER196  TRP342 
 PHE345  PHE346  HIS349  VAL350  TYR365  THR369  GLY372  TYR373 

> <Gold.Protein.RotatedAtoms>
    3.5110  -10.0767    4.2134 H   0  0  0  0  0  0  0  0  0  0  0  0  # atno 1303 bound_to 1298
    2.1525   -8.3511    7.7812 H   0  0  0  0  0  0  0  0  0  0  0  0  # atno 2461 bound_to 2456
   -5.2100   -4.9594    7.8736 H   0  0  0  0  0  0  0  0  0  0  0  0  # atno 2472 bound_to 2467
    2.1941   -7.4269    5.3267 H   0  0  0  0  0  0  0  0  0  0  0  0  # atno 2515 bound_to 2510
   -2.5401  -17.9753   13.5242 H   0  0  0  0  0  0  0  0  0  0  0  0  # atno 3721 bound_to 3712
   -4.5535  -22.1114   11.6324 H   0  0  0  0  0  0  0  0  0  0  0  0  # atno 3767 bound_to 3762
    1.6056  -20.2538    9.4312 H   0  0  0  0  0  0  0  0  0  0  0  0  # atno 3841 bound_to 3832
    3.9889   -8.5381    3.9477 LP  0  0  0  0  0  0  0  0  0  0  0  0  # atno 4297 bound_to 1298
    4.8625   -9.5063    4.9306 LP  0  0  0  0  0  0  0  0  0  0  0  0  # atno 4298 bound_to 1298
    0.6818   -8.1759    7.0927 LP  0  0  0  0  0  0  0  0  0  0  0  0  # atno 4299 bound_to 2456
    0.9037   -9.2811    8.2742 LP  0  0  0  0  0  0  0  0  0  0  0  0  # atno 4300 bound_to 2456
    2.8335   -8.6282    4.4246 LP  0  0  0  0  0  0  0  0  0  0  0  0  # atno 4301 bound_to 2510
    2.2692   -8.9446    5.9239 LP  0  0  0  0  0  0  0  0  0  0  0  0  # atno 4302 bound_to 2510
   -3.0742  -17.2623   14.8600 LP  0  0  0  0  0  0  0  0  0  0  0  0  # atno 4306 bound_to 3712
   -3.5208  -16.7112   13.3891 LP  0  0  0  0  0  0  0  0  0  0  0  0  # atno 4307 bound_to 3712
    2.4417  -19.7550    8.1551 LP  0  0  0  0  0  0  0  0  0  0  0  0  # atno 4314 bound_to 3832
    2.9329  -21.0541    9.0141 LP  0  0  0  0  0  0  0  0  0  0  0  0  # atno 4315 bound_to 3832
   -4.1054  -23.3073   10.6146 LP  0  0  0  0  0  0  0  0  0  0  0  0  # atno 4318 bound_to 3762
   -5.4684  -22.4561   10.3244 LP  0  0  0  0  0  0  0  0  0  0  0  0  # atno 4319 bound_to 3762
   -3.6581   -4.9708    8.3812 LP  0  0  0  0  0  0  0  0  0  0  0  0  # atno 4320 bound_to 2467
   -4.8489   -5.4633    9.3842 LP  0  0  0  0  0  0  0  0  0  0  0  0  # atno 4321 bound_to 2467

> <Gold.Score>
     Score     S(PLP)   S(hbond)     S(cho)   S(metal)  DE(clash)   DE(tors)     intcor
     45.22     -44.35       1.34       0.00       0.00       1.21       1.34       0.74

> <Gold.PLP.Fitness>
45.2153

> <Gold.PLP.PLP>
-44.3498

> <Gold.PLP.part.hbond>
-2.3436

> <Gold.PLP.part.metal>
0.0000

> <Gold.PLP.part.buried>
-2.7433

> <Gold.PLP.part.nonpolar>
-39.6980

> <Gold.PLP.part.repulsive>
0.3936

> <Gold.PLP.ligand.clash>
1.2140

> <Gold.PLP.ligand.torsion>
1.3353

> <Gold.PLP.Chemscore.Hbond>
1.3360

> <Gold.PLP.Chemscore.CHOScore>
0.0000

> <Gold.PLP.Chemscore.Metal>
0.0000

> <Gold.Chemscore.Hbonds>
donor molecule, donor type, donor heavy atom, donor atom, acceptor molecule, acceptor atom, score
      P1  H  2305  2313       L1    19  1.00
      P1  H  3712  3721       L1    20  0.34

> <Gold.PLP.Chemscore.Internal.Correction>
0.7420

