#       Name:                EN300-26870132_i002
#       Creating user name   fsindt
#       Creation time:       Wed Mar  1 04:38:39 2023


#       File generated by GOLD software.
#

@<TRIPOS>MOLECULE
EN300-26870132_i002|acide_1|mol2|6716|dock1
    41    41     1
SMALL
USER_CHARGES


@<TRIPOS>ATOM
      1 C1           0.7859 -20.4477  14.6493 C.3            1 <1>                0.0000
      2 C2           0.2337 -20.8939  13.2940 C.3            1 <1>                0.0000
      3 C3           0.9056 -22.2032  12.8756 C.3            1 <1>                0.0000
      4 C4          -1.2771 -21.1087  13.4046 C.3            1 <1>                0.0000
      5 O5           0.5056 -19.8710  12.3000 O.3            1 <1>                0.0000
      6 C6           0.1367 -18.6118  12.6022 C.2            1 <1>                0.0000
      7 O7          -0.6908 -18.4127  13.4694 O.2            1 <1>                0.0000
      8 N8           0.6854 -17.5723  11.9427 N.am           1 <1>                0.0000
      9 C9           0.2841 -16.2023  12.2714 C.3            1 <1>                0.0000
     10 C10          0.9634 -15.2268  11.3082 C.3            1 <1>                0.0000
     11 C11         -0.0918 -14.3176  10.6748 C.3            1 <1>                0.0000
     12 C12         -0.7561 -13.4734  11.7652 C.3            1 <1>                0.0000
     13 C13         -1.6011 -12.3868  11.0893 C.3            1 <1>                0.0000
     14 C14         -0.6640 -11.4072  10.3818 C.3            1 <1>                0.0000
     15 N15          0.2790 -12.1255   9.5338 N.am           1 <1>                0.0000
     16 C16          0.5640 -13.4218   9.6634 C.2            1 <1>                0.0000
     17 O17          1.3974 -13.9030   8.9253 O.2            1 <1>                0.0000
     18 C18          0.6982 -15.8829  13.6848 C.2            1 <1>                0.0000
     19 O19          1.8770 -15.9085  13.9951 O.co2          1 <1>                0.0000
     20 O20         -0.1454 -15.5989  14.5179 O.co2          1 <1>               -1.0000
     21 H21          1.8622 -20.2946  14.5705 H              1 <1>                0.0000
     22 H22          0.3072 -19.5149  14.9474 H              1 <1>                0.0000
     23 H23          0.5818 -21.2155  15.3956 H              1 <1>                0.0000
     24 H24          0.7015 -22.9711  13.6218 H              1 <1>                0.0000
     25 H25          0.5122 -22.5211  11.9101 H              1 <1>                0.0000
     26 H26          1.9820 -22.0501  12.7968 H              1 <1>                0.0000
     27 H27         -1.7559 -20.1760  13.7027 H              1 <1>                0.0000
     28 H28         -1.6706 -21.4267  12.4391 H              1 <1>                0.0000
     29 H29         -1.4812 -21.8766  14.1509 H              1 <1>                0.0000
     30 H30         -0.7981 -16.1088  12.1800 H              1 <1>                0.0000
     31 H31          1.6852 -14.6198  11.8547 H              1 <1>                0.0000
     32 H32          1.4771 -15.7865  10.5266 H              1 <1>                0.0000
     33 H33         -0.8464 -14.9288  10.1799 H              1 <1>                0.0000
     34 H34         -1.3958 -14.1061  12.3804 H              1 <1>                0.0000
     35 H35          0.0091 -13.0092  12.3873 H              1 <1>                0.0000
     36 H36         -2.2702 -12.8442  10.3605 H              1 <1>                0.0000
     37 H37         -2.1843 -11.8561  11.8419 H              1 <1>                0.0000
     38 H38         -1.2526 -10.7249   9.7684 H              1 <1>                0.0000
     39 H39         -0.1135 -10.8331  11.1269 H              1 <1>                0.0000
     40 H40          1.3459 -17.7313  11.2504 H              1 <1>                0.0000
     41 H41          0.7276 -11.6296   8.8311 H              1 <1>                0.0000
@<TRIPOS>BOND
    1    1    2 1     
    2    1   21 1     
    3    1   22 1     
    4    1   23 1     
    5    2    3 1     
    6    2    4 1     
    7    2    5 1     
    8    3   24 1     
    9    3   25 1     
   10    3   26 1     
   11    4   27 1     
   12    4   28 1     
   13    4   29 1     
   14    5    6 1     
   15    6    7 2     
   16    6    8 am    
   17    8    9 1     
   18    8   40 1     
   19    9   10 1     
   20    9   18 1     
   21    9   30 1     
   22   10   11 1     
   23   10   31 1     
   24   10   32 1     
   25   11   12 1     
   26   11   16 1     
   27   11   33 1     
   28   12   13 1     
   29   12   34 1     
   30   12   35 1     
   31   13   14 1     
   32   13   36 1     
   33   13   37 1     
   34   14   15 1     
   35   14   38 1     
   36   14   39 1     
   37   15   16 am    
   38   15   41 1     
   39   16   17 2     
   40   18   19 ar    
   41   18   20 ar    
@<TRIPOS>SUBSTRUCTURE
      1 ****           1
@<TRIPOS>SET
DONOR_HYDROGENS      STATIC     ATOMS    <user>   **** ""
2 40 41
ATOM$RED        STATIC     ATOMS    COLORGROUP SYSTEM
2 40 41
@<TRIPOS>COMMENT
> <Gold.Version>
2022.2.0

> <Gold.Id.Protein>
3pbl|protein|mol2

> <Gold.Protein.RotatedTorsions>
[ 1303 1298 1297 1294 ] final -150.53 input  179.99 | X-H torsion
[ 2461 2456 2455 2452 ] final  149.05 input   30.03 | X-H torsion
[ 2515 2510 2509 2506 ] final -176.34 input  -89.99 | X-H torsion
[ 3721 3712 3711 3710 ] final   47.38 input -179.91 | X-H torsion
[ 3841 3832 3831 3830 ] final  -12.48 input -179.91 | X-H torsion
[ 3767 3762 3761 3758 ] final -129.22 input  -89.99 | X-H torsion
[ 2472 2467 2466 2463 ] final   -2.02 input  -89.97 | X-H torsion

> <Gold.Protein.ActiveResidues>
 VAL82   VAL86   LEU89   PHE106  VAL107  ASP110  VAL111  MET112  CYS114  THR115 
 CYS181  SER182  ILE183  PHE188  VAL189  ILE190  SER192  SER193  SER196  TRP342 
 PHE345  PHE346  HIS349  VAL350  TYR365  THR369  GLY372  TYR373 

> <Gold.Protein.RotatedAtoms>
    4.6152   -8.5720    4.3968 H   0  0  0  0  0  0  0  0  0  0  0  0  # atno 1303 bound_to 1298
    1.8806   -8.9728    8.3073 H   0  0  0  0  0  0  0  0  0  0  0  0  # atno 2461 bound_to 2456
   -3.7797   -4.8836    8.0999 H   0  0  0  0  0  0  0  0  0  0  0  0  # atno 2472 bound_to 2467
    2.3488   -9.0738    5.8018 H   0  0  0  0  0  0  0  0  0  0  0  0  # atno 2515 bound_to 2510
   -2.5330  -17.9839   13.5484 H   0  0  0  0  0  0  0  0  0  0  0  0  # atno 3721 bound_to 3712
   -4.7203  -22.0205   11.5807 H   0  0  0  0  0  0  0  0  0  0  0  0  # atno 3767 bound_to 3762
    1.6442  -20.3404    9.4848 H   0  0  0  0  0  0  0  0  0  0  0  0  # atno 3841 bound_to 3832
    4.4081  -10.1255    4.8551 LP  0  0  0  0  0  0  0  0  0  0  0  0  # atno 4297 bound_to 1298
    3.3386   -9.4242    3.8397 LP  0  0  0  0  0  0  0  0  0  0  0  0  # atno 4298 bound_to 1298
    1.5000   -7.9176    7.1203 LP  0  0  0  0  0  0  0  0  0  0  0  0  # atno 4299 bound_to 2456
    0.3574   -8.9179    7.7207 LP  0  0  0  0  0  0  0  0  0  0  0  0  # atno 4300 bound_to 2456
    2.1320   -7.4834    5.5025 LP  0  0  0  0  0  0  0  0  0  0  0  0  # atno 4301 bound_to 2510
    2.8160   -8.4415    4.3708 LP  0  0  0  0  0  0  0  0  0  0  0  0  # atno 4302 bound_to 2510
   -3.0890  -17.2371   14.8564 LP  0  0  0  0  0  0  0  0  0  0  0  0  # atno 4306 bound_to 3712
   -3.5143  -16.7264   13.3648 LP  0  0  0  0  0  0  0  0  0  0  0  0  # atno 4307 bound_to 3712
    2.3335  -19.7084    8.1804 LP  0  0  0  0  0  0  0  0  0  0  0  0  # atno 4314 bound_to 3832
    2.9966  -21.0006    8.9268 LP  0  0  0  0  0  0  0  0  0  0  0  0  # atno 4315 bound_to 3832
   -4.0090  -23.2512   10.7768 LP  0  0  0  0  0  0  0  0  0  0  0  0  # atno 4318 bound_to 3762
   -5.3981  -22.6031   10.2139 LP  0  0  0  0  0  0  0  0  0  0  0  0  # atno 4319 bound_to 3762
   -4.5344   -5.4466    9.4340 LP  0  0  0  0  0  0  0  0  0  0  0  0  # atno 4320 bound_to 2467
   -5.4027   -5.0633    8.1052 LP  0  0  0  0  0  0  0  0  0  0  0  0  # atno 4321 bound_to 2467

> <Gold.Score>
     Score     S(PLP)   S(hbond)     S(cho)   S(metal)  DE(clash)   DE(tors)     intcor
     50.30     -42.91       2.83       0.00       0.00       0.00       1.08       1.06

> <Gold.PLP.Fitness>
50.3023

> <Gold.PLP.PLP>
-42.9145

> <Gold.PLP.part.hbond>
-3.2867

> <Gold.PLP.part.metal>
0.0000

> <Gold.PLP.part.buried>
-6.8817

> <Gold.PLP.part.nonpolar>
-34.7742

> <Gold.PLP.part.repulsive>
0.2549

> <Gold.PLP.ligand.clash>
0.0000

> <Gold.PLP.ligand.torsion>
1.0791

> <Gold.PLP.Chemscore.Hbond>
2.8288

> <Gold.PLP.Chemscore.CHOScore>
0.0000

> <Gold.PLP.Chemscore.Metal>
0.0000

> <Gold.Chemscore.Hbonds>
donor molecule, donor type, donor heavy atom, donor atom, acceptor molecule, acceptor atom, score
      L1  H     8    40       P1  1227  0.83
      P1  H  2305  2313       L1    20  1.00
      P1  H  3712  3721       L1     7  1.00

> <Gold.PLP.Chemscore.Internal.Correction>
1.0597

