#       Name:                EN300-26870132_i002
#       Creating user name   fsindt
#       Creation time:       Wed Mar  1 04:39:01 2023


#       File generated by GOLD software.
#

@<TRIPOS>MOLECULE
EN300-26870132_i002|acide_1|mol2|6716|dock17
    41    41     1
SMALL
USER_CHARGES


@<TRIPOS>ATOM
      1 C1           0.5277 -21.0699  13.8195 C.3            1 <1>                0.0000
      2 C2          -0.6034 -20.8771  12.8075 C.3            1 <1>                0.0000
      3 C3          -0.0286 -20.8991  11.3898 C.3            1 <1>                0.0000
      4 C4          -1.6237 -22.0068  12.9617 C.3            1 <1>                0.0000
      5 O5          -1.2544 -19.6013  13.0463 O.3            1 <1>                0.0000
      6 C6          -0.5470 -18.4916  12.7618 C.2            1 <1>                0.0000
      7 O7           0.6617 -18.5526  12.6537 O.2            1 <1>                0.0000
      8 N8          -1.1796 -17.3130  12.5970 N.am           1 <1>                0.0000
      9 C9          -0.4101 -16.1055  12.2875 C.3            1 <1>                0.0000
     10 C10          0.3883 -16.3253  11.0009 C.3            1 <1>                0.0000
     11 C11         -0.0154 -15.2746   9.9645 C.3            1 <1>                0.0000
     12 C12          0.9968 -14.1265   9.9836 C.3            1 <1>                0.0000
     13 C13          0.7368 -13.2309   8.7662 C.3            1 <1>                0.0000
     14 C14          1.0871 -14.0127   7.4995 C.3            1 <1>                0.0000
     15 N15          0.4325 -15.3149   7.5063 N.am           1 <1>                0.0000
     16 C16         -0.0476 -15.9049   8.6017 C.2            1 <1>                0.0000
     17 O17         -0.5360 -17.0095   8.4916 O.2            1 <1>                0.0000
     18 C18          0.5369 -15.8088  13.4217 C.2            1 <1>                0.0000
     19 O19          1.7384 -15.7703  13.2184 O.co2          1 <1>                0.0000
     20 O20          0.1015 -15.6075  14.5426 O.co2          1 <1>               -1.0000
     21 H21          1.2545 -20.2650  13.7098 H              1 <1>                0.0000
     22 H22          0.1182 -21.0542  14.8296 H              1 <1>                0.0000
     23 H23          1.0164 -22.0276  13.6403 H              1 <1>                0.0000
     24 H24          0.4600 -21.8568  11.2106 H              1 <1>                0.0000
     25 H25         -0.8345 -20.7617  10.6688 H              1 <1>                0.0000
     26 H26          0.6982 -20.0942  11.2800 H              1 <1>                0.0000
     27 H27         -2.0332 -21.9912  13.9717 H              1 <1>                0.0000
     28 H28         -2.4296 -21.8696  12.2407 H              1 <1>                0.0000
     29 H29         -1.1350 -22.9646  12.7825 H              1 <1>                0.0000
     30 H30         -1.0911 -15.2650  12.1534 H              1 <1>                0.0000
     31 H31          1.4534 -16.2347  11.2142 H              1 <1>                0.0000
     32 H32          0.1794 -17.3208  10.6093 H              1 <1>                0.0000
     33 H33         -1.0055 -14.8885  10.2069 H              1 <1>                0.0000
     34 H34          0.8764 -13.5463  10.8984 H              1 <1>                0.0000
     35 H35          2.0087 -14.5285   9.9339 H              1 <1>                0.0000
     36 H36         -0.3147 -12.9449   8.7405 H              1 <1>                0.0000
     37 H37          1.3594 -12.3385   8.8290 H              1 <1>                0.0000
     38 H38          0.7590 -13.4492   6.6261 H              1 <1>                0.0000
     39 H39          2.1669 -14.1525   7.4494 H              1 <1>                0.0000
     40 H40         -2.1446 -17.2643  12.6834 H              1 <1>                0.0000
     41 H41          0.3403 -15.7818   6.6611 H              1 <1>                0.0000
@<TRIPOS>BOND
    1    1    2 1     
    2    1   21 1     
    3    1   22 1     
    4    1   23 1     
    5    2    3 1     
    6    2    4 1     
    7    2    5 1     
    8    3   24 1     
    9    3   25 1     
   10    3   26 1     
   11    4   27 1     
   12    4   28 1     
   13    4   29 1     
   14    5    6 1     
   15    6    7 2     
   16    6    8 am    
   17    8    9 1     
   18    8   40 1     
   19    9   10 1     
   20    9   18 1     
   21    9   30 1     
   22   10   11 1     
   23   10   31 1     
   24   10   32 1     
   25   11   12 1     
   26   11   16 1     
   27   11   33 1     
   28   12   13 1     
   29   12   34 1     
   30   12   35 1     
   31   13   14 1     
   32   13   36 1     
   33   13   37 1     
   34   14   15 1     
   35   14   38 1     
   36   14   39 1     
   37   15   16 am    
   38   15   41 1     
   39   16   17 2     
   40   18   19 ar    
   41   18   20 ar    
@<TRIPOS>SUBSTRUCTURE
      1 ****           1
@<TRIPOS>SET
DONOR_HYDROGENS      STATIC     ATOMS    <user>   **** ""
2 40 41
ATOM$RED        STATIC     ATOMS    COLORGROUP SYSTEM
2 40 41
@<TRIPOS>COMMENT
> <Gold.Version>
2022.2.0

> <Gold.Id.Protein>
3pbl|protein|mol2

> <Gold.Protein.RotatedTorsions>
[ 1303 1298 1297 1294 ] final -129.76 input  179.99 | X-H torsion
[ 2461 2456 2455 2452 ] final -164.16 input   30.03 | X-H torsion
[ 2515 2510 2509 2506 ] final  111.53 input  -89.99 | X-H torsion
[ 3721 3712 3711 3710 ] final  -77.08 input -179.91 | X-H torsion
[ 3841 3832 3831 3830 ] final  -36.99 input -179.91 | X-H torsion
[ 3767 3762 3761 3758 ] final  -49.79 input  -89.99 | X-H torsion
[ 2472 2467 2466 2463 ] final   63.20 input  -89.97 | X-H torsion

> <Gold.Protein.ActiveResidues>
 VAL82   VAL86   LEU89   PHE106  VAL107  ASP110  VAL111  MET112  CYS114  THR115 
 CYS181  SER182  ILE183  PHE188  VAL189  ILE190  SER192  SER193  SER196  TRP342 
 PHE345  PHE346  HIS349  VAL350  TYR365  THR369  GLY372  TYR373 

> <Gold.Protein.RotatedAtoms>
    4.3641   -8.4805    4.1868 H   0  0  0  0  0  0  0  0  0  0  0  0  # atno 1303 bound_to 1298
    1.1995   -9.2771    8.3736 H   0  0  0  0  0  0  0  0  0  0  0  0  # atno 2461 bound_to 2456
   -4.6952   -4.8267    7.6626 H   0  0  0  0  0  0  0  0  0  0  0  0  # atno 2472 bound_to 2467
    2.0310   -8.0341    6.0237 H   0  0  0  0  0  0  0  0  0  0  0  0  # atno 2515 bound_to 2510
   -2.9285  -17.1083   14.7428 H   0  0  0  0  0  0  0  0  0  0  0  0  # atno 3721 bound_to 3712
   -5.4995  -22.1459   10.6701 H   0  0  0  0  0  0  0  0  0  0  0  0  # atno 3767 bound_to 3762
    1.5617  -20.0497    9.2756 H   0  0  0  0  0  0  0  0  0  0  0  0  # atno 3841 bound_to 3832
    4.6510   -9.9021    4.9371 LP  0  0  0  0  0  0  0  0  0  0  0  0  # atno 4297 bound_to 1298
    3.3470   -9.7390    3.9677 LP  0  0  0  0  0  0  0  0  0  0  0  0  # atno 4298 bound_to 1298
    2.0608   -8.1567    7.5549 LP  0  0  0  0  0  0  0  0  0  0  0  0  # atno 4299 bound_to 2456
    0.4775   -8.3745    7.2198 LP  0  0  0  0  0  0  0  0  0  0  0  0  # atno 4300 bound_to 2456
    2.5969   -7.7248    4.5238 LP  0  0  0  0  0  0  0  0  0  0  0  0  # atno 4301 bound_to 2510
    2.6690   -9.2404    5.1274 LP  0  0  0  0  0  0  0  0  0  0  0  0  # atno 4302 bound_to 2510
   -3.4823  -16.7973   13.2682 LP  0  0  0  0  0  0  0  0  0  0  0  0  # atno 4306 bound_to 3712
   -2.6644  -18.1772   13.5741 LP  0  0  0  0  0  0  0  0  0  0  0  0  # atno 4307 bound_to 3712
    2.6862  -19.9064    8.1393 LP  0  0  0  0  0  0  0  0  0  0  0  0  # atno 4314 bound_to 3832
    2.7392  -21.1385    9.2097 LP  0  0  0  0  0  0  0  0  0  0  0  0  # atno 4315 bound_to 3832
   -4.1964  -22.4097   11.6183 LP  0  0  0  0  0  0  0  0  0  0  0  0  # atno 4318 bound_to 3762
   -4.4318  -23.3193   10.2827 LP  0  0  0  0  0  0  0  0  0  0  0  0  # atno 4319 bound_to 3762
   -3.7057   -5.1687    8.9158 LP  0  0  0  0  0  0  0  0  0  0  0  0  # atno 4320 bound_to 2467
   -5.3160   -5.3981    9.0606 LP  0  0  0  0  0  0  0  0  0  0  0  0  # atno 4321 bound_to 2467

> <Gold.Score>
     Score     S(PLP)   S(hbond)     S(cho)   S(metal)  DE(clash)   DE(tors)     intcor
     43.57     -40.77       1.75       0.00       0.00       0.00       1.60       0.74

> <Gold.PLP.Fitness>
43.5682

> <Gold.PLP.PLP>
-40.7655

> <Gold.PLP.part.hbond>
-2.8227

> <Gold.PLP.part.metal>
0.0000

> <Gold.PLP.part.buried>
-4.4871

> <Gold.PLP.part.nonpolar>
-34.6945

> <Gold.PLP.part.repulsive>
0.3086

> <Gold.PLP.ligand.clash>
0.0000

> <Gold.PLP.ligand.torsion>
1.5977

> <Gold.PLP.Chemscore.Hbond>
1.7520

> <Gold.PLP.Chemscore.CHOScore>
0.0000

> <Gold.PLP.Chemscore.Metal>
0.0000

> <Gold.Chemscore.Hbonds>
donor molecule, donor type, donor heavy atom, donor atom, acceptor molecule, acceptor atom, score
      L1  H     8    40       P1  3712  0.75
      P1  H  2305  2313       L1    20  1.00

> <Gold.PLP.Chemscore.Internal.Correction>
0.7420

