#       Name:                EN300-26870132_i002
#       Creating user name   fsindt
#       Creation time:       Wed Mar  1 04:38:46 2023


#       File generated by GOLD software.
#

@<TRIPOS>MOLECULE
EN300-26870132_i002|acide_1|mol2|6716|dock6
    41    41     1
SMALL
USER_CHARGES


@<TRIPOS>ATOM
      1 C1           0.2496 -21.9313  12.1344 C.3            1 <1>                0.0000
      2 C2          -0.1646 -20.5785  12.7167 C.3            1 <1>                0.0000
      3 C3          -1.5998 -20.6661  13.2396 C.3            1 <1>                0.0000
      4 C4           0.7752 -20.2088  13.8661 C.3            1 <1>                0.0000
      5 O5          -0.0872 -19.5622  11.6825 O.3            1 <1>                0.0000
      6 C6          -0.2281 -18.2813  12.0726 C.2            1 <1>                0.0000
      7 O7          -0.8737 -18.0167  13.0674 O.2            1 <1>                0.0000
      8 N8           0.3468 -17.2926  11.3596 N.am           1 <1>                0.0000
      9 C9           0.1935 -15.8989  11.7839 C.3            1 <1>                0.0000
     10 C10          0.9233 -14.9827  10.7996 C.3            1 <1>                0.0000
     11 C11         -0.1007 -14.1769   9.9977 C.3            1 <1>                0.0000
     12 C12         -0.3756 -12.8509  10.7112 C.3            1 <1>                0.0000
     13 C13         -1.1804 -11.9500   9.7666 C.3            1 <1>                0.0000
     14 C14         -0.2900 -11.5583   8.5867 C.3            1 <1>                0.0000
     15 N15          0.3258 -12.7407   7.9976 N.am           1 <1>                0.0000
     16 C16          0.4388 -13.9142   8.6210 C.2            1 <1>                0.0000
     17 O17          1.0081 -14.8173   8.0457 O.2            1 <1>                0.0000
     18 C18          0.7804 -15.7256  13.1611 C.2            1 <1>                0.0000
     19 O19          1.9477 -16.0111  13.3666 O.co2          1 <1>                0.0000
     20 O20          0.0879 -15.2999  14.0698 O.co2          1 <1>               -1.0000
     21 H21         -0.4198 -22.1947  11.3155 H              1 <1>                0.0000
     22 H22          1.2722 -21.8689  11.7619 H              1 <1>                0.0000
     23 H23          0.1916 -22.6943  12.9108 H              1 <1>                0.0000
     24 H24         -1.6578 -21.4291  14.0159 H              1 <1>                0.0000
     25 H25         -1.8948 -19.7023  13.6544 H              1 <1>                0.0000
     26 H26         -2.2692 -20.9295  12.4206 H              1 <1>                0.0000
     27 H27          1.7977 -20.1464  13.4938 H              1 <1>                0.0000
     28 H28          0.4802 -19.2450  14.2811 H              1 <1>                0.0000
     29 H29          0.7172 -20.9717  14.6426 H              1 <1>                0.0000
     30 H30         -0.8651 -15.6398  11.8049 H              1 <1>                0.0000
     31 H31          1.5716 -14.3009  11.3500 H              1 <1>                0.0000
     32 H32          1.5243 -15.5859  10.1191 H              1 <1>                0.0000
     33 H33         -1.0276 -14.7450   9.9196 H              1 <1>                0.0000
     34 H34         -0.9489 -13.0350  11.6198 H              1 <1>                0.0000
     35 H35          0.5681 -12.3675  10.9638 H              1 <1>                0.0000
     36 H36         -2.0541 -12.4903   9.4019 H              1 <1>                0.0000
     37 H37         -1.4980 -11.0533  10.2986 H              1 <1>                0.0000
     38 H38         -0.8931 -11.0526   7.8325 H              1 <1>                0.0000
     39 H39          0.4902 -10.8807   8.9335 H              1 <1>                0.0000
     40 H40          0.8620 -17.5039  10.5654 H              1 <1>                0.0000
     41 H41          0.6753 -12.6697   7.0956 H              1 <1>                0.0000
@<TRIPOS>BOND
    1    1    2 1     
    2    1   21 1     
    3    1   22 1     
    4    1   23 1     
    5    2    3 1     
    6    2    4 1     
    7    2    5 1     
    8    3   24 1     
    9    3   25 1     
   10    3   26 1     
   11    4   27 1     
   12    4   28 1     
   13    4   29 1     
   14    5    6 1     
   15    6    7 2     
   16    6    8 am    
   17    8    9 1     
   18    8   40 1     
   19    9   10 1     
   20    9   18 1     
   21    9   30 1     
   22   10   11 1     
   23   10   31 1     
   24   10   32 1     
   25   11   12 1     
   26   11   16 1     
   27   11   33 1     
   28   12   13 1     
   29   12   34 1     
   30   12   35 1     
   31   13   14 1     
   32   13   36 1     
   33   13   37 1     
   34   14   15 1     
   35   14   38 1     
   36   14   39 1     
   37   15   16 am    
   38   15   41 1     
   39   16   17 2     
   40   18   19 ar    
   41   18   20 ar    
@<TRIPOS>SUBSTRUCTURE
      1 ****           1
@<TRIPOS>SET
DONOR_HYDROGENS      STATIC     ATOMS    <user>   **** ""
2 40 41
ATOM$RED        STATIC     ATOMS    COLORGROUP SYSTEM
2 40 41
@<TRIPOS>COMMENT
> <Gold.Version>
2022.2.0

> <Gold.Id.Protein>
3pbl|protein|mol2

> <Gold.Protein.RotatedTorsions>
[ 1303 1298 1297 1294 ] final   61.54 input  179.99 | X-H torsion
[ 2461 2456 2455 2452 ] final   49.99 input   30.03 | X-H torsion
[ 2515 2510 2509 2506 ] final  131.34 input  -89.99 | X-H torsion
[ 3721 3712 3711 3710 ] final   35.70 input -179.91 | X-H torsion
[ 3841 3832 3831 3830 ] final  109.65 input -179.91 | X-H torsion
[ 3767 3762 3761 3758 ] final   -5.66 input  -89.99 | X-H torsion
[ 2472 2467 2466 2463 ] final -152.96 input  -89.97 | X-H torsion

> <Gold.Protein.ActiveResidues>
 VAL82   VAL86   LEU89   PHE106  VAL107  ASP110  VAL111  MET112  CYS114  THR115 
 CYS181  SER182  ILE183  PHE188  VAL189  ILE190  SER192  SER193  SER196  TRP342 
 PHE345  PHE346  HIS349  VAL350  TYR365  THR369  GLY372  TYR373 

> <Gold.Protein.RotatedAtoms>
    4.0291  -10.2680    4.6476 H   0  0  0  0  0  0  0  0  0  0  0  0  # atno 1303 bound_to 1298
    1.7977   -7.9740    7.2806 H   0  0  0  0  0  0  0  0  0  0  0  0  # atno 2461 bound_to 2456
   -5.0217   -5.4560    9.3089 H   0  0  0  0  0  0  0  0  0  0  0  0  # atno 2472 bound_to 2467
    2.0688   -8.3481    6.0945 H   0  0  0  0  0  0  0  0  0  0  0  0  # atno 2515 bound_to 2510
   -2.4950  -18.0242   13.7157 H   0  0  0  0  0  0  0  0  0  0  0  0  # atno 3721 bound_to 3712
   -5.3711  -22.6467   10.1858 H   0  0  0  0  0  0  0  0  0  0  0  0  # atno 3767 bound_to 3762
    3.0188  -20.8102    9.0542 H   0  0  0  0  0  0  0  0  0  0  0  0  # atno 3841 bound_to 3832
    3.4859   -8.9981    3.7767 LP  0  0  0  0  0  0  0  0  0  0  0  0  # atno 4297 bound_to 1298
    4.8472   -8.8549    4.6672 LP  0  0  0  0  0  0  0  0  0  0  0  0  # atno 4298 bound_to 1298
    0.3376   -8.6793    7.4754 LP  0  0  0  0  0  0  0  0  0  0  0  0  # atno 4299 bound_to 2456
    1.6027   -9.1547    8.3920 LP  0  0  0  0  0  0  0  0  0  0  0  0  # atno 4300 bound_to 2456
    2.4623   -7.5248    4.7406 LP  0  0  0  0  0  0  0  0  0  0  0  0  # atno 4301 bound_to 2510
    2.7658   -9.1262    4.8397 LP  0  0  0  0  0  0  0  0  0  0  0  0  # atno 4302 bound_to 2510
   -3.1862  -17.0747   14.8105 LP  0  0  0  0  0  0  0  0  0  0  0  0  # atno 4306 bound_to 3712
   -3.4609  -16.8423   13.2176 LP  0  0  0  0  0  0  0  0  0  0  0  0  # atno 4307 bound_to 3712
    1.4858  -20.4843    9.4001 LP  0  0  0  0  0  0  0  0  0  0  0  0  # atno 4314 bound_to 3832
    2.2563  -19.6820    8.2046 LP  0  0  0  0  0  0  0  0  0  0  0  0  # atno 4315 bound_to 3832
   -4.7704  -21.9991   11.5594 LP  0  0  0  0  0  0  0  0  0  0  0  0  # atno 4318 bound_to 3762
   -3.9861  -23.2292   10.8257 LP  0  0  0  0  0  0  0  0  0  0  0  0  # atno 4319 bound_to 3762
   -5.0605   -4.9056    7.7721 LP  0  0  0  0  0  0  0  0  0  0  0  0  # atno 4320 bound_to 2467
   -3.6348   -5.0321    8.5583 LP  0  0  0  0  0  0  0  0  0  0  0  0  # atno 4321 bound_to 2467

> <Gold.Score>
     Score     S(PLP)   S(hbond)     S(cho)   S(metal)  DE(clash)   DE(tors)     intcor
     49.22     -42.50       2.94       0.00       0.00       0.00       1.56       1.01

> <Gold.PLP.Fitness>
49.2203

> <Gold.PLP.PLP>
-42.5019

> <Gold.PLP.part.hbond>
-3.0000

> <Gold.PLP.part.metal>
0.0000

> <Gold.PLP.part.buried>
-7.3984

> <Gold.PLP.part.nonpolar>
-34.0208

> <Gold.PLP.part.repulsive>
0.3711

> <Gold.PLP.ligand.clash>
0.0000

> <Gold.PLP.ligand.torsion>
1.5606

> <Gold.PLP.Chemscore.Hbond>
2.9428

> <Gold.PLP.Chemscore.CHOScore>
0.0000

> <Gold.PLP.Chemscore.Metal>
0.0000

> <Gold.Chemscore.Hbonds>
donor molecule, donor type, donor heavy atom, donor atom, acceptor molecule, acceptor atom, score
      L1  H     8    40       P1  1227  0.99
      P1  H  2305  2313       L1    20  0.96
      P1  H  3712  3721       L1     7  0.99

> <Gold.PLP.Chemscore.Internal.Correction>
1.0114

