#       Name:                EN300-26870132_i002
#       Creating user name   fsindt
#       Creation time:       Wed Mar  1 04:38:48 2023


#       File generated by GOLD software.
#

@<TRIPOS>MOLECULE
EN300-26870132_i002|acide_1|mol2|6716|dock8
    41    41     1
SMALL
USER_CHARGES


@<TRIPOS>ATOM
      1 C1          -0.1664 -19.3133  14.7301 C.3            1 <1>                0.0000
      2 C2           0.2540 -19.9303  13.3946 C.3            1 <1>                0.0000
      3 C3           1.1618 -21.1345  13.6524 C.3            1 <1>                0.0000
      4 C4          -0.9901 -20.3843  12.6285 C.3            1 <1>                0.0000
      5 O5           0.9719 -18.9420  12.6095 O.3            1 <1>                0.0000
      6 C6           0.3050 -17.8189  12.2831 C.2            1 <1>                0.0000
      7 O7          -0.8502 -17.6752  12.6315 O.2            1 <1>                0.0000
      8 N8           0.9187 -16.8540  11.5697 N.am           1 <1>                0.0000
      9 C9           0.1931 -15.6320  11.2145 C.3            1 <1>                0.0000
     10 C10          1.1173 -14.7004  10.4277 C.3            1 <1>                0.0000
     11 C11          0.3073 -13.9598   9.3616 C.3            1 <1>                0.0000
     12 C12          0.9775 -12.6182   9.0549 C.3            1 <1>                0.0000
     13 C13          0.3187 -12.0219   7.8051 C.3            1 <1>                0.0000
     14 C14          0.6718 -12.8962   6.6012 C.3            1 <1>                0.0000
     15 N15          0.3869 -14.2968   6.8867 N.am           1 <1>                0.0000
     16 C16          0.2419 -14.7951   8.1152 C.2            1 <1>                0.0000
     17 O17          0.0472 -15.9863   8.2322 O.2            1 <1>                0.0000
     18 C18         -0.2681 -14.9385  12.4705 C.2            1 <1>                0.0000
     19 O19          0.0256 -15.3953  13.5620 O.co2          1 <1>                0.0000
     20 O20         -0.9351 -13.9207  12.3951 O.co2          1 <1>               -1.0000
     21 H21          0.7200 -18.9898  15.2759 H              1 <1>                0.0000
     22 H22         -0.8132 -18.4553  14.5464 H              1 <1>                0.0000
     23 H23         -0.7054 -20.0551  15.3195 H              1 <1>                0.0000
     24 H24          0.6229 -21.8763  14.2418 H              1 <1>                0.0000
     25 H25          1.4613 -21.5740  12.7010 H              1 <1>                0.0000
     26 H26          2.0482 -20.8110  14.1982 H              1 <1>                0.0000
     27 H27         -1.6369 -19.5264  12.4448 H              1 <1>                0.0000
     28 H28         -0.6907 -20.8239  11.6770 H              1 <1>                0.0000
     29 H29         -1.5291 -21.1262  13.2179 H              1 <1>                0.0000
     30 H30         -0.6717 -15.8879  10.6023 H              1 <1>                0.0000
     31 H31          1.5695 -13.9782  11.1073 H              1 <1>                0.0000
     32 H32          1.9003 -15.2868   9.9468 H              1 <1>                0.0000
     33 H33         -0.7027 -13.7838   9.7315 H              1 <1>                0.0000
     34 H34          0.8450 -11.9405   9.8983 H              1 <1>                0.0000
     35 H35          2.0407 -12.7725   8.8711 H              1 <1>                0.0000
     36 H36         -0.7631 -12.0004   7.9368 H              1 <1>                0.0000
     37 H37          0.6900 -11.0099   7.6435 H              1 <1>                0.0000
     38 H38          0.0846 -12.5775   5.7399 H              1 <1>                0.0000
     39 H39          1.7316 -12.7836   6.3724 H              1 <1>                0.0000
     40 H40          1.8408 -16.9688  11.2915 H              1 <1>                0.0000
     41 H41          0.2971 -14.9046   6.1362 H              1 <1>                0.0000
@<TRIPOS>BOND
    1    1    2 1     
    2    1   21 1     
    3    1   22 1     
    4    1   23 1     
    5    2    3 1     
    6    2    4 1     
    7    2    5 1     
    8    3   24 1     
    9    3   25 1     
   10    3   26 1     
   11    4   27 1     
   12    4   28 1     
   13    4   29 1     
   14    5    6 1     
   15    6    7 2     
   16    6    8 am    
   17    8    9 1     
   18    8   40 1     
   19    9   10 1     
   20    9   18 1     
   21    9   30 1     
   22   10   11 1     
   23   10   31 1     
   24   10   32 1     
   25   11   12 1     
   26   11   16 1     
   27   11   33 1     
   28   12   13 1     
   29   12   34 1     
   30   12   35 1     
   31   13   14 1     
   32   13   36 1     
   33   13   37 1     
   34   14   15 1     
   35   14   38 1     
   36   14   39 1     
   37   15   16 am    
   38   15   41 1     
   39   16   17 2     
   40   18   19 ar    
   41   18   20 ar    
@<TRIPOS>SUBSTRUCTURE
      1 ****           1
@<TRIPOS>SET
DONOR_HYDROGENS      STATIC     ATOMS    <user>   **** ""
2 40 41
ATOM$RED        STATIC     ATOMS    COLORGROUP SYSTEM
2 40 41
@<TRIPOS>COMMENT
> <Gold.Version>
2022.2.0

> <Gold.Id.Protein>
3pbl|protein|mol2

> <Gold.Protein.RotatedTorsions>
[ 1303 1298 1297 1294 ] final   33.58 input  179.99 | X-H torsion
[ 2461 2456 2455 2452 ] final  -18.68 input   30.03 | X-H torsion
[ 2515 2510 2509 2506 ] final   88.85 input  -89.99 | X-H torsion
[ 3721 3712 3711 3710 ] final   63.45 input -179.91 | X-H torsion
[ 3841 3832 3831 3830 ] final   14.62 input -179.91 | X-H torsion
[ 3767 3762 3761 3758 ] final   91.61 input  -89.99 | X-H torsion
[ 2472 2467 2466 2463 ] final  106.20 input  -89.97 | X-H torsion

> <Gold.Protein.ActiveResidues>
 VAL82   VAL86   LEU89   PHE106  VAL107  ASP110  VAL111  MET112  CYS114  THR115 
 CYS181  SER182  ILE183  PHE188  VAL189  ILE190  SER192  SER193  SER196  TRP342 
 PHE345  PHE346  HIS349  VAL350  TYR365  THR369  GLY372  TYR373 

> <Gold.Protein.RotatedAtoms>
    3.6714  -10.2023    4.3736 H   0  0  0  0  0  0  0  0  0  0  0  0  # atno 1303 bound_to 1298
    0.7659   -8.1183    7.0646 H   0  0  0  0  0  0  0  0  0  0  0  0  # atno 2461 bound_to 2456
   -5.2962   -4.9990    7.9570 H   0  0  0  0  0  0  0  0  0  0  0  0  # atno 2472 bound_to 2467
    2.0459   -7.7199    5.8277 H   0  0  0  0  0  0  0  0  0  0  0  0  # atno 2515 bound_to 2510
   -2.6100  -17.8815   13.3429 H   0  0  0  0  0  0  0  0  0  0  0  0  # atno 3721 bound_to 3712
   -4.1758  -23.3265   10.5214 H   0  0  0  0  0  0  0  0  0  0  0  0  # atno 3767 bound_to 3762
    1.8815  -20.6445    9.6102 H   0  0  0  0  0  0  0  0  0  0  0  0  # atno 3841 bound_to 3832
    3.7814   -8.6594    3.8506 LP  0  0  0  0  0  0  0  0  0  0  0  0  # atno 4297 bound_to 1298
    4.9096   -9.2593    4.8674 LP  0  0  0  0  0  0  0  0  0  0  0  0  # atno 4298 bound_to 1298
    0.8108   -9.2655    8.2262 LP  0  0  0  0  0  0  0  0  0  0  0  0  # atno 4299 bound_to 2456
    2.1609   -8.4242    7.8571 LP  0  0  0  0  0  0  0  0  0  0  0  0  # atno 4300 bound_to 2456
    2.7263   -8.0404    4.3784 LP  0  0  0  0  0  0  0  0  0  0  0  0  # atno 4301 bound_to 2510
    2.5247   -9.2391    5.4689 LP  0  0  0  0  0  0  0  0  0  0  0  0  # atno 4302 bound_to 2510
   -2.9560  -17.4694   14.8556 LP  0  0  0  0  0  0  0  0  0  0  0  0  # atno 4306 bound_to 3712
   -3.5584  -16.6124   13.6029 LP  0  0  0  0  0  0  0  0  0  0  0  0  # atno 4307 bound_to 3712
    1.9308  -19.6346    8.3637 LP  0  0  0  0  0  0  0  0  0  0  0  0  # atno 4314 bound_to 3832
    3.1252  -20.7231    8.5987 LP  0  0  0  0  0  0  0  0  0  0  0  0  # atno 4315 bound_to 3832
   -5.4948  -22.3712   10.4020 LP  0  0  0  0  0  0  0  0  0  0  0  0  # atno 4318 bound_to 3762
   -4.4566  -22.1776   11.6475 LP  0  0  0  0  0  0  0  0  0  0  0  0  # atno 4319 bound_to 3762
   -3.6942   -4.9333    8.2661 LP  0  0  0  0  0  0  0  0  0  0  0  0  # atno 4320 bound_to 2467
   -4.7266   -5.4613    9.4159 LP  0  0  0  0  0  0  0  0  0  0  0  0  # atno 4321 bound_to 2467

> <Gold.Score>
     Score     S(PLP)   S(hbond)     S(cho)   S(metal)  DE(clash)   DE(tors)     intcor
     45.76     -43.00       1.65       0.00       0.00       1.40       0.82       0.84

> <Gold.PLP.Fitness>
45.7575

> <Gold.PLP.PLP>
-43.0006

> <Gold.PLP.part.hbond>
-3.0000

> <Gold.PLP.part.metal>
0.0000

> <Gold.PLP.part.buried>
-5.7442

> <Gold.PLP.part.nonpolar>
-35.2156

> <Gold.PLP.part.repulsive>
0.4310

> <Gold.PLP.ligand.clash>
1.4002

> <Gold.PLP.ligand.torsion>
0.8151

> <Gold.PLP.Chemscore.Hbond>
1.6480

> <Gold.PLP.Chemscore.CHOScore>
0.0000

> <Gold.PLP.Chemscore.Metal>
0.0000

> <Gold.Chemscore.Hbonds>
donor molecule, donor type, donor heavy atom, donor atom, acceptor molecule, acceptor atom, score
      L1  H     8    40       P1  1227  0.67
      P1  H  3712  3721       L1     7  0.98

> <Gold.PLP.Chemscore.Internal.Correction>
0.8433

