#       Name:                EN300-26870132_i002
#       Creating user name   fsindt
#       Creation time:       Wed Mar  1 04:38:54 2023


#       File generated by GOLD software.
#

@<TRIPOS>MOLECULE
EN300-26870132_i002|acide_1|mol2|6716|dock12
    41    41     1
SMALL
USER_CHARGES


@<TRIPOS>ATOM
      1 C1           1.7065 -18.0724  12.8541 C.3            1 <1>                0.0000
      2 C2           0.9805 -16.9795  13.6411 C.3            1 <1>                0.0000
      3 C3          -0.0259 -17.6226  14.5973 C.3            1 <1>                0.0000
      4 C4           1.9987 -16.1668  14.4433 C.3            1 <1>                0.0000
      5 O5           0.2803 -16.1031  12.7190 O.3            1 <1>                0.0000
      6 C6           1.0053 -15.5586  11.7236 C.2            1 <1>                0.0000
      7 O7           2.2190 -15.6011  11.7625 O.2            1 <1>                0.0000
      8 N8           0.3847 -14.9664  10.6841 N.am           1 <1>                0.0000
      9 C9           1.1734 -14.3739   9.6011 C.3            1 <1>                0.0000
     10 C10          1.0257 -12.8514   9.6364 C.3            1 <1>                0.0000
     11 C11         -0.4404 -12.4759   9.4119 C.3            1 <1>                0.0000
     12 C12         -1.1544 -12.3842  10.7628 C.3            1 <1>                0.0000
     13 C13         -2.5307 -11.7453  10.5412 C.3            1 <1>                0.0000
     14 C14         -2.3324 -10.2867  10.1272 C.3            1 <1>                0.0000
     15 N15         -1.3822 -10.1936   9.0259 N.am           1 <1>                0.0000
     16 C16         -0.5138 -11.1533   8.7043 C.2            1 <1>                0.0000
     17 O17          0.2580 -10.9469   7.7920 O.2            1 <1>                0.0000
     18 C18          0.6795 -14.8958   8.2764 C.2            1 <1>                0.0000
     19 O19          1.1494 -14.4640   7.2376 O.co2          1 <1>                0.0000
     20 O20         -0.1901 -15.7498   8.2435 O.co2          1 <1>               -1.0000
     21 H21          0.9811 -18.6513  12.2825 H              1 <1>                0.0000
     22 H22          2.4235 -17.6142  12.1728 H              1 <1>                0.0000
     23 H23          2.2321 -18.7303  13.5462 H              1 <1>                0.0000
     24 H24          0.4997 -18.2805  15.2894 H              1 <1>                0.0000
     25 H25         -0.5431 -16.8439  15.1579 H              1 <1>                0.0000
     26 H26         -0.7514 -18.2015  14.0257 H              1 <1>                0.0000
     27 H27          2.7158 -15.7086  13.7621 H              1 <1>                0.0000
     28 H28          1.4815 -15.3882  15.0040 H              1 <1>                0.0000
     29 H29          2.5244 -16.8247  15.1355 H              1 <1>                0.0000
     30 H30          2.2228 -14.6402   9.7281 H              1 <1>                0.0000
     31 H31          1.3522 -12.4771  10.6067 H              1 <1>                0.0000
     32 H32          1.6385 -12.4087   8.8511 H              1 <1>                0.0000
     33 H33         -0.9202 -13.2397   8.7999 H              1 <1>                0.0000
     34 H34         -1.2766 -13.3830  11.1818 H              1 <1>                0.0000
     35 H35         -0.5696 -11.7683  11.4459 H              1 <1>                0.0000
     36 H36         -3.0597 -12.2807   9.7528 H              1 <1>                0.0000
     37 H37         -3.1068 -11.7880  11.4655 H              1 <1>                0.0000
     38 H38         -3.2888  -9.8679   9.8140 H              1 <1>                0.0000
     39 H39         -1.9550  -9.7188  10.9776 H              1 <1>                0.0000
     40 H40         -0.5842 -14.9324  10.6531 H              1 <1>                0.0000
     41 H41         -1.3813  -9.3828   8.4936 H              1 <1>                0.0000
@<TRIPOS>BOND
    1    1    2 1     
    2    1   21 1     
    3    1   22 1     
    4    1   23 1     
    5    2    3 1     
    6    2    4 1     
    7    2    5 1     
    8    3   24 1     
    9    3   25 1     
   10    3   26 1     
   11    4   27 1     
   12    4   28 1     
   13    4   29 1     
   14    5    6 1     
   15    6    7 2     
   16    6    8 am    
   17    8    9 1     
   18    8   40 1     
   19    9   10 1     
   20    9   18 1     
   21    9   30 1     
   22   10   11 1     
   23   10   31 1     
   24   10   32 1     
   25   11   12 1     
   26   11   16 1     
   27   11   33 1     
   28   12   13 1     
   29   12   34 1     
   30   12   35 1     
   31   13   14 1     
   32   13   36 1     
   33   13   37 1     
   34   14   15 1     
   35   14   38 1     
   36   14   39 1     
   37   15   16 am    
   38   15   41 1     
   39   16   17 2     
   40   18   19 ar    
   41   18   20 ar    
@<TRIPOS>SUBSTRUCTURE
      1 ****           1
@<TRIPOS>SET
DONOR_HYDROGENS      STATIC     ATOMS    <user>   **** ""
2 40 41
ATOM$RED        STATIC     ATOMS    COLORGROUP SYSTEM
2 40 41
@<TRIPOS>COMMENT
> <Gold.Version>
2022.2.0

> <Gold.Id.Protein>
3pbl|protein|mol2

> <Gold.Protein.RotatedTorsions>
[ 1303 1298 1297 1294 ] final  -49.16 input  179.99 | X-H torsion
[ 2461 2456 2455 2452 ] final -131.20 input   30.03 | X-H torsion
[ 2515 2510 2509 2506 ] final  -35.81 input  -89.99 | X-H torsion
[ 3721 3712 3711 3710 ] final   47.77 input -179.91 | X-H torsion
[ 3841 3832 3831 3830 ] final  -53.59 input -179.91 | X-H torsion
[ 3767 3762 3761 3758 ] final   85.90 input  -89.99 | X-H torsion
[ 2472 2467 2466 2463 ] final   -8.13 input  -89.97 | X-H torsion

> <Gold.Protein.ActiveResidues>
 VAL82   VAL86   LEU89   PHE106  VAL107  ASP110  VAL111  MET112  CYS114  THR115 
 CYS181  SER182  ILE183  PHE188  VAL189  ILE190  SER192  SER193  SER196  TRP342 
 PHE345  PHE346  HIS349  VAL350  TYR365  THR369  GLY372  TYR373 

> <Gold.Protein.RotatedAtoms>
    3.4178   -9.1349    3.7831 H   0  0  0  0  0  0  0  0  0  0  0  0  # atno 1303 bound_to 1298
    0.7096   -9.2370    8.1625 H   0  0  0  0  0  0  0  0  0  0  0  0  # atno 2461 bound_to 2456
   -3.7308   -4.9086    8.1841 H   0  0  0  0  0  0  0  0  0  0  0  0  # atno 2472 bound_to 2467
    2.7478   -8.1128    4.3648 H   0  0  0  0  0  0  0  0  0  0  0  0  # atno 2515 bound_to 2510
   -2.5346  -17.9821   13.5430 H   0  0  0  0  0  0  0  0  0  0  0  0  # atno 3721 bound_to 3712
   -4.2381  -23.3342   10.4516 H   0  0  0  0  0  0  0  0  0  0  0  0  # atno 3767 bound_to 3762
    1.5864  -19.8722    9.1014 H   0  0  0  0  0  0  0  0  0  0  0  0  # atno 3841 bound_to 3832
    4.7870   -8.7433    4.5820 LP  0  0  0  0  0  0  0  0  0  0  0  0  # atno 4297 bound_to 1298
    4.1577  -10.2432    4.7267 LP  0  0  0  0  0  0  0  0  0  0  0  0  # atno 4298 bound_to 1298
    2.1564   -8.5119    7.9432 LP  0  0  0  0  0  0  0  0  0  0  0  0  # atno 4299 bound_to 2456
    0.8716   -8.0594    7.0426 LP  0  0  0  0  0  0  0  0  0  0  0  0  # atno 4300 bound_to 2456
    2.4924   -9.2210    5.5362 LP  0  0  0  0  0  0  0  0  0  0  0  0  # atno 4301 bound_to 2510
    2.0564   -7.6655    5.7746 LP  0  0  0  0  0  0  0  0  0  0  0  0  # atno 4302 bound_to 2510
   -3.0857  -17.2427   14.8573 LP  0  0  0  0  0  0  0  0  0  0  0  0  # atno 4306 bound_to 3712
   -3.5158  -16.7230   13.3702 LP  0  0  0  0  0  0  0  0  0  0  0  0  # atno 4307 bound_to 3712
    2.8847  -20.0935    8.1839 LP  0  0  0  0  0  0  0  0  0  0  0  0  # atno 4314 bound_to 3832
    2.5121  -21.1564    9.3663 LP  0  0  0  0  0  0  0  0  0  0  0  0  # atno 4315 bound_to 3832
   -5.5070  -22.3064   10.4689 LP  0  0  0  0  0  0  0  0  0  0  0  0  # atno 4318 bound_to 3762
   -4.3821  -22.2347   11.6504 LP  0  0  0  0  0  0  0  0  0  0  0  0  # atno 4319 bound_to 3762
   -4.6344   -5.4559    9.4293 LP  0  0  0  0  0  0  0  0  0  0  0  0  # atno 4320 bound_to 2467
   -5.3516   -5.0290    8.0257 LP  0  0  0  0  0  0  0  0  0  0  0  0  # atno 4321 bound_to 2467

> <Gold.Score>
     Score     S(PLP)   S(hbond)     S(cho)   S(metal)  DE(clash)   DE(tors)     intcor
     50.77     -48.48       1.00       0.00       0.00       0.06       0.70       0.74

> <Gold.PLP.Fitness>
50.7658

> <Gold.PLP.PLP>
-48.4845

> <Gold.PLP.part.hbond>
-1.2917

> <Gold.PLP.part.metal>
0.0000

> <Gold.PLP.part.buried>
-6.7687

> <Gold.PLP.part.nonpolar>
-44.1430

> <Gold.PLP.part.repulsive>
1.8519

> <Gold.PLP.ligand.clash>
0.0566

> <Gold.PLP.ligand.torsion>
0.7021

> <Gold.PLP.Chemscore.Hbond>
1.0000

> <Gold.PLP.Chemscore.CHOScore>
0.0000

> <Gold.PLP.Chemscore.Metal>
0.0000

> <Gold.Chemscore.Hbonds>
donor molecule, donor type, donor heavy atom, donor atom, acceptor molecule, acceptor atom, score
      P1  H  2456  2461       L1    17  1.00

> <Gold.PLP.Chemscore.Internal.Correction>
0.7420

