#       Name:                EN300-26870132_i002
#       Creating user name   fsindt
#       Creation time:       Wed Mar  1 04:38:43 2023


#       File generated by GOLD software.
#

@<TRIPOS>MOLECULE
EN300-26870132_i002|acide_1|mol2|6716|dock4
    41    41     1
SMALL
USER_CHARGES


@<TRIPOS>ATOM
      1 C1          -0.6072 -14.6424   7.4673 C.3            1 <1>                0.0000
      2 C2           0.2094 -13.6655   8.3156 C.3            1 <1>                0.0000
      3 C3           1.7009 -13.9484   8.1254 C.3            1 <1>                0.0000
      4 C4          -0.0974 -12.2315   7.8794 C.3            1 <1>                0.0000
      5 O5          -0.1401 -13.8307   9.7153 O.3            1 <1>                0.0000
      6 C6           0.2673 -14.9641  10.3173 C.2            1 <1>                0.0000
      7 O7           0.5439 -15.9410   9.6498 O.2            1 <1>                0.0000
      8 N8           0.3684 -15.0149  11.6603 N.am           1 <1>                0.0000
      9 C9           0.8117 -16.2480  12.3153 C.3            1 <1>                0.0000
     10 C10         -0.2126 -17.3562  12.0630 C.3            1 <1>                0.0000
     11 C11          0.4552 -18.7201  12.2502 C.3            1 <1>                0.0000
     12 C12          0.1552 -19.2443  13.6567 C.3            1 <1>                0.0000
     13 C13          0.5915 -20.7126  13.7299 C.3            1 <1>                0.0000
     14 C14         -0.3208 -21.5402  12.8237 C.3            1 <1>                0.0000
     15 N15         -0.3965 -20.9449  11.4954 N.am           1 <1>                0.0000
     16 C16         -0.0743 -19.6797  11.2235 C.2            1 <1>                0.0000
     17 O17         -0.2168 -19.2828  10.0864 O.2            1 <1>                0.0000
     18 C18          0.9403 -16.0110  13.7980 C.2            1 <1>                0.0000
     19 O19         -0.0152 -15.6019  14.4351 O.co2          1 <1>                0.0000
     20 O20          2.0000 -16.2282  14.3604 O.co2          1 <1>               -1.0000
     21 H21         -0.3887 -15.6641   7.7782 H              1 <1>                0.0000
     22 H22         -1.6699 -14.4409   7.6028 H              1 <1>                0.0000
     23 H23         -0.3449 -14.5184   6.4166 H              1 <1>                0.0000
     24 H24          1.9632 -13.8244   7.0747 H              1 <1>                0.0000
     25 H25          2.2827 -13.2524   8.7298 H              1 <1>                0.0000
     26 H26          1.9194 -14.9701   8.4363 H              1 <1>                0.0000
     27 H27         -1.1600 -12.0299   8.0148 H              1 <1>                0.0000
     28 H28          0.4844 -11.5355   8.4837 H              1 <1>                0.0000
     29 H29          0.1650 -12.1074   6.8286 H              1 <1>                0.0000
     30 H30          1.7782 -16.5475  11.9100 H              1 <1>                0.0000
     31 H31         -1.0377 -17.2558  12.7682 H              1 <1>                0.0000
     32 H32         -0.5928 -17.2745  11.0448 H              1 <1>                0.0000
     33 H33          1.5329 -18.6158  12.1248 H              1 <1>                0.0000
     34 H34          0.7085 -18.6600  14.3918 H              1 <1>                0.0000
     35 H35         -0.9137 -19.1687  13.8563 H              1 <1>                0.0000
     36 H36          1.6237 -20.8047  13.3921 H              1 <1>                0.0000
     37 H37          0.5072 -21.0684  14.7567 H              1 <1>                0.0000
     38 H38          0.0745 -22.5528  12.7426 H              1 <1>                0.0000
     39 H39         -1.3197 -21.5804  13.2579 H              1 <1>                0.0000
     40 H40          0.1476 -14.2350  12.1931 H              1 <1>                0.0000
     41 H41         -0.7003 -21.5040  10.7633 H              1 <1>                0.0000
@<TRIPOS>BOND
    1    1    2 1     
    2    1   21 1     
    3    1   22 1     
    4    1   23 1     
    5    2    3 1     
    6    2    4 1     
    7    2    5 1     
    8    3   24 1     
    9    3   25 1     
   10    3   26 1     
   11    4   27 1     
   12    4   28 1     
   13    4   29 1     
   14    5    6 1     
   15    6    7 2     
   16    6    8 am    
   17    8    9 1     
   18    8   40 1     
   19    9   10 1     
   20    9   18 1     
   21    9   30 1     
   22   10   11 1     
   23   10   31 1     
   24   10   32 1     
   25   11   12 1     
   26   11   16 1     
   27   11   33 1     
   28   12   13 1     
   29   12   34 1     
   30   12   35 1     
   31   13   14 1     
   32   13   36 1     
   33   13   37 1     
   34   14   15 1     
   35   14   38 1     
   36   14   39 1     
   37   15   16 am    
   38   15   41 1     
   39   16   17 2     
   40   18   19 ar    
   41   18   20 ar    
@<TRIPOS>SUBSTRUCTURE
      1 ****           1
@<TRIPOS>SET
DONOR_HYDROGENS      STATIC     ATOMS    <user>   **** ""
2 40 41
ATOM$RED        STATIC     ATOMS    COLORGROUP SYSTEM
2 40 41
@<TRIPOS>COMMENT
> <Gold.Version>
2022.2.0

> <Gold.Id.Protein>
3pbl|protein|mol2

> <Gold.Protein.RotatedTorsions>
[ 1303 1298 1297 1294 ] final  164.56 input  179.99 | X-H torsion
[ 2461 2456 2455 2452 ] final -161.58 input   30.03 | X-H torsion
[ 2515 2510 2509 2506 ] final  -58.80 input  -89.99 | X-H torsion
[ 3721 3712 3711 3710 ] final  105.88 input -179.91 | X-H torsion
[ 3841 3832 3831 3830 ] final  -41.66 input -179.91 | X-H torsion
[ 3767 3762 3761 3758 ] final  153.93 input  -89.99 | X-H torsion
[ 2472 2467 2466 2463 ] final -111.65 input  -89.97 | X-H torsion

> <Gold.Protein.ActiveResidues>
 VAL82   VAL86   LEU89   PHE106  VAL107  ASP110  VAL111  MET112  CYS114  THR115 
 CYS181  SER182  ILE183  PHE188  VAL189  ILE190  SER192  SER193  SER196  TRP342 
 PHE345  PHE346  HIS349  VAL350  TYR365  THR369  GLY372  TYR373 

> <Gold.Protein.RotatedAtoms>
    4.9067   -9.0917    4.8011 H   0  0  0  0  0  0  0  0  0  0  0  0  # atno 1303 bound_to 1298
    1.1584   -9.2821    8.3642 H   0  0  0  0  0  0  0  0  0  0  0  0  # atno 2461 bound_to 2456
   -4.3664   -5.4235    9.4188 H   0  0  0  0  0  0  0  0  0  0  0  0  # atno 2472 bound_to 2467
    2.8210   -8.4809    4.3794 H   0  0  0  0  0  0  0  0  0  0  0  0  # atno 2515 bound_to 2510
   -2.9026  -17.4179   13.0391 H   0  0  0  0  0  0  0  0  0  0  0  0  # atno 3721 bound_to 3712
   -3.9303  -22.8518   11.3379 H   0  0  0  0  0  0  0  0  0  0  0  0  # atno 3767 bound_to 3762
    1.5621  -19.9973    9.2285 H   0  0  0  0  0  0  0  0  0  0  0  0  # atno 3841 bound_to 3832
    3.8037  -10.2535    4.4847 LP  0  0  0  0  0  0  0  0  0  0  0  0  # atno 4297 bound_to 1298
    3.6514   -8.7762    3.8056 LP  0  0  0  0  0  0  0  0  0  0  0  0  # atno 4298 bound_to 1298
    2.0787   -8.1806    7.5851 LP  0  0  0  0  0  0  0  0  0  0  0  0  # atno 4299 bound_to 2456
    0.5006   -8.3456    7.1990 LP  0  0  0  0  0  0  0  0  0  0  0  0  # atno 4300 bound_to 2456
    2.3317   -9.0496    5.8295 LP  0  0  0  0  0  0  0  0  0  0  0  0  # atno 4301 bound_to 2510
    2.1438   -7.4686    5.4667 LP  0  0  0  0  0  0  0  0  0  0  0  0  # atno 4302 bound_to 2510
   -2.6787  -18.0060   14.5162 LP  0  0  0  0  0  0  0  0  0  0  0  0  # atno 4306 bound_to 3712
   -3.4978  -16.6110   14.2931 LP  0  0  0  0  0  0  0  0  0  0  0  0  # atno 4307 bound_to 3712
    2.7463  -19.9555    8.1460 LP  0  0  0  0  0  0  0  0  0  0  0  0  # atno 4314 bound_to 3832
    2.6786  -21.1499    9.2574 LP  0  0  0  0  0  0  0  0  0  0  0  0  # atno 4315 bound_to 3832
   -4.9308  -23.0948   10.0703 LP  0  0  0  0  0  0  0  0  0  0  0  0  # atno 4318 bound_to 3762
   -5.2660  -21.9286   11.1631 LP  0  0  0  0  0  0  0  0  0  0  0  0  # atno 4319 bound_to 3762
   -5.4676   -5.1230    8.2511 LP  0  0  0  0  0  0  0  0  0  0  0  0  # atno 4320 bound_to 2467
   -3.8829   -4.8472    7.9695 LP  0  0  0  0  0  0  0  0  0  0  0  0  # atno 4321 bound_to 2467

> <Gold.Score>
     Score     S(PLP)   S(hbond)     S(cho)   S(metal)  DE(clash)   DE(tors)     intcor
     44.73     -40.01       2.00       0.00       0.00       0.00       1.17       1.06

> <Gold.PLP.Fitness>
44.7315

> <Gold.PLP.PLP>
-40.0124

> <Gold.PLP.part.hbond>
-2.5329

> <Gold.PLP.part.metal>
0.0000

> <Gold.PLP.part.buried>
-8.3403

> <Gold.PLP.part.nonpolar>
-33.6436

> <Gold.PLP.part.repulsive>
3.5197

> <Gold.PLP.ligand.clash>
0.0000

> <Gold.PLP.ligand.torsion>
1.1703

> <Gold.PLP.Chemscore.Hbond>
2.0000

> <Gold.PLP.Chemscore.CHOScore>
0.0000

> <Gold.PLP.Chemscore.Metal>
0.0000

> <Gold.Chemscore.Hbonds>
donor molecule, donor type, donor heavy atom, donor atom, acceptor molecule, acceptor atom, score
      P1  H  2305  2313       L1    19  1.00
      P1  H  3832  3841       L1    17  1.00

> <Gold.PLP.Chemscore.Internal.Correction>
1.0597

