#       Name:                EN300-26870132_i002
#       Creating user name   fsindt
#       Creation time:       Wed Mar  1 04:38:37 2023


#       File generated by GOLD software.
#

@<TRIPOS>MOLECULE
EN300-26870132_i002
    41    41     1
SMALL
USER_CHARGES


@<TRIPOS>ATOM
      1 C1           3.3314  -1.6145   0.7956 C.3            1 <1>                0.0000
      2 C2           3.6714  -0.6983  -0.3816 C.3            1 <1>                0.0000
      3 C3           4.4845   0.4966   0.1203 C.3            1 <1>                0.0000
      4 C4           4.4914  -1.4761  -1.4129 C.3            1 <1>                0.0000
      5 O5           2.4442  -0.2248  -0.9966 O.3            1 <1>                0.0000
      6 C6           1.6041   0.4831  -0.2182 C.2            1 <1>                0.0000
      7 O7           1.8886   0.6992   0.9432 O.2            1 <1>                0.0000
      8 N8           0.4476   0.9520  -0.7272 N.am           1 <1>                0.0000
      9 C9          -0.4665   1.7222   0.1197 C.3            1 <1>                0.0000
     10 C10         -1.8824   1.6437  -0.4548 C.3            1 <1>                0.0000
     11 C11         -2.3824   0.1994  -0.3833 C.3            1 <1>                0.0000
     12 C12         -2.5103  -0.2223   1.0826 C.3            1 <1>                0.0000
     13 C13         -3.2652  -1.5559   1.1391 C.3            1 <1>                0.0000
     14 C14         -4.7091  -1.3204   0.6940 C.3            1 <1>                0.0000
     15 N15         -4.7414  -0.6028  -0.5742 N.am           1 <1>                0.0000
     16 C16         -3.7183   0.0999  -1.0621 C.2            1 <1>                0.0000
     17 O17         -3.8752   0.6904  -2.1097 O.2            1 <1>                0.0000
     18 C18         -0.0205   3.1611   0.1615 C.2            1 <1>                0.0000
     19 O19          0.5599   3.6474  -0.7940 O.co2          1 <1>                0.0000
     20 O20         -0.2400   3.8389   1.1509 O.co2          1 <1>               -1.0000
     21 H21          2.7471  -1.0604   1.5303 H              1 <1>                0.0000
     22 H22          2.7521  -2.4658   0.4380 H              1 <1>                0.0000
     23 H23          4.2526  -1.9700   1.2573 H              1 <1>                0.0000
     24 H24          5.4057   0.1411   0.5820 H              1 <1>                0.0000
     25 H25          4.7267   1.1493  -0.7184 H              1 <1>                0.0000
     26 H26          3.9002   1.0507   0.8550 H              1 <1>                0.0000
     27 H27          3.9122  -2.3274  -1.7705 H              1 <1>                0.0000
     28 H28          4.7337  -0.8234  -2.2516 H              1 <1>                0.0000
     29 H29          5.4127  -1.8316  -0.9512 H              1 <1>                0.0000
     30 H30         -0.4606   1.3105   1.1290 H              1 <1>                0.0000
     31 H31         -2.5455   2.2868   0.1238 H              1 <1>                0.0000
     32 H32         -1.8717   1.9734  -1.4937 H              1 <1>                0.0000
     33 H33         -1.6717  -0.4552  -0.8877 H              1 <1>                0.0000
     34 H34         -1.5182  -0.3435   1.5175 H              1 <1>                0.0000
     35 H35         -3.0638   0.5364   1.6358 H              1 <1>                0.0000
     36 H36         -2.7892  -2.2742   0.4716 H              1 <1>                0.0000
     37 H37         -3.2550  -1.9390   2.1595 H              1 <1>                0.0000
     38 H38         -5.2113  -2.2808   0.5773 H              1 <1>                0.0000
     39 H39         -5.2291  -0.7352   1.4524 H              1 <1>                0.0000
     40 H40          0.2205   0.7794  -1.6543 H              1 <1>                0.0000
     41 H41         -5.5582  -0.6385  -1.0961 H              1 <1>                0.0000
@<TRIPOS>BOND
    1    1    2 1     
    2    1   21 1     
    3    1   22 1     
    4    1   23 1     
    5    2    3 1     
    6    2    4 1     
    7    2    5 1     
    8    3   24 1     
    9    3   25 1     
   10    3   26 1     
   11    4   27 1     
   12    4   28 1     
   13    4   29 1     
   14    5    6 1     
   15    6    7 2     
   16    6    8 am    
   17    8    9 1     
   18    8   40 1     
   19    9   10 1     
   20    9   18 1     
   21    9   30 1     
   22   10   11 1     
   23   10   31 1     
   24   10   32 1     
   25   11   12 1     
   26   11   16 1     
   27   11   33 1     
   28   12   13 1     
   29   12   34 1     
   30   12   35 1     
   31   13   14 1     
   32   13   36 1     
   33   13   37 1     
   34   14   15 1     
   35   14   38 1     
   36   14   39 1     
   37   15   16 am    
   38   15   41 1     
   39   16   17 2     
   40   18   19 ar    
   41   18   20 ar    
@<TRIPOS>SUBSTRUCTURE
      1 ****           1
@<TRIPOS>SET
DONOR_HYDROGENS      STATIC     ATOMS    <user>   **** ""
2 40 41
ATOM$RED        STATIC     ATOMS    COLORGROUP SYSTEM
2 40 41
