#       Name:                EN300-26870132_i002
#       Creating user name   fsindt
#       Creation time:       Wed Mar  1 04:38:40 2023


#       File generated by GOLD software.
#

@<TRIPOS>MOLECULE
EN300-26870132_i002|acide_1|mol2|6716|dock2
    41    41     1
SMALL
USER_CHARGES


@<TRIPOS>ATOM
      1 C1          -1.6492 -10.5096  10.3994 C.3            1 <1>                0.0000
      2 C2          -0.8005 -11.7553  10.1371 C.3            1 <1>                0.0000
      3 C3          -1.0458 -12.2484   8.7096 C.3            1 <1>                0.0000
      4 C4           0.6799 -11.4095  10.3098 C.3            1 <1>                0.0000
      5 O5          -1.1670 -12.7978  11.0791 O.3            1 <1>                0.0000
      6 C6          -0.4082 -13.9101  11.0855 C.2            1 <1>                0.0000
      7 O7           0.3403 -14.1402  10.1564 O.2            1 <1>                0.0000
      8 N8          -0.4790 -14.7681  12.1224 N.am           1 <1>                0.0000
      9 C9           0.3465 -15.9783  12.1294 C.3            1 <1>                0.0000
     10 C10         -0.5229 -17.1908  11.7903 C.3            1 <1>                0.0000
     11 C11          0.2511 -18.4748  12.0959 C.3            1 <1>                0.0000
     12 C12         -0.1135 -18.9663  13.4990 C.3            1 <1>                0.0000
     13 C13          0.4500 -20.3813  13.6783 C.3            1 <1>                0.0000
     14 C14         -0.3038 -21.3302  12.7457 C.3            1 <1>                0.0000
     15 N15         -0.3250 -20.8010  11.3878 N.am           1 <1>                0.0000
     16 C16         -0.1005 -19.5230  11.0797 C.2            1 <1>                0.0000
     17 O17         -0.1853 -19.1895   9.9168 O.2            1 <1>                0.0000
     18 C18          0.9554 -16.1631  13.4954 C.2            1 <1>                0.0000
     19 O19          0.4699 -15.5986  14.4608 O.co2          1 <1>                0.0000
     20 O20          1.9337 -16.8773  13.6353 O.co2          1 <1>               -1.0000
     21 H21         -2.7039 -10.7560  10.2764 H              1 <1>                0.0000
     22 H22         -1.4744 -10.1584  11.4164 H              1 <1>                0.0000
     23 H23         -1.3741  -9.7270   9.6923 H              1 <1>                0.0000
     24 H24         -0.7708 -11.4658   8.0026 H              1 <1>                0.0000
     25 H25         -0.4412 -13.1359   8.5228 H              1 <1>                0.0000
     26 H26         -2.1005 -12.4948   8.5867 H              1 <1>                0.0000
     27 H27          0.8547 -11.0582  11.3267 H              1 <1>                0.0000
     28 H28          1.2846 -12.2970  10.1229 H              1 <1>                0.0000
     29 H29          0.9550 -10.6269   9.6026 H              1 <1>                0.0000
     30 H30          1.1398 -15.8813  11.3881 H              1 <1>                0.0000
     31 H31         -1.4332 -17.1641  12.3891 H              1 <1>                0.0000
     32 H32         -0.7831 -17.1667  10.7321 H              1 <1>                0.0000
     33 H33          1.3211 -18.2722  12.0499 H              1 <1>                0.0000
     34 H34          0.3208 -18.3011  14.2453 H              1 <1>                0.0000
     35 H35         -1.1975 -18.9861  13.6107 H              1 <1>                0.0000
     36 H36          1.5106 -20.3872  13.4269 H              1 <1>                0.0000
     37 H37          0.3149 -20.7004  14.7117 H              1 <1>                0.0000
     38 H38          0.1893 -22.3024  12.7457 H              1 <1>                0.0000
     39 H39         -1.3270 -21.4486  13.1022 H              1 <1>                0.0000
     40 H40         -1.0766 -14.5844  12.8640 H              1 <1>                0.0000
     41 H41         -0.5142 -21.4169  10.6628 H              1 <1>                0.0000
@<TRIPOS>BOND
    1    1    2 1     
    2    1   21 1     
    3    1   22 1     
    4    1   23 1     
    5    2    3 1     
    6    2    4 1     
    7    2    5 1     
    8    3   24 1     
    9    3   25 1     
   10    3   26 1     
   11    4   27 1     
   12    4   28 1     
   13    4   29 1     
   14    5    6 1     
   15    6    7 2     
   16    6    8 am    
   17    8    9 1     
   18    8   40 1     
   19    9   10 1     
   20    9   18 1     
   21    9   30 1     
   22   10   11 1     
   23   10   31 1     
   24   10   32 1     
   25   11   12 1     
   26   11   16 1     
   27   11   33 1     
   28   12   13 1     
   29   12   34 1     
   30   12   35 1     
   31   13   14 1     
   32   13   36 1     
   33   13   37 1     
   34   14   15 1     
   35   14   38 1     
   36   14   39 1     
   37   15   16 am    
   38   15   41 1     
   39   16   17 2     
   40   18   19 ar    
   41   18   20 ar    
@<TRIPOS>SUBSTRUCTURE
      1 ****           1
@<TRIPOS>SET
DONOR_HYDROGENS      STATIC     ATOMS    <user>   **** ""
2 40 41
ATOM$RED        STATIC     ATOMS    COLORGROUP SYSTEM
2 40 41
@<TRIPOS>COMMENT
> <Gold.Version>
2022.2.0

> <Gold.Id.Protein>
3pbl|protein|mol2

> <Gold.Protein.RotatedTorsions>
[ 1303 1298 1297 1294 ] final -124.93 input  179.99 | X-H torsion
[ 2461 2456 2455 2452 ] final   50.51 input   30.03 | X-H torsion
[ 2515 2510 2509 2506 ] final  -63.66 input  -89.99 | X-H torsion
[ 3721 3712 3711 3710 ] final  -53.57 input -179.91 | X-H torsion
[ 3841 3832 3831 3830 ] final  -44.57 input -179.91 | X-H torsion
[ 3767 3762 3761 3758 ] final  -43.70 input  -89.99 | X-H torsion
[ 2472 2467 2466 2463 ] final  142.20 input  -89.97 | X-H torsion

> <Gold.Protein.ActiveResidues>
 VAL82   VAL86   LEU89   PHE106  VAL107  ASP110  VAL111  MET112  CYS114  THR115 
 CYS181  SER182  ILE183  PHE188  VAL189  ILE190  SER192  SER193  SER196  TRP342 
 PHE345  PHE346  HIS349  VAL350  TYR365  THR369  GLY372  TYR373 

> <Gold.Protein.RotatedAtoms>
    4.2999   -8.4758    4.1403 H   0  0  0  0  0  0  0  0  0  0  0  0  # atno 1303 bound_to 1298
    1.8042   -7.9764    7.2853 H   0  0  0  0  0  0  0  0  0  0  0  0  # atno 2461 bound_to 2456
   -5.5083   -5.2035    8.4597 H   0  0  0  0  0  0  0  0  0  0  0  0  # atno 2472 bound_to 2467
    2.8288   -8.5575    4.4001 H   0  0  0  0  0  0  0  0  0  0  0  0  # atno 2515 bound_to 2510
   -2.7535  -17.4147   14.7371 H   0  0  0  0  0  0  0  0  0  0  0  0  # atno 3721 bound_to 3712
   -5.5095  -22.2043   10.5893 H   0  0  0  0  0  0  0  0  0  0  0  0  # atno 3767 bound_to 3762
    1.5649  -19.9655    9.1982 H   0  0  0  0  0  0  0  0  0  0  0  0  # atno 3841 bound_to 3832
    4.6985   -9.8391    4.9457 LP  0  0  0  0  0  0  0  0  0  0  0  0  # atno 4297 bound_to 1298
    3.3637   -9.8068    4.0056 LP  0  0  0  0  0  0  0  0  0  0  0  0  # atno 4298 bound_to 1298
    0.3386   -8.6732    7.4697 LP  0  0  0  0  0  0  0  0  0  0  0  0  # atno 4299 bound_to 2456
    1.5952   -9.1583    8.3930 LP  0  0  0  0  0  0  0  0  0  0  0  0  # atno 4300 bound_to 2456
    2.2990   -8.9976    5.8805 LP  0  0  0  0  0  0  0  0  0  0  0  0  # atno 4301 bound_to 2510
    2.1687   -7.4439    5.3951 LP  0  0  0  0  0  0  0  0  0  0  0  0  # atno 4302 bound_to 2510
   -3.5584  -16.6124   13.6030 LP  0  0  0  0  0  0  0  0  0  0  0  0  # atno 4306 bound_to 3712
   -2.7903  -18.0084   13.2458 LP  0  0  0  0  0  0  0  0  0  0  0  0  # atno 4307 bound_to 3712
    2.7823  -19.9876    8.1525 LP  0  0  0  0  0  0  0  0  0  0  0  0  # atno 4314 bound_to 3832
    2.6394  -21.1546    9.2858 LP  0  0  0  0  0  0  0  0  0  0  0  0  # atno 4315 bound_to 3832
   -4.2647  -22.3391   11.6377 LP  0  0  0  0  0  0  0  0  0  0  0  0  # atno 4318 bound_to 3762
   -4.3535  -23.3315   10.3439 LP  0  0  0  0  0  0  0  0  0  0  0  0  # atno 4319 bound_to 3762
   -4.0552   -4.8139    7.8247 LP  0  0  0  0  0  0  0  0  0  0  0  0  # atno 4320 bound_to 2467
   -4.1535   -5.3762    9.3547 LP  0  0  0  0  0  0  0  0  0  0  0  0  # atno 4321 bound_to 2467

> <Gold.Score>
     Score     S(PLP)   S(hbond)     S(cho)   S(metal)  DE(clash)   DE(tors)     intcor
     46.60     -42.63       2.00       0.00       0.00       0.00       1.55       1.06

> <Gold.PLP.Fitness>
46.5960

> <Gold.PLP.PLP>
-42.6268

> <Gold.PLP.part.hbond>
-2.0000

> <Gold.PLP.part.metal>
0.0000

> <Gold.PLP.part.buried>
-9.1719

> <Gold.PLP.part.nonpolar>
-33.2537

> <Gold.PLP.part.repulsive>
0.3894

> <Gold.PLP.ligand.clash>
0.0000

> <Gold.PLP.ligand.torsion>
1.5453

> <Gold.PLP.Chemscore.Hbond>
2.0000

> <Gold.PLP.Chemscore.CHOScore>
0.0000

> <Gold.PLP.Chemscore.Metal>
0.0000

> <Gold.Chemscore.Hbonds>
donor molecule, donor type, donor heavy atom, donor atom, acceptor molecule, acceptor atom, score
      P1  H  2305  2313       L1    19  1.00
      P1  H  3832  3841       L1    17  1.00

> <Gold.PLP.Chemscore.Internal.Correction>
1.0597

