#       Name:                EN300-26870132_i002
#       Creating user name   fsindt
#       Creation time:       Wed Mar  1 04:38:57 2023


#       File generated by GOLD software.
#

@<TRIPOS>MOLECULE
EN300-26870132_i002|acide_1|mol2|6716|dock14
    41    41     1
SMALL
USER_CHARGES


@<TRIPOS>ATOM
      1 C1          -0.0147 -12.7965   8.7511 C.3            1 <1>                0.0000
      2 C2           0.2580 -14.0927   7.9853 C.3            1 <1>                0.0000
      3 C3          -0.4361 -14.0359   6.6230 C.3            1 <1>                0.0000
      4 C4           1.7655 -14.2581   7.7831 C.3            1 <1>                0.0000
      5 O5          -0.2551 -15.2199   8.7435 O.3            1 <1>                0.0000
      6 C6           0.2919 -15.4423   9.9535 C.2            1 <1>                0.0000
      7 O7           1.1331 -14.6813  10.3891 O.2            1 <1>                0.0000
      8 N8          -0.0937 -16.5089  10.6816 N.am           1 <1>                0.0000
      9 C9           0.5013 -16.7509  11.9981 C.3            1 <1>                0.0000
     10 C10         -0.0873 -18.0301  12.5966 C.3            1 <1>                0.0000
     11 C11          1.0354 -18.8704  13.2086 C.3            1 <1>                0.0000
     12 C12          0.6887 -19.2003  14.6626 C.3            1 <1>                0.0000
     13 C13          1.6762 -20.2592  15.1679 C.3            1 <1>                0.0000
     14 C14          1.4170 -21.5671  14.4193 C.3            1 <1>                0.0000
     15 N15          1.3860 -21.3341  12.9808 N.am           1 <1>                0.0000
     16 C16          1.1951 -20.1389  12.4208 C.2            1 <1>                0.0000
     17 O17          1.1476 -20.0730  11.2108 O.2            1 <1>                0.0000
     18 C18          0.2010 -15.5868  12.9069 C.2            1 <1>                0.0000
     19 O19         -0.4162 -14.6252  12.4819 O.co2          1 <1>                0.0000
     20 O20          0.5755 -15.6066  14.0670 O.co2          1 <1>               -1.0000
     21 H21         -1.0887 -12.6788   8.8953 H              1 <1>                0.0000
     22 H22          0.4798 -12.8370   9.7217 H              1 <1>                0.0000
     23 H23          0.3704 -11.9504   8.1821 H              1 <1>                0.0000
     24 H24         -0.0510 -13.1897   6.0540 H              1 <1>                0.0000
     25 H25         -0.2419 -14.9593   6.0775 H              1 <1>                0.0000
     26 H26         -1.5102 -13.9181   6.7672 H              1 <1>                0.0000
     27 H27          2.2601 -14.2985   8.7536 H              1 <1>                0.0000
     28 H28          1.9598 -15.1815   7.2375 H              1 <1>                0.0000
     29 H29          2.1507 -13.4118   7.2140 H              1 <1>                0.0000
     30 H30          1.5807 -16.8617  11.8942 H              1 <1>                0.0000
     31 H31         -0.8098 -17.7703  13.3703 H              1 <1>                0.0000
     32 H32         -0.5839 -18.6026  11.8132 H              1 <1>                0.0000
     33 H33          1.9677 -18.3066  13.1776 H              1 <1>                0.0000
     34 H34          0.7712 -18.3008  15.2727 H              1 <1>                0.0000
     35 H35         -0.3276 -19.5901  14.7182 H              1 <1>                0.0000
     36 H36          2.6970 -19.9264  14.9803 H              1 <1>                0.0000
     37 H37          1.5304 -20.4146  16.2368 H              1 <1>                0.0000
     38 H38          2.2096 -22.2785  14.6519 H              1 <1>                0.0000
     39 H39          0.4605 -21.9813  14.7378 H              1 <1>                0.0000
     40 H40         -0.7653 -17.1163  10.3337 H              1 <1>                0.0000
     41 H41          1.5120 -22.0961  12.3940 H              1 <1>                0.0000
@<TRIPOS>BOND
    1    1    2 1     
    2    1   21 1     
    3    1   22 1     
    4    1   23 1     
    5    2    3 1     
    6    2    4 1     
    7    2    5 1     
    8    3   24 1     
    9    3   25 1     
   10    3   26 1     
   11    4   27 1     
   12    4   28 1     
   13    4   29 1     
   14    5    6 1     
   15    6    7 2     
   16    6    8 am    
   17    8    9 1     
   18    8   40 1     
   19    9   10 1     
   20    9   18 1     
   21    9   30 1     
   22   10   11 1     
   23   10   31 1     
   24   10   32 1     
   25   11   12 1     
   26   11   16 1     
   27   11   33 1     
   28   12   13 1     
   29   12   34 1     
   30   12   35 1     
   31   13   14 1     
   32   13   36 1     
   33   13   37 1     
   34   14   15 1     
   35   14   38 1     
   36   14   39 1     
   37   15   16 am    
   38   15   41 1     
   39   16   17 2     
   40   18   19 ar    
   41   18   20 ar    
@<TRIPOS>SUBSTRUCTURE
      1 ****           1
@<TRIPOS>SET
DONOR_HYDROGENS      STATIC     ATOMS    <user>   **** ""
2 40 41
ATOM$RED        STATIC     ATOMS    COLORGROUP SYSTEM
2 40 41
@<TRIPOS>COMMENT
> <Gold.Version>
2022.2.0

> <Gold.Id.Protein>
3pbl|protein|mol2

> <Gold.Protein.RotatedTorsions>
[ 1303 1298 1297 1294 ] final   15.63 input  179.99 | X-H torsion
[ 2461 2456 2455 2452 ] final    8.51 input   30.03 | X-H torsion
[ 2515 2510 2509 2506 ] final -174.60 input  -89.99 | X-H torsion
[ 3721 3712 3711 3710 ] final   44.56 input -179.91 | X-H torsion
[ 3841 3832 3831 3830 ] final   -5.17 input -179.91 | X-H torsion
[ 3767 3762 3761 3758 ] final   25.85 input  -89.99 | X-H torsion
[ 2472 2467 2466 2463 ] final  -97.96 input  -89.97 | X-H torsion

> <Gold.Protein.ActiveResidues>
 VAL82   VAL86   LEU89   PHE106  VAL107  ASP110  VAL111  MET112  CYS114  THR115 
 CYS181  SER182  ILE183  PHE188  VAL189  ILE190  SER192  SER193  SER196  TRP342 
 PHE345  PHE346  HIS349  VAL350  TYR365  THR369  GLY372  TYR373 

> <Gold.Protein.RotatedAtoms>
    3.4925  -10.0553    4.1922 H   0  0  0  0  0  0  0  0  0  0  0  0  # atno 1303 bound_to 1298
    1.1752   -7.9498    7.0392 H   0  0  0  0  0  0  0  0  0  0  0  0  # atno 2461 bound_to 2456
   -4.1557   -5.3775    9.3555 H   0  0  0  0  0  0  0  0  0  0  0  0  # atno 2472 bound_to 2467
    2.3608   -9.0902    5.7817 H   0  0  0  0  0  0  0  0  0  0  0  0  # atno 2515 bound_to 2510
   -2.5224  -17.9964   13.5877 H   0  0  0  0  0  0  0  0  0  0  0  0  # atno 3721 bound_to 3712
   -5.0367  -23.0148   10.0633 H   0  0  0  0  0  0  0  0  0  0  0  0  # atno 3767 bound_to 3762
    1.6946  -20.4270    9.5311 H   0  0  0  0  0  0  0  0  0  0  0  0  # atno 3841 bound_to 3832
    4.0182   -8.5263    3.9635 LP  0  0  0  0  0  0  0  0  0  0  0  0  # atno 4297 bound_to 1298
    4.8517   -9.5395    4.9359 LP  0  0  0  0  0  0  0  0  0  0  0  0  # atno 4298 bound_to 1298
    0.4909   -9.1116    7.9608 LP  0  0  0  0  0  0  0  0  0  0  0  0  # atno 4299 bound_to 2456
    2.0716   -8.7465    8.1479 LP  0  0  0  0  0  0  0  0  0  0  0  0  # atno 4300 bound_to 2456
    2.1239   -7.4949    5.5274 LP  0  0  0  0  0  0  0  0  0  0  0  0  # atno 4301 bound_to 2510
    2.8120   -8.4137    4.3659 LP  0  0  0  0  0  0  0  0  0  0  0  0  # atno 4302 bound_to 2510
   -3.1126  -17.1970   14.8489 LP  0  0  0  0  0  0  0  0  0  0  0  0  # atno 4306 bound_to 3712
   -3.5029  -16.7521   13.3269 LP  0  0  0  0  0  0  0  0  0  0  0  0  # atno 4307 bound_to 3712
    2.2227  -19.6723    8.2167 LP  0  0  0  0  0  0  0  0  0  0  0  0  # atno 4314 bound_to 3832
    3.0491  -20.9367    8.8371 LP  0  0  0  0  0  0  0  0  0  0  0  0  # atno 4315 bound_to 3832
   -5.1794  -21.9158   11.2628 LP  0  0  0  0  0  0  0  0  0  0  0  0  # atno 4318 bound_to 3762
   -3.9114  -22.9446   11.2447 LP  0  0  0  0  0  0  0  0  0  0  0  0  # atno 4319 bound_to 3762
   -5.5082   -5.2019    8.4575 LP  0  0  0  0  0  0  0  0  0  0  0  0  # atno 4320 bound_to 2467
   -4.0529   -4.8142    7.8263 LP  0  0  0  0  0  0  0  0  0  0  0  0  # atno 4321 bound_to 2467

> <Gold.Score>
     Score     S(PLP)   S(hbond)     S(cho)   S(metal)  DE(clash)   DE(tors)     intcor
     42.36     -39.72       2.00       0.00       0.00       1.34       1.38       0.74

> <Gold.PLP.Fitness>
42.3585

> <Gold.PLP.PLP>
-39.7208

> <Gold.PLP.part.hbond>
-2.7111

> <Gold.PLP.part.metal>
0.0000

> <Gold.PLP.part.buried>
-2.4790

> <Gold.PLP.part.nonpolar>
-35.5033

> <Gold.PLP.part.repulsive>
0.3858

> <Gold.PLP.ligand.clash>
1.3372

> <Gold.PLP.ligand.torsion>
1.3835

> <Gold.PLP.Chemscore.Hbond>
2.0000

> <Gold.PLP.Chemscore.CHOScore>
0.0000

> <Gold.PLP.Chemscore.Metal>
0.0000

> <Gold.Chemscore.Hbonds>
donor molecule, donor type, donor heavy atom, donor atom, acceptor molecule, acceptor atom, score
      P1  H  2305  2313       L1    20  1.00
      P1  H  3832  3841       L1    17  1.00

> <Gold.PLP.Chemscore.Internal.Correction>
0.7420

