#       Name:                EN300-26870132_i002
#       Creating user name   fsindt
#       Creation time:       Wed Mar  1 04:39:06 2023


#       File generated by GOLD software.
#

@<TRIPOS>MOLECULE
EN300-26870132_i002|acide_1|mol2|6716|dock20
    41    41     1
SMALL
USER_CHARGES


@<TRIPOS>ATOM
      1 C1          -0.1459 -12.5575   9.2939 C.3            1 <1>                0.0000
      2 C2           0.5727 -13.7442   8.6487 C.3            1 <1>                0.0000
      3 C3          -0.4601 -14.7626   8.1620 C.3            1 <1>                0.0000
      4 C4           1.4035 -13.2532   7.4615 C.3            1 <1>                0.0000
      5 O5           1.4466 -14.3698   9.6251 O.3            1 <1>                0.0000
      6 C6           0.8564 -15.0327  10.6376 C.2            1 <1>                0.0000
      7 O7          -0.2331 -14.6784  11.0423 O.2            1 <1>                0.0000
      8 N8           1.4742 -16.0892  11.2021 N.am           1 <1>                0.0000
      9 C9           0.8320 -16.8104  12.3037 C.3            1 <1>                0.0000
     10 C10         -0.5369 -17.3212  11.8497 C.3            1 <1>                0.0000
     11 C11         -0.6862 -18.7936  12.2379 C.3            1 <1>                0.0000
     12 C12          0.2445 -19.6449  11.3708 C.3            1 <1>                0.0000
     13 C13          0.2871 -21.0629  11.9531 C.3            1 <1>                0.0000
     14 C14          0.9882 -21.0136  13.3112 C.3            1 <1>                0.0000
     15 N15          0.4003 -19.9779  14.1515 N.am           1 <1>                0.0000
     16 C16         -0.3334 -18.9655  13.6875 C.2            1 <1>                0.0000
     17 O17         -0.7368 -18.1393  14.4783 O.2            1 <1>                0.0000
     18 C18          0.6576 -15.8820  13.4779 C.2            1 <1>                0.0000
     19 O19          1.4673 -15.8931  14.3893 O.co2          1 <1>                0.0000
     20 O20         -0.2934 -15.1200  13.5166 O.co2          1 <1>               -1.0000
     21 H21         -0.7377 -12.9073  10.1398 H              1 <1>                0.0000
     22 H22          0.5900 -11.8319   9.6406 H              1 <1>                0.0000
     23 H23         -0.8019 -12.0878   8.5610 H              1 <1>                0.0000
     24 H24         -1.1162 -14.2929   7.4291 H              1 <1>                0.0000
     25 H25          0.0519 -15.6080   7.7024 H              1 <1>                0.0000
     26 H26         -1.0519 -15.1124   9.0079 H              1 <1>                0.0000
     27 H27          2.1394 -12.5276   7.8082 H              1 <1>                0.0000
     28 H28          1.9155 -14.0986   7.0018 H              1 <1>                0.0000
     29 H29          0.7475 -12.7835   6.7285 H              1 <1>                0.0000
     30 H30          1.4557 -17.6548  12.5976 H              1 <1>                0.0000
     31 H31         -1.3208 -16.7370  12.3317 H              1 <1>                0.0000
     32 H32         -0.6217 -17.2204  10.7677 H              1 <1>                0.0000
     33 H33         -1.7177 -19.1074  12.0780 H              1 <1>                0.0000
     34 H34         -0.1346 -19.6789  10.3494 H              1 <1>                0.0000
     35 H35          1.2464 -19.2156  11.3767 H              1 <1>                0.0000
     36 H36         -0.7289 -21.4371  12.0792 H              1 <1>                0.0000
     37 H37          0.8397 -21.7183  11.2799 H              1 <1>                0.0000
     38 H38          0.8850 -21.9798  13.8051 H              1 <1>                0.0000
     39 H39          2.0465 -20.7995  13.1628 H              1 <1>                0.0000
     40 H40          2.3440 -16.3719  10.8790 H              1 <1>                0.0000
     41 H41          0.5521 -20.0281  15.1082 H              1 <1>                0.0000
@<TRIPOS>BOND
    1    1    2 1     
    2    1   21 1     
    3    1   22 1     
    4    1   23 1     
    5    2    3 1     
    6    2    4 1     
    7    2    5 1     
    8    3   24 1     
    9    3   25 1     
   10    3   26 1     
   11    4   27 1     
   12    4   28 1     
   13    4   29 1     
   14    5    6 1     
   15    6    7 2     
   16    6    8 am    
   17    8    9 1     
   18    8   40 1     
   19    9   10 1     
   20    9   18 1     
   21    9   30 1     
   22   10   11 1     
   23   10   31 1     
   24   10   32 1     
   25   11   12 1     
   26   11   16 1     
   27   11   33 1     
   28   12   13 1     
   29   12   34 1     
   30   12   35 1     
   31   13   14 1     
   32   13   36 1     
   33   13   37 1     
   34   14   15 1     
   35   14   38 1     
   36   14   39 1     
   37   15   16 am    
   38   15   41 1     
   39   16   17 2     
   40   18   19 ar    
   41   18   20 ar    
@<TRIPOS>SUBSTRUCTURE
      1 ****           1
@<TRIPOS>SET
DONOR_HYDROGENS      STATIC     ATOMS    <user>   **** ""
2 40 41
ATOM$RED        STATIC     ATOMS    COLORGROUP SYSTEM
2 40 41
@<TRIPOS>COMMENT
> <Gold.Version>
2022.2.0

> <Gold.Id.Protein>
3pbl|protein|mol2

> <Gold.Protein.RotatedTorsions>
[ 1303 1298 1297 1294 ] final  130.11 input  179.99 | X-H torsion
[ 2461 2456 2455 2452 ] final  -39.16 input   30.03 | X-H torsion
[ 2515 2510 2509 2506 ] final   39.06 input  -89.99 | X-H torsion
[ 3721 3712 3711 3710 ] final   -2.76 input -179.91 | X-H torsion
[ 3841 3832 3831 3830 ] final   -5.44 input -179.91 | X-H torsion
[ 3767 3762 3761 3758 ] final -139.58 input  -89.99 | X-H torsion
[ 2472 2467 2466 2463 ] final -151.87 input  -89.97 | X-H torsion

> <Gold.Protein.ActiveResidues>
 VAL82   VAL86   LEU89   PHE106  VAL107  ASP110  VAL111  MET112  CYS114  THR115 
 CYS181  SER182  ILE183  PHE188  VAL189  ILE190  SER192  SER193  SER196  TRP342 
 PHE345  PHE346  HIS349  VAL350  TYR365  THR369  GLY372  TYR373 

> <Gold.Protein.RotatedAtoms>
    4.8186   -9.6235    4.9462 H   0  0  0  0  0  0  0  0  0  0  0  0  # atno 1303 bound_to 1298
    0.5235   -8.3188    7.1803 H   0  0  0  0  0  0  0  0  0  0  0  0  # atno 2461 bound_to 2456
   -5.0058   -5.4573    9.3175 H   0  0  0  0  0  0  0  0  0  0  0  0  # atno 2472 bound_to 2467
    2.2718   -7.4089    5.1334 H   0  0  0  0  0  0  0  0  0  0  0  0  # atno 2515 bound_to 2510
   -2.4932  -17.9398   14.2800 H   0  0  0  0  0  0  0  0  0  0  0  0  # atno 3721 bound_to 3712
   -4.5758  -22.0977   11.6273 H   0  0  0  0  0  0  0  0  0  0  0  0  # atno 3767 bound_to 3762
    1.6926  -20.4239    9.5296 H   0  0  0  0  0  0  0  0  0  0  0  0  # atno 3841 bound_to 3832
    3.4492   -9.9961    4.1385 LP  0  0  0  0  0  0  0  0  0  0  0  0  # atno 4297 bound_to 1298
    4.0941   -8.5016    4.0067 LP  0  0  0  0  0  0  0  0  0  0  0  0  # atno 4298 bound_to 1298
    1.1200   -9.2854    8.3540 LP  0  0  0  0  0  0  0  0  0  0  0  0  # atno 4299 bound_to 2456
    2.0940   -8.2039    7.6136 LP  0  0  0  0  0  0  0  0  0  0  0  0  # atno 4300 bound_to 2456
    2.8332   -8.8142    4.5203 LP  0  0  0  0  0  0  0  0  0  0  0  0  # atno 4301 bound_to 2510
    2.1918   -8.7765    6.0216 LP  0  0  0  0  0  0  0  0  0  0  0  0  # atno 4302 bound_to 2510
   -3.4570  -16.6631   14.4168 LP  0  0  0  0  0  0  0  0  0  0  0  0  # atno 4306 bound_to 3712
   -3.1922  -17.3514   12.9598 LP  0  0  0  0  0  0  0  0  0  0  0  0  # atno 4307 bound_to 3712
    2.2267  -19.6734    8.2152 LP  0  0  0  0  0  0  0  0  0  0  0  0  # atno 4314 bound_to 3832
    3.0474  -20.9392    8.8404 LP  0  0  0  0  0  0  0  0  0  0  0  0  # atno 4315 bound_to 3832
   -4.0907  -23.3015   10.6361 LP  0  0  0  0  0  0  0  0  0  0  0  0  # atno 4318 bound_to 3762
   -5.4608  -22.4757   10.3080 LP  0  0  0  0  0  0  0  0  0  0  0  0  # atno 4319 bound_to 3762
   -5.0758   -4.9103    7.7805 LP  0  0  0  0  0  0  0  0  0  0  0  0  # atno 4320 bound_to 2467
   -3.6354   -5.0260    8.5413 LP  0  0  0  0  0  0  0  0  0  0  0  0  # atno 4321 bound_to 2467

> <Gold.Score>
     Score     S(PLP)   S(hbond)     S(cho)   S(metal)  DE(clash)   DE(tors)     intcor
     45.79     -41.02       2.55       0.00       0.00       0.00       1.82       0.74

> <Gold.PLP.Fitness>
45.7860

> <Gold.PLP.PLP>
-41.0196

> <Gold.PLP.part.hbond>
-2.7292

> <Gold.PLP.part.metal>
0.0000

> <Gold.PLP.part.buried>
-3.7326

> <Gold.PLP.part.nonpolar>
-34.8531

> <Gold.PLP.part.repulsive>
0.2973

> <Gold.PLP.ligand.clash>
0.0000

> <Gold.PLP.ligand.torsion>
1.8158

> <Gold.PLP.Chemscore.Hbond>
2.5520

> <Gold.PLP.Chemscore.CHOScore>
0.0000

> <Gold.PLP.Chemscore.Metal>
0.0000

> <Gold.Chemscore.Hbonds>
donor molecule, donor type, donor heavy atom, donor atom, acceptor molecule, acceptor atom, score
      L1  H     8    40       P1  1227  0.56
      P1  H  2305  2313       L1    19  0.99
      P1  H  3712  3721       L1    17  1.00

> <Gold.PLP.Chemscore.Internal.Correction>
0.7420

