#       Name:                EN300-26870132_i002
#       Creating user name   fsindt
#       Creation time:       Wed Mar  1 04:38:50 2023


#       File generated by GOLD software.
#

@<TRIPOS>MOLECULE
EN300-26870132_i002|acide_1|mol2|6716|dock9
    41    41     1
SMALL
USER_CHARGES


@<TRIPOS>ATOM
      1 C1           0.9801 -21.4084  13.1135 C.3            1 <1>                0.0000
      2 C2           0.0930 -20.1654  13.0193 C.3            1 <1>                0.0000
      3 C3          -1.3779 -20.5855  13.0430 C.3            1 <1>                0.0000
      4 C4           0.3793 -19.2435  14.2064 C.3            1 <1>                0.0000
      5 O5           0.3757 -19.4618  11.7810 O.3            1 <1>                0.0000
      6 C6          -0.1533 -18.2314  11.6427 C.2            1 <1>                0.0000
      7 O7          -1.1979 -17.9533  12.1976 O.2            1 <1>                0.0000
      8 N8           0.4759 -17.3082  10.8889 N.am           1 <1>                0.0000
      9 C9          -0.0997 -15.9695  10.7383 C.3            1 <1>                0.0000
     10 C10          0.7797 -15.1385   9.8017 C.3            1 <1>                0.0000
     11 C11         -0.0897 -14.1313   9.0461 C.3            1 <1>                0.0000
     12 C12         -0.0286 -12.7754   9.7537 C.3            1 <1>                0.0000
     13 C13         -0.6719 -11.7235   8.8420 C.3            1 <1>                0.0000
     14 C14          0.2128 -11.5379   7.6085 C.3            1 <1>                0.0000
     15 N15          0.5222 -12.8275   7.0039 N.am           1 <1>                0.0000
     16 C16          0.4137 -13.9959   7.6377 C.2            1 <1>                0.0000
     17 O17          0.7392 -15.0027   7.0452 O.2            1 <1>                0.0000
     18 C18         -0.1715 -15.2991  12.0861 C.2            1 <1>                0.0000
     19 O19          0.2764 -15.8609  13.0710 O.co2          1 <1>                0.0000
     20 O20         -0.6777 -14.1949  12.1916 O.co2          1 <1>               -1.0000
     21 H21          0.7763 -22.0652  12.2678 H              1 <1>                0.0000
     22 H22          2.0281 -21.1091  13.0967 H              1 <1>                0.0000
     23 H23          0.7680 -21.9366  14.0431 H              1 <1>                0.0000
     24 H24         -1.5901 -21.1138  13.9726 H              1 <1>                0.0000
     25 H25         -2.0099 -19.6999  12.9758 H              1 <1>                0.0000
     26 H26         -1.5818 -21.2423  12.1972 H              1 <1>                0.0000
     27 H27          1.4272 -18.9441  14.1896 H              1 <1>                0.0000
     28 H28         -0.2527 -18.3579  14.1393 H              1 <1>                0.0000
     29 H29          0.1671 -19.7717  15.1360 H              1 <1>                0.0000
     30 H30         -1.1025 -16.0502  10.3187 H              1 <1>                0.0000
     31 H31          1.5297 -14.6050  10.3856 H              1 <1>                0.0000
     32 H32          1.2752 -15.7976   9.0888 H              1 <1>                0.0000
     33 H33         -1.1207 -14.4844   9.0284 H              1 <1>                0.0000
     34 H34         -0.5747 -12.8280  10.6956 H              1 <1>                0.0000
     35 H35          1.0105 -12.5083   9.9460 H              1 <1>                0.0000
     36 H36         -1.6615 -12.0618   8.5348 H              1 <1>                0.0000
     37 H37         -0.7560 -10.7778   9.3773 H              1 <1>                0.0000
     38 H38         -0.3087 -10.9152   6.8816 H              1 <1>                0.0000
     39 H39          1.1401 -11.0454   7.9009 H              1 <1>                0.0000
     40 H40          1.3098 -17.5302  10.4459 H              1 <1>                0.0000
     41 H41          0.8261 -12.8366   6.0828 H              1 <1>                0.0000
@<TRIPOS>BOND
    1    1    2 1     
    2    1   21 1     
    3    1   22 1     
    4    1   23 1     
    5    2    3 1     
    6    2    4 1     
    7    2    5 1     
    8    3   24 1     
    9    3   25 1     
   10    3   26 1     
   11    4   27 1     
   12    4   28 1     
   13    4   29 1     
   14    5    6 1     
   15    6    7 2     
   16    6    8 am    
   17    8    9 1     
   18    8   40 1     
   19    9   10 1     
   20    9   18 1     
   21    9   30 1     
   22   10   11 1     
   23   10   31 1     
   24   10   32 1     
   25   11   12 1     
   26   11   16 1     
   27   11   33 1     
   28   12   13 1     
   29   12   34 1     
   30   12   35 1     
   31   13   14 1     
   32   13   36 1     
   33   13   37 1     
   34   14   15 1     
   35   14   38 1     
   36   14   39 1     
   37   15   16 am    
   38   15   41 1     
   39   16   17 2     
   40   18   19 ar    
   41   18   20 ar    
@<TRIPOS>SUBSTRUCTURE
      1 ****           1
@<TRIPOS>SET
DONOR_HYDROGENS      STATIC     ATOMS    <user>   **** ""
2 40 41
ATOM$RED        STATIC     ATOMS    COLORGROUP SYSTEM
2 40 41
@<TRIPOS>COMMENT
> <Gold.Version>
2022.2.0

> <Gold.Id.Protein>
3pbl|protein|mol2

> <Gold.Protein.RotatedTorsions>
[ 1303 1298 1297 1294 ] final  142.46 input  179.99 | X-H torsion
[ 2461 2456 2455 2452 ] final  -86.73 input   30.03 | X-H torsion
[ 2515 2510 2509 2506 ] final   81.53 input  -89.99 | X-H torsion
[ 3721 3712 3711 3710 ] final   52.07 input -179.91 | X-H torsion
[ 3841 3832 3831 3830 ] final  126.60 input -179.91 | X-H torsion
[ 3767 3762 3761 3758 ] final   -4.27 input  -89.99 | X-H torsion
[ 2472 2467 2466 2463 ] final    5.72 input  -89.97 | X-H torsion

> <Gold.Protein.ActiveResidues>
 VAL82   VAL86   LEU89   PHE106  VAL107  ASP110  VAL111  MET112  CYS114  THR115 
 CYS181  SER182  ILE183  PHE188  VAL189  ILE190  SER192  SER193  SER196  TRP342 
 PHE345  PHE346  HIS349  VAL350  TYR365  THR369  GLY372  TYR373 

> <Gold.Protein.RotatedAtoms>
    4.8821   -9.4332    4.9164 H   0  0  0  0  0  0  0  0  0  0  0  0  # atno 1303 bound_to 1298
    0.3433   -8.8723    7.6703 H   0  0  0  0  0  0  0  0  0  0  0  0  # atno 2461 bound_to 2456
   -3.8543   -4.8561    8.0007 H   0  0  0  0  0  0  0  0  0  0  0  0  # atno 2472 bound_to 2467
    2.0639   -7.6367    5.7425 H   0  0  0  0  0  0  0  0  0  0  0  0  # atno 2515 bound_to 2510
   -2.5527  -17.9594   13.4848 H   0  0  0  0  0  0  0  0  0  0  0  0  # atno 3721 bound_to 3712
   -5.3599  -22.6640   10.1757 H   0  0  0  0  0  0  0  0  0  0  0  0  # atno 3767 bound_to 3762
    3.1087  -20.6627    8.8665 H   0  0  0  0  0  0  0  0  0  0  0  0  # atno 3841 bound_to 3832
    3.5543  -10.1203    4.2597 LP  0  0  0  0  0  0  0  0  0  0  0  0  # atno 4297 bound_to 1298
    3.9255   -8.5678    3.9152 LP  0  0  0  0  0  0  0  0  0  0  0  0  # atno 4298 bound_to 1298
    1.8302   -9.0142    8.3310 LP  0  0  0  0  0  0  0  0  0  0  0  0  # atno 4299 bound_to 2456
    1.5640   -7.9218    7.1468 LP  0  0  0  0  0  0  0  0  0  0  0  0  # atno 4300 bound_to 2456
    2.7591   -8.1546    4.3589 LP  0  0  0  0  0  0  0  0  0  0  0  0  # atno 4301 bound_to 2510
    2.4738   -9.2081    5.5736 LP  0  0  0  0  0  0  0  0  0  0  0  0  # atno 4302 bound_to 2510
   -3.0497  -17.3046   14.8639 LP  0  0  0  0  0  0  0  0  0  0  0  0  # atno 4306 bound_to 3712
   -3.5308  -16.6873   13.4307 LP  0  0  0  0  0  0  0  0  0  0  0  0  # atno 4307 bound_to 3712
    1.6352  -20.7011    9.5016 LP  0  0  0  0  0  0  0  0  0  0  0  0  # atno 4314 bound_to 3832
    2.0031  -19.6357    8.3199 LP  0  0  0  0  0  0  0  0  0  0  0  0  # atno 4315 bound_to 3832
   -4.7898  -21.9911   11.5502 LP  0  0  0  0  0  0  0  0  0  0  0  0  # atno 4318 bound_to 3762
   -3.9779  -23.2200   10.8449 LP  0  0  0  0  0  0  0  0  0  0  0  0  # atno 4319 bound_to 3762
   -4.4087   -5.4297    9.4255 LP  0  0  0  0  0  0  0  0  0  0  0  0  # atno 4320 bound_to 2467
   -5.4538   -5.1077    8.2128 LP  0  0  0  0  0  0  0  0  0  0  0  0  # atno 4321 bound_to 2467

> <Gold.Score>
     Score     S(PLP)   S(hbond)     S(cho)   S(metal)  DE(clash)   DE(tors)     intcor
     42.38     -38.32       2.00       0.00       0.00       0.00       1.39       0.84

> <Gold.PLP.Fitness>
42.3790

> <Gold.PLP.PLP>
-38.3188

> <Gold.PLP.part.hbond>
-2.0000

> <Gold.PLP.part.metal>
0.0000

> <Gold.PLP.part.buried>
-4.9513

> <Gold.PLP.part.nonpolar>
-31.1626

> <Gold.PLP.part.repulsive>
0.3725

> <Gold.PLP.ligand.clash>
0.0000

> <Gold.PLP.ligand.torsion>
1.3915

> <Gold.PLP.Chemscore.Hbond>
2.0000

> <Gold.PLP.Chemscore.CHOScore>
0.0000

> <Gold.PLP.Chemscore.Metal>
0.0000

> <Gold.Chemscore.Hbonds>
donor molecule, donor type, donor heavy atom, donor atom, acceptor molecule, acceptor atom, score
      L1  H     8    40       P1  1227  1.00
      P1  H  3712  3721       L1     7  1.00

> <Gold.PLP.Chemscore.Internal.Correction>
0.8433

