#       Name:                EN300-26870132_i002
#       Creating user name   fsindt
#       Creation time:       Wed Mar  1 04:38:42 2023


#       File generated by GOLD software.
#

@<TRIPOS>MOLECULE
EN300-26870132_i002|acide_1|mol2|6716|dock3
    41    41     1
SMALL
USER_CHARGES


@<TRIPOS>ATOM
      1 C1          -1.4583 -20.9965  13.4989 C.3            1 <1>                0.0000
      2 C2           0.0451 -20.8232  13.2745 C.3            1 <1>                0.0000
      3 C3           0.6942 -20.2936  14.5547 C.3            1 <1>                0.0000
      4 C4           0.6652 -22.1735  12.9093 C.3            1 <1>                0.0000
      5 O5           0.2676 -19.8802  12.1930 O.3            1 <1>                0.0000
      6 C6           0.0075 -18.5842  12.4489 C.2            1 <1>                0.0000
      7 O7          -0.8526 -18.2846  13.2533 O.2            1 <1>                0.0000
      8 N8           0.7010 -17.6193  11.8130 N.am           1 <1>                0.0000
      9 C9           0.4180 -16.2092  12.0914 C.3            1 <1>                0.0000
     10 C10          1.2574 -15.3277  11.1644 C.3            1 <1>                0.0000
     11 C11          0.3496 -14.6801  10.1167 C.3            1 <1>                0.0000
     12 C12          1.1070 -13.5483   9.4177 C.3            1 <1>                0.0000
     13 C13          0.2915 -13.0999   8.1990 C.3            1 <1>                0.0000
     14 C14          0.2852 -14.2317   7.1707 C.3            1 <1>                0.0000
     15 N15         -0.1093 -15.4874   7.7967 N.am           1 <1>                0.0000
     16 C16         -0.0670 -15.7139   9.1102 C.2            1 <1>                0.0000
     17 O17         -0.3815 -16.8136   9.5135 O.2            1 <1>                0.0000
     18 C18          0.7631 -15.9013  13.5257 C.2            1 <1>                0.0000
     19 O19          1.9130 -16.0162  13.9142 O.co2          1 <1>                0.0000
     20 O20         -0.1076 -15.5373  14.2976 O.co2          1 <1>               -1.0000
     21 H21         -1.9001 -20.0345  13.7590 H              1 <1>                0.0000
     22 H22         -1.9207 -21.3739  12.5867 H              1 <1>                0.0000
     23 H23         -1.6254 -21.7044  14.3107 H              1 <1>                0.0000
     24 H24          0.5272 -21.0015  15.3666 H              1 <1>                0.0000
     25 H25          1.7653 -20.1702  14.3948 H              1 <1>                0.0000
     26 H26          0.2524 -19.3316  14.8148 H              1 <1>                0.0000
     27 H27          0.2028 -22.5509  11.9972 H              1 <1>                0.0000
     28 H28          1.7364 -22.0501  12.7494 H              1 <1>                0.0000
     29 H29          0.4982 -22.8814  13.7212 H              1 <1>                0.0000
     30 H30         -0.6403 -16.0106  11.9217 H              1 <1>                0.0000
     31 H31          1.7494 -14.5505  11.7491 H              1 <1>                0.0000
     32 H32          2.0098 -15.9385  10.6655 H              1 <1>                0.0000
     33 H33         -0.5362 -14.2750  10.6057 H              1 <1>                0.0000
     34 H34          1.2311 -12.7110  10.1045 H              1 <1>                0.0000
     35 H35          2.0844 -13.9059   9.0939 H              1 <1>                0.0000
     36 H36         -0.7309 -12.8777   8.5046 H              1 <1>                0.0000
     37 H37          0.7462 -12.2110   7.7616 H              1 <1>                0.0000
     38 H38         -0.4178 -13.9902   6.3734 H              1 <1>                0.0000
     39 H39          1.2835 -14.3387   6.7465 H              1 <1>                0.0000
     40 H40          1.3875 -17.8586  11.1708 H              1 <1>                0.0000
     41 H41         -0.4223 -16.2033   7.2219 H              1 <1>                0.0000
@<TRIPOS>BOND
    1    1    2 1     
    2    1   21 1     
    3    1   22 1     
    4    1   23 1     
    5    2    3 1     
    6    2    4 1     
    7    2    5 1     
    8    3   24 1     
    9    3   25 1     
   10    3   26 1     
   11    4   27 1     
   12    4   28 1     
   13    4   29 1     
   14    5    6 1     
   15    6    7 2     
   16    6    8 am    
   17    8    9 1     
   18    8   40 1     
   19    9   10 1     
   20    9   18 1     
   21    9   30 1     
   22   10   11 1     
   23   10   31 1     
   24   10   32 1     
   25   11   12 1     
   26   11   16 1     
   27   11   33 1     
   28   12   13 1     
   29   12   34 1     
   30   12   35 1     
   31   13   14 1     
   32   13   36 1     
   33   13   37 1     
   34   14   15 1     
   35   14   38 1     
   36   14   39 1     
   37   15   16 am    
   38   15   41 1     
   39   16   17 2     
   40   18   19 ar    
   41   18   20 ar    
@<TRIPOS>SUBSTRUCTURE
      1 ****           1
@<TRIPOS>SET
DONOR_HYDROGENS      STATIC     ATOMS    <user>   **** ""
2 40 41
ATOM$RED        STATIC     ATOMS    COLORGROUP SYSTEM
2 40 41
@<TRIPOS>COMMENT
> <Gold.Version>
2022.2.0

> <Gold.Id.Protein>
3pbl|protein|mol2

> <Gold.Protein.RotatedTorsions>
[ 1303 1298 1297 1294 ] final -101.32 input  179.99 | X-H torsion
[ 2461 2456 2455 2452 ] final   28.41 input   30.03 | X-H torsion
[ 2515 2510 2509 2506 ] final  -20.10 input  -89.99 | X-H torsion
[ 3721 3712 3711 3710 ] final   56.50 input -179.91 | X-H torsion
[ 3841 3832 3831 3830 ] final  -28.94 input -179.91 | X-H torsion
[ 3767 3762 3761 3758 ] final  110.22 input  -89.99 | X-H torsion
[ 2472 2467 2466 2463 ] final  -58.97 input  -89.97 | X-H torsion

> <Gold.Protein.ActiveResidues>
 VAL82   VAL86   LEU89   PHE106  VAL107  ASP110  VAL111  MET112  CYS114  THR115 
 CYS181  SER182  ILE183  PHE188  VAL189  ILE190  SER192  SER193  SER196  TRP342 
 PHE345  PHE346  HIS349  VAL350  TYR365  THR369  GLY372  TYR373 

> <Gold.Protein.RotatedAtoms>
    3.9762   -8.5435    3.9417 H   0  0  0  0  0  0  0  0  0  0  0  0  # atno 1303 bound_to 1298
    1.4902   -7.9170    7.1164 H   0  0  0  0  0  0  0  0  0  0  0  0  # atno 2461 bound_to 2456
   -3.7199   -5.1819    8.9459 H   0  0  0  0  0  0  0  0  0  0  0  0  # atno 2472 bound_to 2467
    2.6679   -7.8778    4.4342 H   0  0  0  0  0  0  0  0  0  0  0  0  # atno 2515 bound_to 2510
   -2.5735  -17.9321   13.4273 H   0  0  0  0  0  0  0  0  0  0  0  0  # atno 3721 bound_to 3712
   -4.0123  -23.2542   10.7685 H   0  0  0  0  0  0  0  0  0  0  0  0  # atno 3767 bound_to 3762
    1.5734  -20.1434    9.3522 H   0  0  0  0  0  0  0  0  0  0  0  0  # atno 3841 bound_to 3832
    4.8667   -9.4923    4.9281 LP  0  0  0  0  0  0  0  0  0  0  0  0  # atno 4297 bound_to 1298
    3.5192  -10.0858    4.2220 LP  0  0  0  0  0  0  0  0  0  0  0  0  # atno 4298 bound_to 1298
    0.3599   -8.9247    7.7284 LP  0  0  0  0  0  0  0  0  0  0  0  0  # atno 4299 bound_to 2456
    1.8878   -8.9662    8.3032 LP  0  0  0  0  0  0  0  0  0  0  0  0  # atno 4300 bound_to 2456
    2.5982   -9.2578    5.3041 LP  0  0  0  0  0  0  0  0  0  0  0  0  # atno 4301 bound_to 2510
    2.0305   -7.8637    5.9373 LP  0  0  0  0  0  0  0  0  0  0  0  0  # atno 4302 bound_to 2510
   -3.0129  -17.3687   14.8651 LP  0  0  0  0  0  0  0  0  0  0  0  0  # atno 4306 bound_to 3712
   -3.5437  -16.6547   13.4958 LP  0  0  0  0  0  0  0  0  0  0  0  0  # atno 4307 bound_to 3712
    2.5758  -19.8294    8.1387 LP  0  0  0  0  0  0  0  0  0  0  0  0  # atno 4314 bound_to 3832
    2.8360  -21.1072    9.1217 LP  0  0  0  0  0  0  0  0  0  0  0  0  # atno 4315 bound_to 3832
   -5.4021  -22.5962   10.2185 LP  0  0  0  0  0  0  0  0  0  0  0  0  # atno 4318 bound_to 3762
   -4.7127  -22.0249   11.5841 LP  0  0  0  0  0  0  0  0  0  0  0  0  # atno 4319 bound_to 3762
   -5.3371   -5.3904    9.0329 LP  0  0  0  0  0  0  0  0  0  0  0  0  # atno 4320 bound_to 2467
   -4.6598   -4.8212    7.6603 LP  0  0  0  0  0  0  0  0  0  0  0  0  # atno 4321 bound_to 2467

> <Gold.Score>
     Score     S(PLP)   S(hbond)     S(cho)   S(metal)  DE(clash)   DE(tors)     intcor
     47.55     -40.07       3.00       0.00       0.00       0.00       1.29       1.06

> <Gold.PLP.Fitness>
47.5479

> <Gold.PLP.PLP>
-40.0657

> <Gold.PLP.part.hbond>
-3.0000

> <Gold.PLP.part.metal>
0.0000

> <Gold.PLP.part.buried>
-3.5141

> <Gold.PLP.part.nonpolar>
-34.4216

> <Gold.PLP.part.repulsive>
0.4637

> <Gold.PLP.ligand.clash>
0.0000

> <Gold.PLP.ligand.torsion>
1.2888

> <Gold.PLP.Chemscore.Hbond>
3.0000

> <Gold.PLP.Chemscore.CHOScore>
0.0000

> <Gold.PLP.Chemscore.Metal>
0.0000

> <Gold.Chemscore.Hbonds>
donor molecule, donor type, donor heavy atom, donor atom, acceptor molecule, acceptor atom, score
      L1  H     8    40       P1  1227  1.00
      P1  H  2305  2313       L1    20  1.00
      P1  H  3712  3721       L1     7  1.00

> <Gold.PLP.Chemscore.Internal.Correction>
1.0597

