#       Name:                EN300-26870132_i002
#       Creating user name   fsindt
#       Creation time:       Wed Mar  1 04:38:56 2023


#       File generated by GOLD software.
#

@<TRIPOS>MOLECULE
EN300-26870132_i002|acide_1|mol2|6716|dock13
    41    41     1
SMALL
USER_CHARGES


@<TRIPOS>ATOM
      1 C1           0.1671 -20.0791  14.9656 C.3            1 <1>                0.0000
      2 C2           0.5976 -20.3556  13.5238 C.3            1 <1>                0.0000
      3 C3           1.5269 -21.5706  13.4930 C.3            1 <1>                0.0000
      4 C4          -0.6387 -20.6374  12.6675 C.3            1 <1>                0.0000
      5 O5           1.2974 -19.1975  12.9969 O.3            1 <1>                0.0000
      6 C6           0.5656 -18.0887  12.7781 C.2            1 <1>                0.0000
      7 O7          -0.4971 -17.9397  13.3481 O.2            1 <1>                0.0000
      8 N8           1.0119 -17.1440  11.9267 N.am           1 <1>                0.0000
      9 C9           0.2157 -15.9376  11.6885 C.3            1 <1>                0.0000
     10 C10          0.9808 -14.9977  10.7544 C.3            1 <1>                0.0000
     11 C11         -0.0093 -14.2579   9.8525 C.3            1 <1>                0.0000
     12 C12         -0.3923 -12.9262  10.5029 C.3            1 <1>                0.0000
     13 C13         -1.1568 -12.0860   9.4728 C.3            1 <1>                0.0000
     14 C14         -0.1936 -11.6882   8.3537 C.3            1 <1>                0.0000
     15 N15          0.5135 -12.8586   7.8492 N.am           1 <1>                0.0000
     16 C16          0.6249 -14.0092   8.5142 C.2            1 <1>                0.0000
     17 O17          1.2733 -14.9023   8.0114 O.2            1 <1>                0.0000
     18 C18         -0.0448 -15.2407  12.9990 C.2            1 <1>                0.0000
     19 O19          0.5231 -15.6138  14.0113 O.co2          1 <1>                0.0000
     20 O20         -0.8236 -14.3039  13.0471 O.co2          1 <1>               -1.0000
     21 H21          1.0479 -19.8782  15.5756 H              1 <1>                0.0000
     22 H22         -0.4950 -19.2134  14.9875 H              1 <1>                0.0000
     23 H23         -0.3582 -20.9484  15.3611 H              1 <1>                0.0000
     24 H24          1.0016 -22.4400  13.8886 H              1 <1>                0.0000
     25 H25          1.8336 -21.7676  12.4658 H              1 <1>                0.0000
     26 H26          2.4077 -21.3698  14.1030 H              1 <1>                0.0000
     27 H27         -1.3008 -19.7718  12.6894 H              1 <1>                0.0000
     28 H28         -0.3320 -20.8345  11.6403 H              1 <1>                0.0000
     29 H29         -1.1640 -21.5068  13.0630 H              1 <1>                0.0000
     30 H30         -0.7333 -16.2134  11.2287 H              1 <1>                0.0000
     31 H31          1.5428 -14.2753  11.3464 H              1 <1>                0.0000
     32 H32          1.6690 -15.5777  10.1395 H              1 <1>                0.0000
     33 H33         -0.9036 -14.8668   9.7205 H              1 <1>                0.0000
     34 H34         -1.0268 -13.1103  11.3699 H              1 <1>                0.0000
     35 H35          0.5085 -12.3966  10.8127 H              1 <1>                0.0000
     36 H36         -1.9768 -12.6725   9.0584 H              1 <1>                0.0000
     37 H37         -1.5508 -11.1897   9.9518 H              1 <1>                0.0000
     38 H38         -0.7559 -11.2290   7.5406 H              1 <1>                0.0000
     39 H39          0.5292 -10.9690   8.7389 H              1 <1>                0.0000
     40 H40          1.8602 -17.2630  11.4716 H              1 <1>                0.0000
     41 H41          0.9292 -12.7968   6.9749 H              1 <1>                0.0000
@<TRIPOS>BOND
    1    1    2 1     
    2    1   21 1     
    3    1   22 1     
    4    1   23 1     
    5    2    3 1     
    6    2    4 1     
    7    2    5 1     
    8    3   24 1     
    9    3   25 1     
   10    3   26 1     
   11    4   27 1     
   12    4   28 1     
   13    4   29 1     
   14    5    6 1     
   15    6    7 2     
   16    6    8 am    
   17    8    9 1     
   18    8   40 1     
   19    9   10 1     
   20    9   18 1     
   21    9   30 1     
   22   10   11 1     
   23   10   31 1     
   24   10   32 1     
   25   11   12 1     
   26   11   16 1     
   27   11   33 1     
   28   12   13 1     
   29   12   34 1     
   30   12   35 1     
   31   13   14 1     
   32   13   36 1     
   33   13   37 1     
   34   14   15 1     
   35   14   38 1     
   36   14   39 1     
   37   15   16 am    
   38   15   41 1     
   39   16   17 2     
   40   18   19 ar    
   41   18   20 ar    
@<TRIPOS>SUBSTRUCTURE
      1 ****           1
@<TRIPOS>SET
DONOR_HYDROGENS      STATIC     ATOMS    <user>   **** ""
2 40 41
ATOM$RED        STATIC     ATOMS    COLORGROUP SYSTEM
2 40 41
@<TRIPOS>COMMENT
> <Gold.Version>
2022.2.0

> <Gold.Id.Protein>
3pbl|protein|mol2

> <Gold.Protein.RotatedTorsions>
[ 1303 1298 1297 1294 ] final  117.73 input  179.99 | X-H torsion
[ 2461 2456 2455 2452 ] final   -6.48 input   30.03 | X-H torsion
[ 2515 2510 2509 2506 ] final   98.08 input  -89.99 | X-H torsion
[ 3721 3712 3711 3710 ] final   34.75 input -179.91 | X-H torsion
[ 3841 3832 3831 3830 ] final  -12.70 input -179.91 | X-H torsion
[ 3767 3762 3761 3758 ] final -109.44 input  -89.99 | X-H torsion
[ 2472 2467 2466 2463 ] final  123.61 input  -89.97 | X-H torsion

> <Gold.Protein.ActiveResidues>
 VAL82   VAL86   LEU89   PHE106  VAL107  ASP110  VAL111  MET112  CYS114  THR115 
 CYS181  SER182  ILE183  PHE188  VAL189  ILE190  SER192  SER193  SER196  TRP342 
 PHE345  PHE346  HIS349  VAL350  TYR365  THR369  GLY372  TYR373 

> <Gold.Protein.RotatedAtoms>
    4.7226   -9.8026    4.9490 H   0  0  0  0  0  0  0  0  0  0  0  0  # atno 1303 bound_to 1298
    0.9416   -8.0265    7.0343 H   0  0  0  0  0  0  0  0  0  0  0  0  # atno 2461 bound_to 2456
   -5.4414   -5.0962    8.1827 H   0  0  0  0  0  0  0  0  0  0  0  0  # atno 2472 bound_to 2467
    2.0323   -7.8388    5.9208 H   0  0  0  0  0  0  0  0  0  0  0  0  # atno 2515 bound_to 2510
   -2.4927  -18.0262   13.7298 H   0  0  0  0  0  0  0  0  0  0  0  0  # atno 3721 bound_to 3712
   -4.9911  -21.9295   11.4280 H   0  0  0  0  0  0  0  0  0  0  0  0  # atno 3767 bound_to 3762
    1.6428  -20.3377    9.4833 H   0  0  0  0  0  0  0  0  0  0  0  0  # atno 3841 bound_to 3832
    3.3752   -9.8428    4.0276 LP  0  0  0  0  0  0  0  0  0  0  0  0  # atno 4297 bound_to 1298
    4.2641   -8.4758    4.1148 LP  0  0  0  0  0  0  0  0  0  0  0  0  # atno 4298 bound_to 1298
    0.6504   -9.2132    8.1180 LP  0  0  0  0  0  0  0  0  0  0  0  0  # atno 4299 bound_to 2456
    2.1456   -8.5683    7.9957 LP  0  0  0  0  0  0  0  0  0  0  0  0  # atno 4300 bound_to 2456
    2.6781   -7.9035    4.4226 LP  0  0  0  0  0  0  0  0  0  0  0  0  # atno 4301 bound_to 2510
    2.5865   -9.2571    5.3316 LP  0  0  0  0  0  0  0  0  0  0  0  0  # atno 4302 bound_to 2510
   -3.1940  -17.0619   14.8050 LP  0  0  0  0  0  0  0  0  0  0  0  0  # atno 4306 bound_to 3712
   -3.4558  -16.8529   13.2068 LP  0  0  0  0  0  0  0  0  0  0  0  0  # atno 4307 bound_to 3712
    2.3369  -19.7097    8.1794 LP  0  0  0  0  0  0  0  0  0  0  0  0  # atno 4314 bound_to 3832
    2.9947  -21.0024    8.9296 LP  0  0  0  0  0  0  0  0  0  0  0  0  # atno 4315 bound_to 3832
   -3.9179  -23.1006   11.0486 LP  0  0  0  0  0  0  0  0  0  0  0  0  # atno 4318 bound_to 3762
   -5.2185  -22.8447   10.0947 LP  0  0  0  0  0  0  0  0  0  0  0  0  # atno 4319 bound_to 3762
   -3.8329   -4.8624    8.0270 LP  0  0  0  0  0  0  0  0  0  0  0  0  # atno 4320 bound_to 2467
   -4.4428   -5.4349    9.4294 LP  0  0  0  0  0  0  0  0  0  0  0  0  # atno 4321 bound_to 2467

> <Gold.Score>
     Score     S(PLP)   S(hbond)     S(cho)   S(metal)  DE(clash)   DE(tors)     intcor
     45.19     -39.23       2.68       0.00       0.00       0.00       1.41       0.74

> <Gold.PLP.Fitness>
45.1893

> <Gold.PLP.PLP>
-39.2256

> <Gold.PLP.part.hbond>
-3.9065

> <Gold.PLP.part.metal>
0.0000

> <Gold.PLP.part.buried>
-2.3879

> <Gold.PLP.part.nonpolar>
-34.2797

> <Gold.PLP.part.repulsive>
0.4435

> <Gold.PLP.ligand.clash>
0.0000

> <Gold.PLP.ligand.torsion>
1.4063

> <Gold.PLP.Chemscore.Hbond>
2.6781

> <Gold.PLP.Chemscore.CHOScore>
0.0000

> <Gold.PLP.Chemscore.Metal>
0.0000

> <Gold.Chemscore.Hbonds>
donor molecule, donor type, donor heavy atom, donor atom, acceptor molecule, acceptor atom, score
      L1  H     8    40       P1  1227  0.84
      P1  H  2305  2313       L1    19  0.88
      P1  H  3712  3721       L1     7  0.96

> <Gold.PLP.Chemscore.Internal.Correction>
0.7420

