#       Name:                EN300-26870132_i002
#       Creating user name   fsindt
#       Creation time:       Wed Mar  1 04:38:47 2023


#       File generated by GOLD software.
#

@<TRIPOS>MOLECULE
EN300-26870132_i002|acide_1|mol2|6716|dock7
    41    41     1
SMALL
USER_CHARGES


@<TRIPOS>ATOM
      1 C1          -1.6177 -11.6350   9.0041 C.3            1 <1>                0.0000
      2 C2          -0.4853 -12.5930   9.3794 C.3            1 <1>                0.0000
      3 C3          -0.2791 -13.6058   8.2514 C.3            1 <1>                0.0000
      4 C4           0.8047 -11.7987   9.5938 C.3            1 <1>                0.0000
      5 O5          -0.8306 -13.2946  10.6029 O.3            1 <1>                0.0000
      6 C6          -0.0014 -14.2793  10.9975 C.2            1 <1>                0.0000
      7 O7           1.1038 -14.3780  10.5021 O.2            1 <1>                0.0000
      8 N8          -0.3971 -15.1555  11.9421 N.am           1 <1>                0.0000
      9 C9           0.5050 -16.2269  12.3714 C.3            1 <1>                0.0000
     10 C10         -0.1956 -17.5778  12.2129 C.3            1 <1>                0.0000
     11 C11          0.7690 -18.7009  12.5993 C.3            1 <1>                0.0000
     12 C12          0.6237 -19.0046  14.0925 C.3            1 <1>                0.0000
     13 C13          1.3845 -20.3000  14.3999 C.3            1 <1>                0.0000
     14 C14          0.6676 -21.4635  13.7137 C.3            1 <1>                0.0000
     15 N15          0.4325 -21.1599  12.3077 N.am           1 <1>                0.0000
     16 C16          0.4525 -19.9290  11.7949 C.2            1 <1>                0.0000
     17 O17          0.2012 -19.7940  10.6162 O.2            1 <1>                0.0000
     18 C18          0.8775 -16.0208  13.8171 C.2            1 <1>                0.0000
     19 O19          2.0512 -15.9851  14.1450 O.co2          1 <1>                0.0000
     20 O20          0.0051 -15.8898  14.6587 O.co2          1 <1>               -1.0000
     21 H21         -2.5367 -12.2009   8.8514 H              1 <1>                0.0000
     22 H22         -1.7646 -10.9134   9.8078 H              1 <1>                0.0000
     23 H23         -1.3586 -11.1082   8.0856 H              1 <1>                0.0000
     24 H24         -0.0200 -13.0790   7.3329 H              1 <1>                0.0000
     25 H25          0.5276 -14.2883   8.5189 H              1 <1>                0.0000
     26 H26         -1.1981 -14.1717   8.0987 H              1 <1>                0.0000
     27 H27          0.6578 -11.0771  10.3975 H              1 <1>                0.0000
     28 H28          1.6114 -12.4812   9.8612 H              1 <1>                0.0000
     29 H29          1.0638 -11.2719   8.6753 H              1 <1>                0.0000
     30 H30          1.4061 -16.2107  11.7582 H              1 <1>                0.0000
     31 H31         -1.0709 -17.6115  12.8615 H              1 <1>                0.0000
     32 H32         -0.5063 -17.7065  11.1761 H              1 <1>                0.0000
     33 H33          1.7919 -18.3872  12.3915 H              1 <1>                0.0000
     34 H34          1.0434 -18.1852  14.6762 H              1 <1>                0.0000
     35 H35         -0.4302 -19.1303  14.3406 H              1 <1>                0.0000
     36 H36          2.4038 -20.2242  14.0213 H              1 <1>                0.0000
     37 H37          1.4034 -20.4663  15.4770 H              1 <1>                0.0000
     38 H38          1.2816 -22.3608  13.7907 H              1 <1>                0.0000
     39 H39         -0.2873 -21.6405  14.2086 H              1 <1>                0.0000
     40 H40         -1.2794 -15.0767  12.3375 H              1 <1>                0.0000
     41 H41          0.2500 -21.8995  11.7073 H              1 <1>                0.0000
@<TRIPOS>BOND
    1    1    2 1     
    2    1   21 1     
    3    1   22 1     
    4    1   23 1     
    5    2    3 1     
    6    2    4 1     
    7    2    5 1     
    8    3   24 1     
    9    3   25 1     
   10    3   26 1     
   11    4   27 1     
   12    4   28 1     
   13    4   29 1     
   14    5    6 1     
   15    6    7 2     
   16    6    8 am    
   17    8    9 1     
   18    8   40 1     
   19    9   10 1     
   20    9   18 1     
   21    9   30 1     
   22   10   11 1     
   23   10   31 1     
   24   10   32 1     
   25   11   12 1     
   26   11   16 1     
   27   11   33 1     
   28   12   13 1     
   29   12   34 1     
   30   12   35 1     
   31   13   14 1     
   32   13   36 1     
   33   13   37 1     
   34   14   15 1     
   35   14   38 1     
   36   14   39 1     
   37   15   16 am    
   38   15   41 1     
   39   16   17 2     
   40   18   19 ar    
   41   18   20 ar    
@<TRIPOS>SUBSTRUCTURE
      1 ****           1
@<TRIPOS>SET
DONOR_HYDROGENS      STATIC     ATOMS    <user>   **** ""
2 40 41
ATOM$RED        STATIC     ATOMS    COLORGROUP SYSTEM
2 40 41
@<TRIPOS>COMMENT
> <Gold.Version>
2022.2.0

> <Gold.Id.Protein>
3pbl|protein|mol2

> <Gold.Protein.RotatedTorsions>
[ 1303 1298 1297 1294 ] final  -26.19 input  179.99 | X-H torsion
[ 2461 2456 2455 2452 ] final  -25.08 input   30.03 | X-H torsion
[ 2515 2510 2509 2506 ] final  -64.16 input  -89.99 | X-H torsion
[ 3721 3712 3711 3710 ] final   72.15 input -179.91 | X-H torsion
[ 3841 3832 3831 3830 ] final  -13.00 input -179.91 | X-H torsion
[ 3767 3762 3761 3758 ] final -116.92 input  -89.99 | X-H torsion
[ 2472 2467 2466 2463 ] final -155.57 input  -89.97 | X-H torsion

> <Gold.Protein.ActiveResidues>
 VAL82   VAL86   LEU89   PHE106  VAL107  ASP110  VAL111  MET112  CYS114  THR115 
 CYS181  SER182  ILE183  PHE188  VAL189  ILE190  SER192  SER193  SER196  TRP342 
 PHE345  PHE346  HIS349  VAL350  TYR365  THR369  GLY372  TYR373 

> <Gold.Protein.RotatedAtoms>
    3.3317   -9.4917    3.8618 H   0  0  0  0  0  0  0  0  0  0  0  0  # atno 1303 bound_to 1298
    0.6821   -8.1754    7.0924 H   0  0  0  0  0  0  0  0  0  0  0  0  # atno 2461 bound_to 2456
   -5.0586   -5.4523    9.2875 H   0  0  0  0  0  0  0  0  0  0  0  0  # atno 2472 bound_to 2467
    2.8294   -8.5654    4.4026 H   0  0  0  0  0  0  0  0  0  0  0  0  # atno 2515 bound_to 2510
   -2.6617  -17.8058   13.2487 H   0  0  0  0  0  0  0  0  0  0  0  0  # atno 3721 bound_to 3712
   -4.8909  -21.9547   11.4948 H   0  0  0  0  0  0  0  0  0  0  0  0  # atno 3767 bound_to 3762
    1.6410  -20.3342    9.4812 H   0  0  0  0  0  0  0  0  0  0  0  0  # atno 3841 bound_to 3832
    4.5675   -8.5436    4.3519 LP  0  0  0  0  0  0  0  0  0  0  0  0  # atno 4297 bound_to 1298
    4.4633  -10.0860    4.8781 LP  0  0  0  0  0  0  0  0  0  0  0  0  # atno 4298 bound_to 1298
    0.9032   -9.2810    8.2740 LP  0  0  0  0  0  0  0  0  0  0  0  0  # atno 4299 bound_to 2456
    2.1523   -8.3516    7.7815 LP  0  0  0  0  0  0  0  0  0  0  0  0  # atno 4300 bound_to 2456
    2.2956   -8.9919    5.8855 LP  0  0  0  0  0  0  0  0  0  0  0  0  # atno 4301 bound_to 2510
    2.1714   -7.4417    5.3875 LP  0  0  0  0  0  0  0  0  0  0  0  0  # atno 4302 bound_to 2510
   -2.8876  -17.5936   14.8241 LP  0  0  0  0  0  0  0  0  0  0  0  0  # atno 4306 bound_to 3712
   -3.5671  -16.5755   13.7431 LP  0  0  0  0  0  0  0  0  0  0  0  0  # atno 4307 bound_to 3712
    2.3413  -19.7114    8.1782 LP  0  0  0  0  0  0  0  0  0  0  0  0  # atno 4314 bound_to 3832
    2.9924  -21.0048    8.9332 LP  0  0  0  0  0  0  0  0  0  0  0  0  # atno 4315 bound_to 3832
   -3.9417  -23.1653   10.9467 LP  0  0  0  0  0  0  0  0  0  0  0  0  # atno 4318 bound_to 3762
   -5.2948  -22.7549   10.1298 LP  0  0  0  0  0  0  0  0  0  0  0  0  # atno 4319 bound_to 3762
   -5.0236   -4.8947    7.7532 LP  0  0  0  0  0  0  0  0  0  0  0  0  # atno 4320 bound_to 2467
   -3.6348   -5.0466    8.5986 LP  0  0  0  0  0  0  0  0  0  0  0  0  # atno 4321 bound_to 2467

> <Gold.Score>
     Score     S(PLP)   S(hbond)     S(cho)   S(metal)  DE(clash)   DE(tors)     intcor
     45.43     -40.00       2.00       0.00       0.00       0.00       0.71       0.84

> <Gold.PLP.Fitness>
45.4329

> <Gold.PLP.PLP>
-40.0040

> <Gold.PLP.part.hbond>
-2.4629

> <Gold.PLP.part.metal>
0.0000

> <Gold.PLP.part.buried>
-6.1071

> <Gold.PLP.part.nonpolar>
-32.5206

> <Gold.PLP.part.repulsive>
0.3311

> <Gold.PLP.ligand.clash>
0.0000

> <Gold.PLP.ligand.torsion>
0.7072

> <Gold.PLP.Chemscore.Hbond>
2.0000

> <Gold.PLP.Chemscore.CHOScore>
0.0000

> <Gold.PLP.Chemscore.Metal>
0.0000

> <Gold.Chemscore.Hbonds>
donor molecule, donor type, donor heavy atom, donor atom, acceptor molecule, acceptor atom, score
      P1  H  2305  2313       L1    20  1.00
      P1  H  3832  3841       L1    17  1.00

> <Gold.PLP.Chemscore.Internal.Correction>
0.8433

