#       Name:                EN300-26870132_i002
#       Creating user name   fsindt
#       Creation time:       Wed Mar  1 04:38:51 2023


#       File generated by GOLD software.
#

@<TRIPOS>MOLECULE
EN300-26870132_i002|acide_1|mol2|6716|dock10
    41    41     1
SMALL
USER_CHARGES


@<TRIPOS>ATOM
      1 C1           0.2102 -21.7452  11.4726 C.3            1 <1>                0.0000
      2 C2          -0.1659 -20.4665  12.2236 C.3            1 <1>                0.0000
      3 C3          -1.6288 -20.5454  12.6645 C.3            1 <1>                0.0000
      4 C4           0.7303 -20.3158  13.4546 C.3            1 <1>                0.0000
      5 O5           0.0154 -19.3209  11.3500 O.3            1 <1>                0.0000
      6 C6          -0.1833 -18.1034  11.8894 C.2            1 <1>                0.0000
      7 O7          -0.6822 -18.0018  12.9927 O.2            1 <1>                0.0000
      8 N8           0.1711 -16.9974  11.2056 N.am           1 <1>                0.0000
      9 C9          -0.0451 -15.6727  11.7925 C.3            1 <1>                0.0000
     10 C10          0.5280 -14.6025  10.8612 C.3            1 <1>                0.0000
     11 C11         -0.5315 -13.5287  10.6053 C.3            1 <1>                0.0000
     12 C12         -0.7088 -12.6788  11.8659 C.3            1 <1>                0.0000
     13 C13         -1.5583 -11.4532  11.5085 C.3            1 <1>                0.0000
     14 C14         -0.7528 -10.5566  10.5674 C.3            1 <1>                0.0000
     15 N15         -0.2216 -11.3326   9.4538 N.am           1 <1>                0.0000
     16 C16         -0.0951 -12.6602   9.4605 C.2            1 <1>                0.0000
     17 O17          0.3993 -13.1946   8.4906 O.2            1 <1>                0.0000
     18 C18          0.6455 -15.5969  13.1298 C.2            1 <1>                0.0000
     19 O19          1.8422 -15.8148  13.2111 O.co2          1 <1>                0.0000
     20 O20          0.0074 -15.3177  14.1305 O.co2          1 <1>               -1.0000
     21 H21         -0.4281 -21.8526  10.5955 H              1 <1>                0.0000
     22 H22          1.2525 -21.6890  11.1585 H              1 <1>                0.0000
     23 H23          0.0742 -22.6052  12.1284 H              1 <1>                0.0000
     24 H24         -1.7648 -21.4054  13.3203 H              1 <1>                0.0000
     25 H25         -1.8967 -19.6344  13.1996 H              1 <1>                0.0000
     26 H26         -2.2672 -20.6528  11.7875 H              1 <1>                0.0000
     27 H27          1.7725 -20.2595  13.1406 H              1 <1>                0.0000
     28 H28          0.4624 -19.4047  13.9897 H              1 <1>                0.0000
     29 H29          0.5943 -21.1758  14.1105 H              1 <1>                0.0000
     30 H30         -1.1138 -15.5042  11.9254 H              1 <1>                0.0000
     31 H31          1.4023 -14.1467  11.3260 H              1 <1>                0.0000
     32 H32          0.8166 -15.0608   9.9153 H              1 <1>                0.0000
     33 H33         -1.4785 -14.0069  10.3548 H              1 <1>                0.0000
     34 H34         -1.2136 -13.2636  12.6348 H              1 <1>                0.0000
     35 H35          0.2661 -12.3557  12.2308 H              1 <1>                0.0000
     36 H36         -2.4741 -11.7749  11.0125 H              1 <1>                0.0000
     37 H37         -1.8055 -10.9022  12.4159 H              1 <1>                0.0000
     38 H38         -1.3981  -9.7676  10.1812 H              1 <1>                0.0000
     39 H39          0.0726 -10.1054  11.1182 H              1 <1>                0.0000
     40 H40          0.5693 -17.0786  10.3249 H              1 <1>                0.0000
     41 H41          0.0573 -10.8535   8.6579 H              1 <1>                0.0000
@<TRIPOS>BOND
    1    1    2 1     
    2    1   21 1     
    3    1   22 1     
    4    1   23 1     
    5    2    3 1     
    6    2    4 1     
    7    2    5 1     
    8    3   24 1     
    9    3   25 1     
   10    3   26 1     
   11    4   27 1     
   12    4   28 1     
   13    4   29 1     
   14    5    6 1     
   15    6    7 2     
   16    6    8 am    
   17    8    9 1     
   18    8   40 1     
   19    9   10 1     
   20    9   18 1     
   21    9   30 1     
   22   10   11 1     
   23   10   31 1     
   24   10   32 1     
   25   11   12 1     
   26   11   16 1     
   27   11   33 1     
   28   12   13 1     
   29   12   34 1     
   30   12   35 1     
   31   13   14 1     
   32   13   36 1     
   33   13   37 1     
   34   14   15 1     
   35   14   38 1     
   36   14   39 1     
   37   15   16 am    
   38   15   41 1     
   39   16   17 2     
   40   18   19 ar    
   41   18   20 ar    
@<TRIPOS>SUBSTRUCTURE
      1 ****           1
@<TRIPOS>SET
DONOR_HYDROGENS      STATIC     ATOMS    <user>   **** ""
2 40 41
ATOM$RED        STATIC     ATOMS    COLORGROUP SYSTEM
2 40 41
@<TRIPOS>COMMENT
> <Gold.Version>
2022.2.0

> <Gold.Id.Protein>
3pbl|protein|mol2

> <Gold.Protein.RotatedTorsions>
[ 1303 1298 1297 1294 ] final  -33.49 input  179.99 | X-H torsion
[ 2461 2456 2455 2452 ] final   -7.44 input   30.03 | X-H torsion
[ 2515 2510 2509 2506 ] final  -58.51 input  -89.99 | X-H torsion
[ 3721 3712 3711 3710 ] final   45.53 input -179.91 | X-H torsion
[ 3841 3832 3831 3830 ] final  137.59 input -179.91 | X-H torsion
[ 3767 3762 3761 3758 ] final  -62.30 input  -89.99 | X-H torsion
[ 2472 2467 2466 2463 ] final   74.82 input  -89.97 | X-H torsion

> <Gold.Protein.ActiveResidues>
 VAL82   VAL86   LEU89   PHE106  VAL107  ASP110  VAL111  MET112  CYS114  THR115 
 CYS181  SER182  ILE183  PHE188  VAL189  ILE190  SER192  SER193  SER196  TRP342 
 PHE345  PHE346  HIS349  VAL350  TYR365  THR369  GLY372  TYR373 

> <Gold.Protein.RotatedAtoms>
    3.3458   -9.3776    3.8272 H   0  0  0  0  0  0  0  0  0  0  0  0  # atno 1303 bound_to 1298
    0.9272   -8.0329    7.0356 H   0  0  0  0  0  0  0  0  0  0  0  0  # atno 2461 bound_to 2456
   -4.8800   -4.8596    7.6976 H   0  0  0  0  0  0  0  0  0  0  0  0  # atno 2472 bound_to 2467
    2.8205   -8.4763    4.3783 H   0  0  0  0  0  0  0  0  0  0  0  0  # atno 2515 bound_to 2510
   -2.5259  -17.9923   13.5741 H   0  0  0  0  0  0  0  0  0  0  0  0  # atno 3721 bound_to 3712
   -5.4513  -22.0435   10.8416 H   0  0  0  0  0  0  0  0  0  0  0  0  # atno 3767 bound_to 3762
    3.1320  -20.5478    8.7493 H   0  0  0  0  0  0  0  0  0  0  0  0  # atno 3841 bound_to 3832
    4.6469   -8.5939    4.4267 LP  0  0  0  0  0  0  0  0  0  0  0  0  # atno 4297 bound_to 1298
    4.3698  -10.1498    4.8379 LP  0  0  0  0  0  0  0  0  0  0  0  0  # atno 4298 bound_to 1298
    0.6622   -9.2184    8.1272 LP  0  0  0  0  0  0  0  0  0  0  0  0  # atno 4299 bound_to 2456
    2.1483   -8.5568    7.9851 LP  0  0  0  0  0  0  0  0  0  0  0  0  # atno 4300 bound_to 2456
    2.3337   -9.0526    5.8263 LP  0  0  0  0  0  0  0  0  0  0  0  0  # atno 4301 bound_to 2510
    2.1424   -7.4702    5.4710 LP  0  0  0  0  0  0  0  0  0  0  0  0  # atno 4302 bound_to 2510
   -3.1045  -17.2108   14.8517 LP  0  0  0  0  0  0  0  0  0  0  0  0  # atno 4306 bound_to 3712
   -3.5070  -16.7431   13.3398 LP  0  0  0  0  0  0  0  0  0  0  0  0  # atno 4307 bound_to 3712
    1.7621  -20.8286    9.5371 LP  0  0  0  0  0  0  0  0  0  0  0  0  # atno 4314 bound_to 3832
    1.8493  -19.6409    8.4198 LP  0  0  0  0  0  0  0  0  0  0  0  0  # atno 4315 bound_to 3832
   -4.0750  -22.5615   11.5517 LP  0  0  0  0  0  0  0  0  0  0  0  0  # atno 4318 bound_to 3762
   -4.6014  -23.2699   10.1778 LP  0  0  0  0  0  0  0  0  0  0  0  0  # atno 4319 bound_to 3762
   -3.6513   -5.1014    8.7456 LP  0  0  0  0  0  0  0  0  0  0  0  0  # atno 4320 bound_to 2467
   -5.1857   -5.4325    9.1958 LP  0  0  0  0  0  0  0  0  0  0  0  0  # atno 4321 bound_to 2467

> <Gold.Score>
     Score     S(PLP)   S(hbond)     S(cho)   S(metal)  DE(clash)   DE(tors)     intcor
     47.67     -42.36       2.32       0.00       0.00       0.59       0.95       0.84

> <Gold.PLP.Fitness>
47.6684

> <Gold.PLP.PLP>
-42.3553

> <Gold.PLP.part.hbond>
-3.0000

> <Gold.PLP.part.metal>
0.0000

> <Gold.PLP.part.buried>
-7.4976

> <Gold.PLP.part.nonpolar>
-33.6720

> <Gold.PLP.part.repulsive>
0.2354

> <Gold.PLP.ligand.clash>
0.5863

> <Gold.PLP.ligand.torsion>
0.9452

> <Gold.PLP.Chemscore.Hbond>
2.3155

> <Gold.PLP.Chemscore.CHOScore>
0.0000

> <Gold.PLP.Chemscore.Metal>
0.0000

> <Gold.Chemscore.Hbonds>
donor molecule, donor type, donor heavy atom, donor atom, acceptor molecule, acceptor atom, score
      L1  H     8    40       P1  1227  0.32
      P1  H  2305  2313       L1    20  0.99
      P1  H  3712  3721       L1     7  1.00

> <Gold.PLP.Chemscore.Internal.Correction>
0.8433

