#       Name:                EN300-26870132_i002
#       Creating user name   fsindt
#       Creation time:       Wed Mar  1 04:38:44 2023


#       File generated by GOLD software.
#

@<TRIPOS>MOLECULE
EN300-26870132_i002|acide_1|mol2|6716|dock5
    41    41     1
SMALL
USER_CHARGES


@<TRIPOS>ATOM
      1 C1          -0.9974 -13.9990   7.7454 C.3            1 <1>                0.0000
      2 C2           0.4235 -13.6666   8.2052 C.3            1 <1>                0.0000
      3 C3           1.4072 -14.6563   7.5779 C.3            1 <1>                0.0000
      4 C4           0.7816 -12.2449   7.7676 C.3            1 <1>                0.0000
      5 O5           0.4985 -13.7608   9.6523 O.3            1 <1>                0.0000
      6 C6           0.4113 -14.9921  10.1899 C.2            1 <1>                0.0000
      7 O7          -0.0802 -15.9009   9.5503 O.2            1 <1>                0.0000
      8 N8           0.8690 -15.2166  11.4375 N.am           1 <1>                0.0000
      9 C9           0.7741 -16.5563  12.0225 C.3            1 <1>                0.0000
     10 C10         -0.6980 -16.9242  12.2185 C.3            1 <1>                0.0000
     11 C11         -0.8396 -18.4466  12.2783 C.3            1 <1>                0.0000
     12 C12         -0.0181 -19.0782  11.1517 C.3            1 <1>                0.0000
     13 C13          0.0516 -20.5910  11.3923 C.3            1 <1>                0.0000
     14 C14          0.8851 -20.8491  12.6481 C.3            1 <1>                0.0000
     15 N15          0.4060 -20.0313  13.7553 N.am           1 <1>                0.0000
     16 C16         -0.3482 -18.9413  13.6083 C.2            1 <1>                0.0000
     17 O17         -0.6532 -18.3160  14.6017 O.2            1 <1>                0.0000
     18 C18          1.4778 -16.5736  13.3550 C.2            1 <1>                0.0000
     19 O19          1.0618 -15.8878  14.2731 O.co2          1 <1>                0.0000
     20 O20          2.4634 -17.2734  13.5149 O.co2          1 <1>               -1.0000
     21 H21         -1.2526 -15.0118   8.0573 H              1 <1>                0.0000
     22 H22         -1.6983 -13.2939   8.1924 H              1 <1>                0.0000
     23 H23         -1.0538 -13.9283   6.6592 H              1 <1>                0.0000
     24 H24          1.3509 -14.5856   6.4916 H              1 <1>                0.0000
     25 H25          2.4195 -14.4194   7.9055 H              1 <1>                0.0000
     26 H26          1.1521 -15.6691   7.8898 H              1 <1>                0.0000
     27 H27          0.0808 -11.5397   8.2144 H              1 <1>                0.0000
     28 H28          1.7939 -12.0080   8.0951 H              1 <1>                0.0000
     29 H29          0.7253 -12.1741   6.6812 H              1 <1>                0.0000
     30 H30          1.2433 -17.2786  11.3544 H              1 <1>                0.0000
     31 H31         -1.0606 -16.4888  13.1496 H              1 <1>                0.0000
     32 H32         -1.2833 -16.5374  11.3843 H              1 <1>                0.0000
     33 H33         -1.8884 -18.7177  12.1575 H              1 <1>                0.0000
     34 H34         -0.4975 -18.8808  10.1928 H              1 <1>                0.0000
     35 H35          0.9883 -18.6597  11.1523 H              1 <1>                0.0000
     36 H36         -0.9546 -20.9857  11.5335 H              1 <1>                0.0000
     37 H37          0.5204 -21.0763  10.5362 H              1 <1>                0.0000
     38 H38          0.8108 -21.9022  12.9196 H              1 <1>                0.0000
     39 H39          1.9279 -20.6053  12.4449 H              1 <1>                0.0000
     40 H40          1.2612 -14.4911  11.9480 H              1 <1>                0.0000
     41 H41          0.6511 -20.2964  14.6556 H              1 <1>                0.0000
@<TRIPOS>BOND
    1    1    2 1     
    2    1   21 1     
    3    1   22 1     
    4    1   23 1     
    5    2    3 1     
    6    2    4 1     
    7    2    5 1     
    8    3   24 1     
    9    3   25 1     
   10    3   26 1     
   11    4   27 1     
   12    4   28 1     
   13    4   29 1     
   14    5    6 1     
   15    6    7 2     
   16    6    8 am    
   17    8    9 1     
   18    8   40 1     
   19    9   10 1     
   20    9   18 1     
   21    9   30 1     
   22   10   11 1     
   23   10   31 1     
   24   10   32 1     
   25   11   12 1     
   26   11   16 1     
   27   11   33 1     
   28   12   13 1     
   29   12   34 1     
   30   12   35 1     
   31   13   14 1     
   32   13   36 1     
   33   13   37 1     
   34   14   15 1     
   35   14   38 1     
   36   14   39 1     
   37   15   16 am    
   38   15   41 1     
   39   16   17 2     
   40   18   19 ar    
   41   18   20 ar    
@<TRIPOS>SUBSTRUCTURE
      1 ****           1
@<TRIPOS>SET
DONOR_HYDROGENS      STATIC     ATOMS    <user>   **** ""
2 40 41
ATOM$RED        STATIC     ATOMS    COLORGROUP SYSTEM
2 40 41
@<TRIPOS>COMMENT
> <Gold.Version>
2022.2.0

> <Gold.Id.Protein>
3pbl|protein|mol2

> <Gold.Protein.RotatedTorsions>
[ 1303 1298 1297 1294 ] final  154.27 input  179.99 | X-H torsion
[ 2461 2456 2455 2452 ] final   29.19 input   30.03 | X-H torsion
[ 2515 2510 2509 2506 ] final -166.53 input  -89.99 | X-H torsion
[ 3721 3712 3711 3710 ] final   -5.68 input -179.91 | X-H torsion
[ 3841 3832 3831 3830 ] final  -11.29 input -179.91 | X-H torsion
[ 3767 3762 3761 3758 ] final  168.32 input  -89.99 | X-H torsion
[ 2472 2467 2466 2463 ] final   36.18 input  -89.97 | X-H torsion

> <Gold.Protein.ActiveResidues>
 VAL82   VAL86   LEU89   PHE106  VAL107  ASP110  VAL111  MET112  CYS114  THR115 
 CYS181  SER182  ILE183  PHE188  VAL189  ILE190  SER192  SER193  SER196  TRP342 
 PHE345  PHE346  HIS349  VAL350  TYR365  THR369  GLY372  TYR373 

> <Gold.Protein.RotatedAtoms>
    4.9098   -9.2485    4.8640 H   0  0  0  0  0  0  0  0  0  0  0  0  # atno 1303 bound_to 1298
    1.5022   -7.9174    7.1210 H   0  0  0  0  0  0  0  0  0  0  0  0  # atno 2461 bound_to 2456
   -4.2594   -4.7998    7.7211 H   0  0  0  0  0  0  0  0  0  0  0  0  # atno 2472 bound_to 2467
    2.4172   -9.1571    5.6821 H   0  0  0  0  0  0  0  0  0  0  0  0  # atno 2515 bound_to 2510
   -2.5009  -17.9204   14.3189 H   0  0  0  0  0  0  0  0  0  0  0  0  # atno 3721 bound_to 3712
   -4.0028  -22.6773   11.4796 H   0  0  0  0  0  0  0  0  0  0  0  0  # atno 3767 bound_to 3762
    1.6516  -20.3546    9.4929 H   0  0  0  0  0  0  0  0  0  0  0  0  # atno 3841 bound_to 3832
    3.6794  -10.2068    4.3802 LP  0  0  0  0  0  0  0  0  0  0  0  0  # atno 4297 bound_to 1298
    3.7727   -8.6661    3.8472 LP  0  0  0  0  0  0  0  0  0  0  0  0  # atno 4298 bound_to 1298
    0.3568   -8.9164    7.7190 LP  0  0  0  0  0  0  0  0  0  0  0  0  # atno 4299 bound_to 2456
    1.8788   -8.9741    8.3080 LP  0  0  0  0  0  0  0  0  0  0  0  0  # atno 4300 bound_to 2456
    2.0904   -7.5580    5.6391 LP  0  0  0  0  0  0  0  0  0  0  0  0  # atno 4301 bound_to 2510
    2.7891   -8.2836    4.3538 LP  0  0  0  0  0  0  0  0  0  0  0  0  # atno 4302 bound_to 2510
   -3.4722  -16.6431   14.3748 LP  0  0  0  0  0  0  0  0  0  0  0  0  # atno 4306 bound_to 3712
   -3.1682  -17.3938   12.9568 LP  0  0  0  0  0  0  0  0  0  0  0  0  # atno 4307 bound_to 3712
    2.3155  -19.7018    8.1856 LP  0  0  0  0  0  0  0  0  0  0  0  0  # atno 4314 bound_to 3832
    3.0059  -20.9909    8.9123 LP  0  0  0  0  0  0  0  0  0  0  0  0  # atno 4315 bound_to 3832
   -4.7323  -23.2126   10.1201 LP  0  0  0  0  0  0  0  0  0  0  0  0  # atno 4318 bound_to 3762
   -5.3920  -21.9852   10.9716 LP  0  0  0  0  0  0  0  0  0  0  0  0  # atno 4319 bound_to 3762
   -3.9631   -5.3146    9.2421 LP  0  0  0  0  0  0  0  0  0  0  0  0  # atno 4320 bound_to 2467
   -5.4944   -5.2790    8.6758 LP  0  0  0  0  0  0  0  0  0  0  0  0  # atno 4321 bound_to 2467

> <Gold.Score>
     Score     S(PLP)   S(hbond)     S(cho)   S(metal)  DE(clash)   DE(tors)     intcor
     46.73     -41.24       2.00       0.00       0.00       0.00       0.76       1.01

> <Gold.PLP.Fitness>
46.7329

> <Gold.PLP.PLP>
-41.2411

> <Gold.PLP.part.hbond>
-2.0000

> <Gold.PLP.part.metal>
0.0000

> <Gold.PLP.part.buried>
-2.1694

> <Gold.PLP.part.nonpolar>
-37.0123

> <Gold.PLP.part.repulsive>
0.2133

> <Gold.PLP.ligand.clash>
0.0000

> <Gold.PLP.ligand.torsion>
0.7598

> <Gold.PLP.Chemscore.Hbond>
2.0000

> <Gold.PLP.Chemscore.CHOScore>
0.0000

> <Gold.PLP.Chemscore.Metal>
0.0000

> <Gold.Chemscore.Hbonds>
donor molecule, donor type, donor heavy atom, donor atom, acceptor molecule, acceptor atom, score
      P1  H  2305  2313       L1    19  1.00
      P1  H  3712  3721       L1    17  1.00

> <Gold.PLP.Chemscore.Internal.Correction>
1.0114

