#       Name:                EN300-26870132_i002
#       Creating user name   fsindt
#       Creation time:       Wed Mar  1 04:39:04 2023


#       File generated by GOLD software.
#

@<TRIPOS>MOLECULE
EN300-26870132_i002|acide_1|mol2|6716|dock19
    41    41     1
SMALL
USER_CHARGES


@<TRIPOS>ATOM
      1 C1           1.0250 -20.4747  14.9352 C.3            1 <1>                0.0000
      2 C2           0.7221 -20.9873  13.5258 C.3            1 <1>                0.0000
      3 C3           1.5969 -22.2065  13.2274 C.3            1 <1>                0.0000
      4 C4          -0.7530 -21.3830  13.4331 C.3            1 <1>                0.0000
      5 O5           1.0040 -19.9409  12.5592 O.3            1 <1>                0.0000
      6 C6           0.4109 -18.7488  12.7587 C.2            1 <1>                0.0000
      7 O7          -0.4996 -18.6492  13.5572 O.2            1 <1>                0.0000
      8 N8           0.8271 -17.6659  12.0727 N.am           1 <1>                0.0000
      9 C9           0.1818 -16.3688  12.2896 C.3            1 <1>                0.0000
     10 C10          0.8565 -15.3106  11.4144 C.3            1 <1>                0.0000
     11 C11         -0.2096 -14.5386  10.6343 C.3            1 <1>                0.0000
     12 C12         -0.0940 -13.0465  10.9559 C.3            1 <1>                0.0000
     13 C13         -0.9735 -12.2687   9.9695 C.3            1 <1>                0.0000
     14 C14         -0.3689 -12.3941   8.5705 C.3            1 <1>                0.0000
     15 N15         -0.1058 -13.7918   8.2518 N.am           1 <1>                0.0000
     16 C16         -0.0097 -14.7612   9.1627 C.2            1 <1>                0.0000
     17 O17          0.2535 -15.8822   8.7823 O.2            1 <1>                0.0000
     18 C18          0.3122 -15.9790  13.7395 C.2            1 <1>                0.0000
     19 O19          1.4143 -15.7739  14.2188 O.co2          1 <1>                0.0000
     20 O20         -0.6843 -15.8689  14.4333 O.co2          1 <1>               -1.0000
     21 H21          2.0759 -20.1927  15.0011 H              1 <1>                0.0000
     22 H22          0.4017 -19.6061  15.1477 H              1 <1>                0.0000
     23 H23          0.8134 -21.2602  15.6608 H              1 <1>                0.0000
     24 H24          1.3853 -22.9919  13.9530 H              1 <1>                0.0000
     25 H25          1.3811 -22.5716  12.2233 H              1 <1>                0.0000
     26 H26          2.6478 -21.9244  13.2934 H              1 <1>                0.0000
     27 H27         -1.3763 -20.5145  13.6457 H              1 <1>                0.0000
     28 H28         -0.9688 -21.7482  12.4291 H              1 <1>                0.0000
     29 H29         -0.9646 -22.1685  14.1588 H              1 <1>                0.0000
     30 H30         -0.8735 -16.4393  12.0259 H              1 <1>                0.0000
     31 H31          1.4162 -14.6202  12.0454 H              1 <1>                0.0000
     32 H32          1.5369 -15.7972  10.7156 H              1 <1>                0.0000
     33 H33         -1.1984 -14.8956  10.9222 H              1 <1>                0.0000
     34 H34         -0.4350 -12.8633  11.9749 H              1 <1>                0.0000
     35 H35          0.9433 -12.7281  10.8527 H              1 <1>                0.0000
     36 H36         -1.9810 -12.6846   9.9712 H              1 <1>                0.0000
     37 H37         -1.0084 -11.2187  10.2599 H              1 <1>                0.0000
     38 H38         -1.0647 -11.9828   7.8391 H              1 <1>                0.0000
     39 H39          0.5649 -11.8334   8.5299 H              1 <1>                0.0000
     40 H40          1.5538 -17.7455  11.4352 H              1 <1>                0.0000
     41 H41          0.0065 -14.0320   7.3188 H              1 <1>                0.0000
@<TRIPOS>BOND
    1    1    2 1     
    2    1   21 1     
    3    1   22 1     
    4    1   23 1     
    5    2    3 1     
    6    2    4 1     
    7    2    5 1     
    8    3   24 1     
    9    3   25 1     
   10    3   26 1     
   11    4   27 1     
   12    4   28 1     
   13    4   29 1     
   14    5    6 1     
   15    6    7 2     
   16    6    8 am    
   17    8    9 1     
   18    8   40 1     
   19    9   10 1     
   20    9   18 1     
   21    9   30 1     
   22   10   11 1     
   23   10   31 1     
   24   10   32 1     
   25   11   12 1     
   26   11   16 1     
   27   11   33 1     
   28   12   13 1     
   29   12   34 1     
   30   12   35 1     
   31   13   14 1     
   32   13   36 1     
   33   13   37 1     
   34   14   15 1     
   35   14   38 1     
   36   14   39 1     
   37   15   16 am    
   38   15   41 1     
   39   16   17 2     
   40   18   19 ar    
   41   18   20 ar    
@<TRIPOS>SUBSTRUCTURE
      1 ****           1
@<TRIPOS>SET
DONOR_HYDROGENS      STATIC     ATOMS    <user>   **** ""
2 40 41
ATOM$RED        STATIC     ATOMS    COLORGROUP SYSTEM
2 40 41
@<TRIPOS>COMMENT
> <Gold.Version>
2022.2.0

> <Gold.Id.Protein>
3pbl|protein|mol2

> <Gold.Protein.RotatedTorsions>
[ 1303 1298 1297 1294 ] final -171.52 input  179.99 | X-H torsion
[ 2461 2456 2455 2452 ] final    8.62 input   30.03 | X-H torsion
[ 2515 2510 2509 2506 ] final  -69.13 input  -89.99 | X-H torsion
[ 3721 3712 3711 3710 ] final   36.23 input -179.91 | X-H torsion
[ 3841 3832 3831 3830 ] final -104.25 input -179.91 | X-H torsion
[ 3767 3762 3761 3758 ] final   53.90 input  -89.99 | X-H torsion
[ 2472 2467 2466 2463 ] final   54.33 input  -89.97 | X-H torsion

> <Gold.Protein.ActiveResidues>
 VAL82   VAL86   LEU89   PHE106  VAL107  ASP110  VAL111  MET112  CYS114  THR115 
 CYS181  SER182  ILE183  PHE188  VAL189  ILE190  SER192  SER193  SER196  TRP342 
 PHE345  PHE346  HIS349  VAL350  TYR365  THR369  GLY372  TYR373 

> <Gold.Protein.RotatedAtoms>
    4.8035   -8.7701    4.6045 H   0  0  0  0  0  0  0  0  0  0  0  0  # atno 1303 bound_to 1298
    1.1770   -7.9494    7.0394 H   0  0  0  0  0  0  0  0  0  0  0  0  # atno 2461 bound_to 2456
   -4.5503   -4.8099    7.6603 H   0  0  0  0  0  0  0  0  0  0  0  0  # atno 2472 bound_to 2467
    2.8342   -8.6421    4.4306 H   0  0  0  0  0  0  0  0  0  0  0  0  # atno 2515 bound_to 2510
   -2.4964  -18.0231   13.7079 H   0  0  0  0  0  0  0  0  0  0  0  0  # atno 3721 bound_to 3712
   -4.6538  -23.2483   10.1516 H   0  0  0  0  0  0  0  0  0  0  0  0  # atno 3767 bound_to 3762
    2.0177  -19.5815    8.5741 H   0  0  0  0  0  0  0  0  0  0  0  0  # atno 3841 bound_to 3832
    4.1250  -10.2518    4.7074 LP  0  0  0  0  0  0  0  0  0  0  0  0  # atno 4297 bound_to 1298
    3.4334   -9.0996    3.7796 LP  0  0  0  0  0  0  0  0  0  0  0  0  # atno 4298 bound_to 1298
    0.4900   -9.1107    7.9596 LP  0  0  0  0  0  0  0  0  0  0  0  0  # atno 4299 bound_to 2456
    2.0708   -8.7478    8.1489 LP  0  0  0  0  0  0  0  0  0  0  0  0  # atno 4300 bound_to 2456
    2.2632   -8.9332    5.9323 LP  0  0  0  0  0  0  0  0  0  0  0  0  # atno 4301 bound_to 2510
    2.1991   -7.4237    5.3127 LP  0  0  0  0  0  0  0  0  0  0  0  0  # atno 4302 bound_to 2510
   -3.1818  -17.0818   14.8134 LP  0  0  0  0  0  0  0  0  0  0  0  0  # atno 4306 bound_to 3712
   -3.4637  -16.8366   13.2237 LP  0  0  0  0  0  0  0  0  0  0  0  0  # atno 4307 bound_to 3712
    3.1224  -20.7449    8.6199 LP  0  0  0  0  0  0  0  0  0  0  0  0  # atno 4314 bound_to 3832
    1.7763  -20.8408    9.5394 LP  0  0  0  0  0  0  0  0  0  0  0  0  # atno 4315 bound_to 3832
   -5.4298  -22.0184   10.8945 LP  0  0  0  0  0  0  0  0  0  0  0  0  # atno 4318 bound_to 3762
   -4.0437  -22.6086   11.5247 LP  0  0  0  0  0  0  0  0  0  0  0  0  # atno 4319 bound_to 3762
   -3.7714   -5.2192    9.0359 LP  0  0  0  0  0  0  0  0  0  0  0  0  # atno 4320 bound_to 2467
   -5.3953   -5.3643    8.9428 LP  0  0  0  0  0  0  0  0  0  0  0  0  # atno 4321 bound_to 2467

> <Gold.Score>
     Score     S(PLP)   S(hbond)     S(cho)   S(metal)  DE(clash)   DE(tors)     intcor
     40.41     -34.87       2.75       0.00       0.00       0.10       1.67       0.74

> <Gold.PLP.Fitness>
40.4094

> <Gold.PLP.PLP>
-34.8651

> <Gold.PLP.part.hbond>
-3.6539

> <Gold.PLP.part.metal>
0.0000

> <Gold.PLP.part.buried>
-4.7688

> <Gold.PLP.part.nonpolar>
-28.8079

> <Gold.PLP.part.repulsive>
1.1479

> <Gold.PLP.ligand.clash>
0.1024

> <Gold.PLP.ligand.torsion>
1.6689

> <Gold.PLP.Chemscore.Hbond>
2.7475

> <Gold.PLP.Chemscore.CHOScore>
0.0000

> <Gold.PLP.Chemscore.Metal>
0.0000

> <Gold.Chemscore.Hbonds>
donor molecule, donor type, donor heavy atom, donor atom, acceptor molecule, acceptor atom, score
      L1  H     8    40       P1  1227  0.75
      P1  H  2305  2313       L1    19  1.00
      P1  H  3712  3721       L1     7  1.00

> <Gold.PLP.Chemscore.Internal.Correction>
0.7420

