#       Name:                EN300-26870132_i002
#       Creating user name   fsindt
#       Creation time:       Wed Mar  1 04:38:59 2023


#       File generated by GOLD software.
#

@<TRIPOS>MOLECULE
EN300-26870132_i002|acide_1|mol2|6716|dock16
    41    41     1
SMALL
USER_CHARGES


@<TRIPOS>ATOM
      1 C1          -0.4214 -12.9979   7.7670 C.3            1 <1>                0.0000
      2 C2           0.5667 -13.6178   8.7570 C.3            1 <1>                0.0000
      3 C3           1.3961 -14.6893   8.0466 C.3            1 <1>                0.0000
      4 C4           1.4959 -12.5297   9.2989 C.3            1 <1>                0.0000
      5 O5          -0.1644 -14.2215   9.8568 O.3            1 <1>                0.0000
      6 C6           0.5329 -15.0147  10.6919 C.2            1 <1>                0.0000
      7 O7           1.7387 -14.8927  10.7805 O.2            1 <1>                0.0000
      8 N8          -0.1064 -15.9440  11.4294 N.am           1 <1>                0.0000
      9 C9           0.6523 -16.8071  12.3380 C.3            1 <1>                0.0000
     10 C10          0.1926 -18.2565  12.1676 C.3            1 <1>                0.0000
     11 C11          1.1246 -19.1826  12.9517 C.3            1 <1>                0.0000
     12 C12          0.6337 -19.2925  14.3974 C.3            1 <1>                0.0000
     13 C13          1.4049 -20.4249  15.0862 C.3            1 <1>                0.0000
     14 C14          0.9923 -21.7542  14.4528 C.3            1 <1>                0.0000
     15 N15          1.0947 -21.6809  13.0008 N.am           1 <1>                0.0000
     16 C16          1.1334 -20.5405  12.3104 C.2            1 <1>                0.0000
     17 O17          1.1778 -20.6034  11.1001 O.2            1 <1>                0.0000
     18 C18          0.4165 -16.3694  13.7607 C.2            1 <1>                0.0000
     19 O19          1.3308 -15.8926  14.4112 O.co2          1 <1>                0.0000
     20 O20         -0.6884 -16.4921  14.2611 O.co2          1 <1>               -1.0000
     21 H21         -1.0835 -13.7731   7.3810 H              1 <1>                0.0000
     22 H22         -1.0123 -12.2345   8.2732 H              1 <1>                0.0000
     23 H23          0.1274 -12.5446   6.9414 H              1 <1>                0.0000
     24 H24          1.9449 -14.2361   7.2210 H              1 <1>                0.0000
     25 H25          2.1001 -15.1309   8.7519 H              1 <1>                0.0000
     26 H26          0.7340 -15.4645   7.6606 H              1 <1>                0.0000
     27 H27          0.9052 -11.7662   9.8051 H              1 <1>                0.0000
     28 H28          2.2000 -12.9712  10.0042 H              1 <1>                0.0000
     29 H29          2.0448 -12.0764   8.4733 H              1 <1>                0.0000
     30 H30          1.7149 -16.7334  12.1066 H              1 <1>                0.0000
     31 H31         -0.8250 -18.3616  12.5440 H              1 <1>                0.0000
     32 H32          0.2189 -18.5241  11.1113 H              1 <1>                0.0000
     33 H33          2.1344 -18.7725  12.9424 H              1 <1>                0.0000
     34 H34          0.8167 -18.3533  14.9195 H              1 <1>                0.0000
     35 H35         -0.4330 -19.5163  14.4068 H              1 <1>                0.0000
     36 H36          2.4758 -20.2725  14.9520 H              1 <1>                0.0000
     37 H37          1.1653 -20.4366  16.1495 H              1 <1>                0.0000
     38 H38          1.6448 -22.5463  14.8204 H              1 <1>                0.0000
     39 H39         -0.0369 -21.9816  14.7304 H              1 <1>                0.0000
     40 H40         -1.0688 -16.0415  11.3586 H              1 <1>                0.0000
     41 H41          1.1373 -22.5138  12.5054 H              1 <1>                0.0000
@<TRIPOS>BOND
    1    1    2 1     
    2    1   21 1     
    3    1   22 1     
    4    1   23 1     
    5    2    3 1     
    6    2    4 1     
    7    2    5 1     
    8    3   24 1     
    9    3   25 1     
   10    3   26 1     
   11    4   27 1     
   12    4   28 1     
   13    4   29 1     
   14    5    6 1     
   15    6    7 2     
   16    6    8 am    
   17    8    9 1     
   18    8   40 1     
   19    9   10 1     
   20    9   18 1     
   21    9   30 1     
   22   10   11 1     
   23   10   31 1     
   24   10   32 1     
   25   11   12 1     
   26   11   16 1     
   27   11   33 1     
   28   12   13 1     
   29   12   34 1     
   30   12   35 1     
   31   13   14 1     
   32   13   36 1     
   33   13   37 1     
   34   14   15 1     
   35   14   38 1     
   36   14   39 1     
   37   15   16 am    
   38   15   41 1     
   39   16   17 2     
   40   18   19 ar    
   41   18   20 ar    
@<TRIPOS>SUBSTRUCTURE
      1 ****           1
@<TRIPOS>SET
DONOR_HYDROGENS      STATIC     ATOMS    <user>   **** ""
2 40 41
ATOM$RED        STATIC     ATOMS    COLORGROUP SYSTEM
2 40 41
@<TRIPOS>COMMENT
> <Gold.Version>
2022.2.0

> <Gold.Id.Protein>
3pbl|protein|mol2

> <Gold.Protein.RotatedTorsions>
[ 1303 1298 1297 1294 ] final   67.09 input  179.99 | X-H torsion
[ 2461 2456 2455 2452 ] final  -73.01 input   30.03 | X-H torsion
[ 2515 2510 2509 2506 ] final -132.74 input  -89.99 | X-H torsion
[ 3721 3712 3711 3710 ] final  -30.59 input -179.91 | X-H torsion
[ 3841 3832 3831 3830 ] final  -12.13 input -179.91 | X-H torsion
[ 3767 3762 3761 3758 ] final  104.88 input  -89.99 | X-H torsion
[ 2472 2467 2466 2463 ] final   85.53 input  -89.97 | X-H torsion

> <Gold.Protein.ActiveResidues>
 VAL82   VAL86   LEU89   PHE106  VAL107  ASP110  VAL111  MET112  CYS114  THR115 
 CYS181  SER182  ILE183  PHE188  VAL189  ILE190  SER192  SER193  SER196  TRP342 
 PHE345  PHE346  HIS349  VAL350  TYR365  THR369  GLY372  TYR373 

> <Gold.Protein.RotatedAtoms>
    4.1056  -10.2558    4.6960 H   0  0  0  0  0  0  0  0  0  0  0  0  # atno 1303 bound_to 1298
    0.3326   -8.7149    7.5093 H   0  0  0  0  0  0  0  0  0  0  0  0  # atno 2461 bound_to 2456
   -5.0391   -4.8999    7.7606 H   0  0  0  0  0  0  0  0  0  0  0  0  # atno 2472 bound_to 2467
    2.6441   -9.2508    5.1923 H   0  0  0  0  0  0  0  0  0  0  0  0  # atno 2515 bound_to 2510
   -2.6064  -17.6933   14.5962 H   0  0  0  0  0  0  0  0  0  0  0  0  # atno 3721 bound_to 3712
   -4.0524  -23.2821   10.6955 H   0  0  0  0  0  0  0  0  0  0  0  0  # atno 3767 bound_to 3762
    1.6463  -20.3446    9.4872 H   0  0  0  0  0  0  0  0  0  0  0  0  # atno 3841 bound_to 3832
    3.4432   -9.0788    3.7783 LP  0  0  0  0  0  0  0  0  0  0  0  0  # atno 4297 bound_to 1298
    4.8134   -8.7864    4.6171 LP  0  0  0  0  0  0  0  0  0  0  0  0  # atno 4298 bound_to 1298
    1.6463   -9.1326    8.3852 LP  0  0  0  0  0  0  0  0  0  0  0  0  # atno 4299 bound_to 2456
    1.7585   -7.9607    7.2536 LP  0  0  0  0  0  0  0  0  0  0  0  0  # atno 4300 bound_to 2456
    2.0287   -7.9696    5.9958 LP  0  0  0  0  0  0  0  0  0  0  0  0  # atno 4301 bound_to 2510
    2.6239   -7.7783    4.4872 LP  0  0  0  0  0  0  0  0  0  0  0  0  # atno 4302 bound_to 2510
   -3.5573  -16.5557   13.9803 LP  0  0  0  0  0  0  0  0  0  0  0  0  # atno 4306 bound_to 3712
   -2.9612  -17.7434   13.0312 LP  0  0  0  0  0  0  0  0  0  0  0  0  # atno 4307 bound_to 3712
    2.3282  -19.7064    8.1819 LP  0  0  0  0  0  0  0  0  0  0  0  0  # atno 4314 bound_to 3832
    2.9993  -20.9978    8.9226 LP  0  0  0  0  0  0  0  0  0  0  0  0  # atno 4315 bound_to 3832
   -5.4367  -22.5303   10.2650 LP  0  0  0  0  0  0  0  0  0  0  0  0  # atno 4318 bound_to 3762
   -4.6380  -22.0629   11.6105 LP  0  0  0  0  0  0  0  0  0  0  0  0  # atno 4319 bound_to 3762
   -3.6346   -5.0404    8.5815 LP  0  0  0  0  0  0  0  0  0  0  0  0  # atno 4320 bound_to 2467
   -5.0433   -5.4532    9.2969 LP  0  0  0  0  0  0  0  0  0  0  0  0  # atno 4321 bound_to 2467

> <Gold.Score>
     Score     S(PLP)   S(hbond)     S(cho)   S(metal)  DE(clash)   DE(tors)     intcor
     43.85     -38.69       2.16       0.00       0.00       0.01       1.03       0.74

> <Gold.PLP.Fitness>
43.8549

> <Gold.PLP.PLP>
-38.6924

> <Gold.PLP.part.hbond>
-3.0000

> <Gold.PLP.part.metal>
0.0000

> <Gold.PLP.part.buried>
-6.2213

> <Gold.PLP.part.nonpolar>
-30.7792

> <Gold.PLP.part.repulsive>
1.0676

> <Gold.PLP.ligand.clash>
0.0149

> <Gold.PLP.ligand.torsion>
1.0269

> <Gold.PLP.Chemscore.Hbond>
2.1630

> <Gold.PLP.Chemscore.CHOScore>
0.0000

> <Gold.PLP.Chemscore.Metal>
0.0000

> <Gold.Chemscore.Hbonds>
donor molecule, donor type, donor heavy atom, donor atom, acceptor molecule, acceptor atom, score
      P1  H  2305  2313       L1    19  1.00
      P1  H  3712  3721       L1    20  0.16
      P1  H  3832  3841       L1    17  1.00

> <Gold.PLP.Chemscore.Internal.Correction>
0.7420

