#       Name:                EN300-26870132_i002
#       Creating user name   fsindt
#       Creation time:       Wed Mar  1 04:39:02 2023


#       File generated by GOLD software.
#

@<TRIPOS>MOLECULE
EN300-26870132_i002|acide_1|mol2|6716|dock18
    41    41     1
SMALL
USER_CHARGES


@<TRIPOS>ATOM
      1 C1          -0.5429 -17.6827  13.5828 C.3            1 <1>                0.0000
      2 C2           0.3779 -16.6322  12.9587 C.3            1 <1>                0.0000
      3 C3           0.1980 -15.2989  13.6871 C.3            1 <1>                0.0000
      4 C4           1.8324 -17.0898  13.0843 C.3            1 <1>                0.0000
      5 O5           0.0422 -16.4666  11.5557 O.3            1 <1>                0.0000
      6 C6           0.7743 -15.5822  10.8524 C.2            1 <1>                0.0000
      7 O7           1.6792 -14.9770  11.3923 O.2            1 <1>                0.0000
      8 N8           0.5036 -15.3682   9.5496 N.am           1 <1>                0.0000
      9 C9           1.3002 -14.4060   8.7843 C.3            1 <1>                0.0000
     10 C10          1.1374 -13.0113   9.3921 C.3            1 <1>                0.0000
     11 C11         -0.3405 -12.6156   9.3722 C.3            1 <1>                0.0000
     12 C12         -0.8870 -12.6191  10.8020 C.3            1 <1>                0.0000
     13 C13         -2.2721 -11.9613  10.7929 C.3            1 <1>                0.0000
     14 C14         -2.1072 -10.4772  10.4630 C.3            1 <1>                0.0000
     15 N15         -1.2941 -10.3083   9.2652 N.am           1 <1>                0.0000
     16 C16         -0.4819 -11.2453   8.7744 C.2            1 <1>                0.0000
     17 O17          0.1781 -10.9762   7.7931 O.2            1 <1>                0.0000
     18 C18          0.8281 -14.3884   7.3533 C.2            1 <1>                0.0000
     19 O19          0.8025 -15.4219   6.7071 O.co2          1 <1>                0.0000
     20 O20          0.4717 -13.3407   6.8417 O.co2          1 <1>               -1.0000
     21 H21         -1.5792 -17.3568  13.4932 H              1 <1>                0.0000
     22 H22         -0.4147 -18.6327  13.0638 H              1 <1>                0.0000
     23 H23         -0.2909 -17.8071  14.6360 H              1 <1>                0.0000
     24 H24          0.4499 -15.4233  14.7403 H              1 <1>                0.0000
     25 H25          0.8540 -14.5505  13.2424 H              1 <1>                0.0000
     26 H26         -0.8383 -14.9729  13.5975 H              1 <1>                0.0000
     27 H27          1.9607 -18.0398  12.5654 H              1 <1>                0.0000
     28 H28          2.4885 -16.3415  12.6397 H              1 <1>                0.0000
     29 H29          2.0845 -17.2142  14.1376 H              1 <1>                0.0000
     30 H30          2.3504 -14.6962   8.8169 H              1 <1>                0.0000
     31 H31          1.4977 -13.0189  10.4208 H              1 <1>                0.0000
     32 H32          1.7139 -12.2920   8.8104 H              1 <1>                0.0000
     33 H33         -0.8989 -13.3317   8.7693 H              1 <1>                0.0000
     34 H34         -0.9703 -13.6451  11.1605 H              1 <1>                0.0000
     35 H35         -0.2175 -12.0560  11.4522 H              1 <1>                0.0000
     36 H36         -2.8979 -12.4366  10.0375 H              1 <1>                0.0000
     37 H37         -2.7344 -12.0685  11.7742 H              1 <1>                0.0000
     38 H38         -3.0890 -10.0337  10.2973 H              1 <1>                0.0000
     39 H39         -1.6243  -9.9734  11.3003 H              1 <1>                0.0000
     40 H40         -0.2188 -15.8513   9.1186 H              1 <1>                0.0000
     41 H41         -1.3469  -9.4612   8.7956 H              1 <1>                0.0000
@<TRIPOS>BOND
    1    1    2 1     
    2    1   21 1     
    3    1   22 1     
    4    1   23 1     
    5    2    3 1     
    6    2    4 1     
    7    2    5 1     
    8    3   24 1     
    9    3   25 1     
   10    3   26 1     
   11    4   27 1     
   12    4   28 1     
   13    4   29 1     
   14    5    6 1     
   15    6    7 2     
   16    6    8 am    
   17    8    9 1     
   18    8   40 1     
   19    9   10 1     
   20    9   18 1     
   21    9   30 1     
   22   10   11 1     
   23   10   31 1     
   24   10   32 1     
   25   11   12 1     
   26   11   16 1     
   27   11   33 1     
   28   12   13 1     
   29   12   34 1     
   30   12   35 1     
   31   13   14 1     
   32   13   36 1     
   33   13   37 1     
   34   14   15 1     
   35   14   38 1     
   36   14   39 1     
   37   15   16 am    
   38   15   41 1     
   39   16   17 2     
   40   18   19 ar    
   41   18   20 ar    
@<TRIPOS>SUBSTRUCTURE
      1 ****           1
@<TRIPOS>SET
DONOR_HYDROGENS      STATIC     ATOMS    <user>   **** ""
2 40 41
ATOM$RED        STATIC     ATOMS    COLORGROUP SYSTEM
2 40 41
@<TRIPOS>COMMENT
> <Gold.Version>
2022.2.0

> <Gold.Id.Protein>
3pbl|protein|mol2

> <Gold.Protein.RotatedTorsions>
[ 1303 1298 1297 1294 ] final  -15.68 input  179.99 | X-H torsion
[ 2461 2456 2455 2452 ] final -121.88 input   30.03 | X-H torsion
[ 2515 2510 2509 2506 ] final -135.27 input  -89.99 | X-H torsion
[ 3721 3712 3711 3710 ] final  143.39 input -179.91 | X-H torsion
[ 3841 3832 3831 3830 ] final  -74.48 input -179.91 | X-H torsion
[ 3767 3762 3761 3758 ] final  126.45 input  -89.99 | X-H torsion
[ 2472 2467 2466 2463 ] final  -19.64 input  -89.97 | X-H torsion

> <Gold.Protein.ActiveResidues>
 VAL82   VAL86   LEU89   PHE106  VAL107  ASP110  VAL111  MET112  CYS114  THR115 
 CYS181  SER182  ILE183  PHE188  VAL189  ILE190  SER192  SER193  SER196  TRP342 
 PHE345  PHE346  HIS349  VAL350  TYR365  THR369  GLY372  TYR373 

> <Gold.Protein.RotatedAtoms>
    3.3340   -9.6521    3.9256 H   0  0  0  0  0  0  0  0  0  0  0  0  # atno 1303 bound_to 1298
    0.5964   -9.1863    8.0723 H   0  0  0  0  0  0  0  0  0  0  0  0  # atno 2461 bound_to 2456
   -3.6651   -4.9622    8.3531 H   0  0  0  0  0  0  0  0  0  0  0  0  # atno 2472 bound_to 2467
    2.6287   -9.2548    5.2307 H   0  0  0  0  0  0  0  0  0  0  0  0  # atno 2515 bound_to 2510
   -3.1676  -16.9392   13.1439 H   0  0  0  0  0  0  0  0  0  0  0  0  # atno 3721 bound_to 3712
   -3.9288  -23.1369   10.9924 H   0  0  0  0  0  0  0  0  0  0  0  0  # atno 3767 bound_to 3762
    1.7068  -19.6974    8.8703 H   0  0  0  0  0  0  0  0  0  0  0  0  # atno 3841 bound_to 3832
    4.4409   -8.4949    4.2451 LP  0  0  0  0  0  0  0  0  0  0  0  0  # atno 4297 bound_to 1298
    4.5876   -9.9742    4.9211 LP  0  0  0  0  0  0  0  0  0  0  0  0  # atno 4298 bound_to 1298
    2.1292   -8.6233    8.0450 LP  0  0  0  0  0  0  0  0  0  0  0  0  # atno 4299 bound_to 2456
    1.0119   -7.9987    7.0310 LP  0  0  0  0  0  0  0  0  0  0  0  0  # atno 4300 bound_to 2456
    2.0286   -7.9325    5.9771 LP  0  0  0  0  0  0  0  0  0  0  0  0  # atno 4301 bound_to 2510
    2.6393   -7.8115    4.4675 LP  0  0  0  0  0  0  0  0  0  0  0  0  # atno 4302 bound_to 2510
   -2.6095  -18.2160   13.9415 LP  0  0  0  0  0  0  0  0  0  0  0  0  # atno 4306 bound_to 3712
   -3.2612  -16.9536   14.7467 LP  0  0  0  0  0  0  0  0  0  0  0  0  # atno 4307 bound_to 3712
    3.0587  -20.3626    8.3171 LP  0  0  0  0  0  0  0  0  0  0  0  0  # atno 4314 bound_to 3832
    2.1990  -21.0893    9.5000 LP  0  0  0  0  0  0  0  0  0  0  0  0  # atno 4315 bound_to 3832
   -5.2615  -22.7958   10.1124 LP  0  0  0  0  0  0  0  0  0  0  0  0  # atno 4318 bound_to 3762
   -4.9368  -21.9426   11.4663 LP  0  0  0  0  0  0  0  0  0  0  0  0  # atno 4319 bound_to 3762
   -4.8198   -5.4634    9.3932 LP  0  0  0  0  0  0  0  0  0  0  0  0  # atno 4320 bound_to 2467
   -5.2318   -4.9679    7.8928 LP  0  0  0  0  0  0  0  0  0  0  0  0  # atno 4321 bound_to 2467

> <Gold.Score>
     Score     S(PLP)   S(hbond)     S(cho)   S(metal)  DE(clash)   DE(tors)     intcor
     46.57     -45.70       1.00       0.00       0.00       1.40       0.74       0.74

> <Gold.PLP.Fitness>
46.5749

> <Gold.PLP.PLP>
-45.7045

> <Gold.PLP.part.hbond>
-2.0113

> <Gold.PLP.part.metal>
0.0000

> <Gold.PLP.part.buried>
-1.4344

> <Gold.PLP.part.nonpolar>
-44.5967

> <Gold.PLP.part.repulsive>
0.4445

> <Gold.PLP.ligand.clash>
1.4016

> <Gold.PLP.ligand.torsion>
0.7351

> <Gold.PLP.Chemscore.Hbond>
1.0000

> <Gold.PLP.Chemscore.CHOScore>
0.0000

> <Gold.PLP.Chemscore.Metal>
0.0000

> <Gold.Chemscore.Hbonds>
donor molecule, donor type, donor heavy atom, donor atom, acceptor molecule, acceptor atom, score
      P1  H  2456  2461       L1    17  1.00

> <Gold.PLP.Chemscore.Internal.Correction>
0.7420

