#       Name:                EN300-26870132_i002
#       Creating user name   fsindt
#       Creation time:       Wed Mar  1 04:38:52 2023


#       File generated by GOLD software.
#

@<TRIPOS>MOLECULE
EN300-26870132_i002|acide_1|mol2|6716|dock11
    41    41     1
SMALL
USER_CHARGES


@<TRIPOS>ATOM
      1 C1           1.3262 -12.5495   9.2233 C.3            1 <1>                0.0000
      2 C2          -0.1996 -12.6208   9.3123 C.3            1 <1>                0.0000
      3 C3          -0.7747 -11.2037   9.3561 C.3            1 <1>                0.0000
      4 C4          -0.7480 -13.3561   8.0878 C.3            1 <1>                0.0000
      5 O5          -0.5813 -13.3356  10.5172 O.3            1 <1>                0.0000
      6 C6          -0.0381 -14.5535  10.7032 C.2            1 <1>                0.0000
      7 O7           0.5152 -15.1193   9.7811 O.2            1 <1>                0.0000
      8 N8          -0.1081 -15.1451  11.9121 N.am           1 <1>                0.0000
      9 C9           0.4828 -16.4702  12.1146 C.3            1 <1>                0.0000
     10 C10         -0.5984 -17.4440  12.5875 C.3            1 <1>                0.0000
     11 C11         -0.0014 -18.8473  12.7126 C.3            1 <1>                0.0000
     12 C12         -0.8939 -19.7006  13.6172 C.3            1 <1>                0.0000
     13 C13         -0.4382 -21.1608  13.5093 C.3            1 <1>                0.0000
     14 C14         -0.7471 -21.6673  12.0999 C.3            1 <1>                0.0000
     15 N15         -0.2264 -20.7432  11.1002 N.am           1 <1>                0.0000
     16 C16          0.0923 -19.4726  11.3504 C.2            1 <1>                0.0000
     17 O17          0.4782 -18.7854  10.4287 O.2            1 <1>                0.0000
     18 C18          1.5693 -16.3821  13.1551 C.2            1 <1>                0.0000
     19 O19          2.6885 -16.7954  12.9044 O.co2          1 <1>                0.0000
     20 O20          1.3291 -15.8975  14.2478 O.co2          1 <1>               -1.0000
     21 H21          1.7169 -12.0257  10.0958 H              1 <1>                0.0000
     22 H22          1.7359 -13.5591   9.1921 H              1 <1>                0.0000
     23 H23          1.6128 -12.0129   8.3189 H              1 <1>                0.0000
     24 H24         -0.4881 -10.6670   8.4517 H              1 <1>                0.0000
     25 H25         -1.8616 -11.2545   9.4195 H              1 <1>                0.0000
     26 H26         -0.3839 -10.6799  10.2286 H              1 <1>                0.0000
     27 H27         -0.3383 -14.3657   8.0565 H              1 <1>                0.0000
     28 H28         -1.8350 -13.4069   8.1511 H              1 <1>                0.0000
     29 H29         -0.4614 -12.8194   7.1832 H              1 <1>                0.0000
     30 H30          0.9069 -16.8262  11.1756 H              1 <1>                0.0000
     31 H31         -0.9777 -17.1228  13.5575 H              1 <1>                0.0000
     32 H32         -1.4145 -17.4595  11.8651 H              1 <1>                0.0000
     33 H33          0.9955 -18.7791  13.1477 H              1 <1>                0.0000
     34 H34         -0.8007 -19.3624  14.6492 H              1 <1>                0.0000
     35 H35         -1.9316 -19.6153  13.2948 H              1 <1>                0.0000
     36 H36          0.6342 -21.2238  13.6938 H              1 <1>                0.0000
     37 H37         -0.9736 -21.7660  14.2408 H              1 <1>                0.0000
     38 H38         -0.2875 -22.6457  11.9599 H              1 <1>                0.0000
     39 H39         -1.8264 -21.7589  11.9783 H              1 <1>                0.0000
     40 H40         -0.5499 -14.6934  12.6482 H              1 <1>                0.0000
     41 H41         -0.1041 -21.0729  10.1963 H              1 <1>                0.0000
@<TRIPOS>BOND
    1    1    2 1     
    2    1   21 1     
    3    1   22 1     
    4    1   23 1     
    5    2    3 1     
    6    2    4 1     
    7    2    5 1     
    8    3   24 1     
    9    3   25 1     
   10    3   26 1     
   11    4   27 1     
   12    4   28 1     
   13    4   29 1     
   14    5    6 1     
   15    6    7 2     
   16    6    8 am    
   17    8    9 1     
   18    8   40 1     
   19    9   10 1     
   20    9   18 1     
   21    9   30 1     
   22   10   11 1     
   23   10   31 1     
   24   10   32 1     
   25   11   12 1     
   26   11   16 1     
   27   11   33 1     
   28   12   13 1     
   29   12   34 1     
   30   12   35 1     
   31   13   14 1     
   32   13   36 1     
   33   13   37 1     
   34   14   15 1     
   35   14   38 1     
   36   14   39 1     
   37   15   16 am    
   38   15   41 1     
   39   16   17 2     
   40   18   19 ar    
   41   18   20 ar    
@<TRIPOS>SUBSTRUCTURE
      1 ****           1
@<TRIPOS>SET
DONOR_HYDROGENS      STATIC     ATOMS    <user>   **** ""
2 40 41
ATOM$RED        STATIC     ATOMS    COLORGROUP SYSTEM
2 40 41
@<TRIPOS>COMMENT
> <Gold.Version>
2022.2.0

> <Gold.Id.Protein>
3pbl|protein|mol2

> <Gold.Protein.RotatedTorsions>
[ 1303 1298 1297 1294 ] final -162.00 input  179.99 | X-H torsion
[ 2461 2456 2455 2452 ] final  158.33 input   30.03 | X-H torsion
[ 2515 2510 2509 2506 ] final   39.79 input  -89.99 | X-H torsion
[ 3721 3712 3711 3710 ] final   60.79 input -179.91 | X-H torsion
[ 3841 3832 3831 3830 ] final  -33.23 input -179.91 | X-H torsion
[ 3767 3762 3761 3758 ] final   66.68 input  -89.99 | X-H torsion
[ 2472 2467 2466 2463 ] final  -44.64 input  -89.97 | X-H torsion

> <Gold.Protein.ActiveResidues>
 VAL82   VAL86   LEU89   PHE106  VAL107  ASP110  VAL111  MET112  CYS114  THR115 
 CYS181  SER182  ILE183  PHE188  VAL189  ILE190  SER192  SER193  SER196  TRP342 
 PHE345  PHE346  HIS349  VAL350  TYR365  THR369  GLY372  TYR373 

> <Gold.Protein.RotatedAtoms>
    4.7281   -8.6685    4.5127 H   0  0  0  0  0  0  0  0  0  0  0  0  # atno 1303 bound_to 1298
    1.7659   -9.0611    8.3555 H   0  0  0  0  0  0  0  0  0  0  0  0  # atno 2461 bound_to 2456
   -3.6496   -5.0990    8.7373 H   0  0  0  0  0  0  0  0  0  0  0  0  # atno 2472 bound_to 2467
    2.2670   -7.4087    5.1445 H   0  0  0  0  0  0  0  0  0  0  0  0  # atno 2515 bound_to 2510
   -2.5955  -17.9020   13.3743 H   0  0  0  0  0  0  0  0  0  0  0  0  # atno 3721 bound_to 3712
   -4.4781  -23.3083   10.2496 H   0  0  0  0  0  0  0  0  0  0  0  0  # atno 3767 bound_to 3762
    1.5653  -20.0930    9.3122 H   0  0  0  0  0  0  0  0  0  0  0  0  # atno 3841 bound_to 3832
    4.2558  -10.2083    4.7814 LP  0  0  0  0  0  0  0  0  0  0  0  0  # atno 4297 bound_to 1298
    3.3780   -9.2449    3.7975 LP  0  0  0  0  0  0  0  0  0  0  0  0  # atno 4298 bound_to 1298
    1.6385   -7.9317    7.1827 LP  0  0  0  0  0  0  0  0  0  0  0  0  # atno 4299 bound_to 2456
    0.3336   -8.8155    7.6101 LP  0  0  0  0  0  0  0  0  0  0  0  0  # atno 4300 bound_to 2456
    2.8338   -8.8039    4.5138 LP  0  0  0  0  0  0  0  0  0  0  0  0  # atno 4301 bound_to 2510
    2.1960   -8.7869    6.0170 LP  0  0  0  0  0  0  0  0  0  0  0  0  # atno 4302 bound_to 2510
   -2.9776  -17.4309   14.8609 LP  0  0  0  0  0  0  0  0  0  0  0  0  # atno 4306 bound_to 3712
   -3.5536  -16.6273   13.5613 LP  0  0  0  0  0  0  0  0  0  0  0  0  # atno 4307 bound_to 3712
    2.6356  -19.8692    8.1373 LP  0  0  0  0  0  0  0  0  0  0  0  0  # atno 4314 bound_to 3832
    2.7856  -21.1257    9.1694 LP  0  0  0  0  0  0  0  0  0  0  0  0  # atno 4315 bound_to 3832
   -5.4899  -22.1151   10.7183 LP  0  0  0  0  0  0  0  0  0  0  0  0  # atno 4318 bound_to 3762
   -4.1593  -22.4519   11.6030 LP  0  0  0  0  0  0  0  0  0  0  0  0  # atno 4319 bound_to 3762
   -5.1789   -5.4338    9.2016 LP  0  0  0  0  0  0  0  0  0  0  0  0  # atno 4320 bound_to 2467
   -4.8882   -4.8607    7.7003 LP  0  0  0  0  0  0  0  0  0  0  0  0  # atno 4321 bound_to 2467

> <Gold.Score>
     Score     S(PLP)   S(hbond)     S(cho)   S(metal)  DE(clash)   DE(tors)     intcor
     38.03     -32.23       2.00       0.00       0.00       0.00       0.47       0.74

> <Gold.PLP.Fitness>
38.0309

> <Gold.PLP.PLP>
-32.2321

> <Gold.PLP.part.hbond>
-2.0000

> <Gold.PLP.part.metal>
0.0000

> <Gold.PLP.part.buried>
-5.4858

> <Gold.PLP.part.nonpolar>
-29.0041

> <Gold.PLP.part.repulsive>
3.6132

> <Gold.PLP.ligand.clash>
0.0000

> <Gold.PLP.ligand.torsion>
0.4716

> <Gold.PLP.Chemscore.Hbond>
2.0000

> <Gold.PLP.Chemscore.CHOScore>
0.0000

> <Gold.PLP.Chemscore.Metal>
0.0000

> <Gold.Chemscore.Hbonds>
donor molecule, donor type, donor heavy atom, donor atom, acceptor molecule, acceptor atom, score
      P1  H  2305  2313       L1    20  1.00
      P1  H  3832  3841       L1    17  1.00

> <Gold.PLP.Chemscore.Internal.Correction>
0.7420

