#       Name:                EN300-223795_i001
#       Creating user name   fsindt
#       Creation time:       Tue Feb 28 19:26:50 2023


#       File generated by GOLD software.
#

@<TRIPOS>MOLECULE
EN300-223795_i001
    14    14     1
SMALL
USER_CHARGES


@<TRIPOS>ATOM
      1 O1          -2.0006   1.2681   0.8046 O.co2          1 <1>               -1.0000
      2 C2          -1.7889   0.3482   0.0253 C.2            1 <1>                0.0000
      3 O3          -2.6614  -0.0035  -0.7578 O.co2          1 <1>                0.0000
      4 C4          -0.4872  -0.3289   0.0258 C.2            1 <1>                0.0000
      5 C5          -0.3350  -1.7654   0.0788 C.2            1 <1>                0.0000
      6 C6           0.9331  -2.1552   0.0687 C.2            1 <1>                0.0000
      7 S7           2.0062  -0.7687  -0.0067 S.3            1 <1>                0.0000
      8 C8           0.7042   0.3310  -0.0295 C.2            1 <1>                0.0000
      9 C9           0.8505   1.8295  -0.0936 C.3            1 <1>                0.0000
     10 F10          0.3976   2.3939   1.1037 F              1 <1>                0.0000
     11 F11          2.1967   2.1589  -0.2846 F              1 <1>                0.0000
     12 F12          0.0930   2.3268  -1.1595 F              1 <1>                0.0000
     13 H13         -1.1682  -2.4511   0.1225 H              1 <1>                0.0000
     14 H14          1.2599  -3.1840   0.1024 H              1 <1>                0.0000
@<TRIPOS>BOND
    1    1    2 ar    
    2    2    3 ar    
    3    2    4 1     
    4    4    5 1     
    5    4    8 2     
    6    5    6 2     
    7    5   13 1     
    8    6    7 1     
    9    6   14 1     
   10    7    8 1     
   11    8    9 1     
   12    9   10 1     
   13    9   11 1     
   14    9   12 1     
@<TRIPOS>SUBSTRUCTURE
      1 ****           1
