#       Name:                EN300-223795_i001
#       Creating user name   fsindt
#       Creation time:       Tue Feb 28 19:26:54 2023


#       File generated by GOLD software.
#

@<TRIPOS>MOLECULE
EN300-223795_i001|acide_2|mol2|6724|dock8
    14    14     1
SMALL
USER_CHARGES


@<TRIPOS>ATOM
      1 O1          -0.6645 -17.8392  15.0079 O.co2          1 <1>               -1.0000
      2 C2          -0.4066 -19.0358  14.9933 C.2            1 <1>                0.0000
      3 O3          -0.7760 -19.7527  15.9141 O.co2          1 <1>                0.0000
      4 C4           0.3401 -19.6117  13.8692 C.2            1 <1>                0.0000
      5 C5           0.0409 -20.9018  13.2899 C.2            1 <1>                0.0000
      6 C6           0.8452 -21.2198  12.2838 C.2            1 <1>                0.0000
      7 S7           2.0144 -19.9426  11.9988 S.3            1 <1>                0.0000
      8 C8           1.3843 -18.9832  13.2588 C.2            1 <1>                0.0000
      9 C9           1.9149 -17.6281  13.6502 C.3            1 <1>                0.0000
     10 F10          0.9233 -16.6625  13.4467 F              1 <1>                0.0000
     11 F11          2.2814 -17.6430  15.0002 F              1 <1>                0.0000
     12 F12          3.0327 -17.3210  12.8669 F              1 <1>                0.0000
     13 H13         -0.7554 -21.5415  13.6405 H              1 <1>                0.0000
     14 H14          0.7882 -22.1381  11.7183 H              1 <1>                0.0000
@<TRIPOS>BOND
    1    1    2 ar    
    2    2    3 ar    
    3    2    4 1     
    4    4    5 1     
    5    4    8 2     
    6    5    6 2     
    7    5   13 1     
    8    6    7 1     
    9    6   14 1     
   10    7    8 1     
   11    8    9 1     
   12    9   10 1     
   13    9   11 1     
   14    9   12 1     
@<TRIPOS>SUBSTRUCTURE
      1 ****           1
@<TRIPOS>COMMENT
> <Gold.Version>
2022.2.0

> <Gold.Id.Protein>
3pbl|protein|mol2

> <Gold.Protein.RotatedTorsions>
[ 1303 1298 1297 1294 ] final   28.72 input  179.99 | X-H torsion
[ 2461 2456 2455 2452 ] final -104.98 input   30.03 | X-H torsion
[ 2515 2510 2509 2506 ] final  -19.81 input  -89.99 | X-H torsion
[ 3721 3712 3711 3710 ] final   -9.49 input -179.91 | X-H torsion
[ 3841 3832 3831 3830 ] final  146.37 input -179.91 | X-H torsion
[ 3767 3762 3761 3758 ] final -158.53 input  -89.99 | X-H torsion
[ 2472 2467 2466 2463 ] final   59.99 input  -89.97 | X-H torsion

> <Gold.Protein.ActiveResidues>
 VAL82   VAL86   LEU89   PHE106  VAL107  ASP110  VAL111  MET112  CYS114  THR115 
 CYS181  SER182  ILE183  PHE188  VAL189  ILE190  SER192  SER193  SER196  TRP342 
 PHE345  PHE346  HIS349  VAL350  TYR365  THR369  GLY372  TYR373 

> <Gold.Protein.RotatedAtoms>
    3.6179  -10.1700    4.3238 H   0  0  0  0  0  0  0  0  0  0  0  0  # atno 1303 bound_to 1298
    0.4368   -9.0562    7.8867 H   0  0  0  0  0  0  0  0  0  0  0  0  # atno 2461 bound_to 2456
   -4.6430   -4.8198    7.6593 H   0  0  0  0  0  0  0  0  0  0  0  0  # atno 2472 bound_to 2467
    2.6662   -7.8738    4.4361 H   0  0  0  0  0  0  0  0  0  0  0  0  # atno 2515 bound_to 2510
   -2.5125  -17.8925   14.3679 H   0  0  0  0  0  0  0  0  0  0  0  0  # atno 3721 bound_to 3712
   -4.3261  -22.2811   11.6471 H   0  0  0  0  0  0  0  0  0  0  0  0  # atno 3767 bound_to 3762
    3.1298  -20.4484    8.6616 H   0  0  0  0  0  0  0  0  0  0  0  0  # atno 3841 bound_to 3832
    3.8431   -8.6158    3.8766 LP  0  0  0  0  0  0  0  0  0  0  0  0  # atno 4297 bound_to 1298
    4.9014   -9.3352    4.8912 LP  0  0  0  0  0  0  0  0  0  0  0  0  # atno 4298 bound_to 1298
    2.0214   -8.8217    8.2055 LP  0  0  0  0  0  0  0  0  0  0  0  0  # atno 4299 bound_to 2456
    1.2793   -7.9303    7.0560 LP  0  0  0  0  0  0  0  0  0  0  0  0  # atno 4300 bound_to 2456
    2.6001   -9.2578    5.2997 LP  0  0  0  0  0  0  0  0  0  0  0  0  # atno 4301 bound_to 2510
    2.0303   -7.8678    5.9398 LP  0  0  0  0  0  0  0  0  0  0  0  0  # atno 4302 bound_to 2510
   -3.4904  -16.6201   14.3184 LP  0  0  0  0  0  0  0  0  0  0  0  0  # atno 4306 bound_to 3712
   -3.1366  -17.4490   12.9567 LP  0  0  0  0  0  0  0  0  0  0  0  0  # atno 4307 bound_to 3712
    1.8768  -20.9192    9.5473 LP  0  0  0  0  0  0  0  0  0  0  0  0  # atno 4314 bound_to 3832
    1.7371  -19.6651    8.5109 LP  0  0  0  0  0  0  0  0  0  0  0  0  # atno 4315 bound_to 3832
   -4.2900  -23.3356   10.4007 LP  0  0  0  0  0  0  0  0  0  0  0  0  # atno 4318 bound_to 3762
   -5.5111  -22.2583   10.5236 LP  0  0  0  0  0  0  0  0  0  0  0  0  # atno 4319 bound_to 3762
   -3.7271   -5.1871    8.9603 LP  0  0  0  0  0  0  0  0  0  0  0  0  # atno 4320 bound_to 2467
   -5.3468   -5.3866    9.0193 LP  0  0  0  0  0  0  0  0  0  0  0  0  # atno 4321 bound_to 2467

> <Gold.Score>
     Score     S(PLP)   S(hbond)     S(cho)   S(metal)  DE(clash)   DE(tors)     intcor
     31.59     -29.48       1.00       0.00       0.00       0.00       0.63       0.36

> <Gold.PLP.Fitness>
31.5939

> <Gold.PLP.PLP>
-29.4849

> <Gold.PLP.part.hbond>
-1.0000

> <Gold.PLP.part.metal>
0.0000

> <Gold.PLP.part.buried>
-2.6802

> <Gold.PLP.part.nonpolar>
-26.0846

> <Gold.PLP.part.repulsive>
0.0565

> <Gold.PLP.ligand.clash>
0.0000

> <Gold.PLP.ligand.torsion>
0.6277

> <Gold.PLP.Chemscore.Hbond>
1.0000

> <Gold.PLP.Chemscore.CHOScore>
0.0000

> <Gold.PLP.Chemscore.Metal>
0.0000

> <Gold.Chemscore.Hbonds>
donor molecule, donor type, donor heavy atom, donor atom, acceptor molecule, acceptor atom, score
      P1  H  3712  3721       L1     1  1.00

> <Gold.PLP.Chemscore.Internal.Correction>
0.3645

