#       Name:                EN300-223795_i001
#       Creating user name   fsindt
#       Creation time:       Tue Feb 28 19:26:53 2023


#       File generated by GOLD software.
#

@<TRIPOS>MOLECULE
EN300-223795_i001|acide_2|mol2|6724|dock5
    14    14     1
SMALL
USER_CHARGES


@<TRIPOS>ATOM
      1 O1           1.6945 -11.5848   6.2600 O.co2          1 <1>               -1.0000
      2 C2           0.8750 -11.7237   7.1587 C.2            1 <1>                0.0000
      3 O3           0.1783 -10.7780   7.5031 O.co2          1 <1>                0.0000
      4 C4           0.7237 -13.0252   7.8189 C.2            1 <1>                0.0000
      5 C5           1.2269 -14.2630   7.2674 C.2            1 <1>                0.0000
      6 C6           0.9760 -15.3152   8.0356 C.2            1 <1>                0.0000
      7 S7           0.1050 -14.8328   9.4807 S.3            1 <1>                0.0000
      8 C8           0.0992 -13.1921   9.0189 C.2            1 <1>                0.0000
      9 C9          -0.5197 -12.0786   9.8239 C.3            1 <1>                0.0000
     10 F10         -0.9754 -12.5843  11.0461 F              1 <1>                0.0000
     11 F11          0.4369 -11.0849  10.0579 F              1 <1>                0.0000
     12 F12         -1.5952 -11.5328   9.1150 F              1 <1>                0.0000
     13 H13          1.7528 -14.3250   6.3262 H              1 <1>                0.0000
     14 H14          1.2675 -16.3288   7.8035 H              1 <1>                0.0000
@<TRIPOS>BOND
    1    1    2 ar    
    2    2    3 ar    
    3    2    4 1     
    4    4    5 1     
    5    4    8 2     
    6    5    6 2     
    7    5   13 1     
    8    6    7 1     
    9    6   14 1     
   10    7    8 1     
   11    8    9 1     
   12    9   10 1     
   13    9   11 1     
   14    9   12 1     
@<TRIPOS>SUBSTRUCTURE
      1 ****           1
@<TRIPOS>COMMENT
> <Gold.Version>
2022.2.0

> <Gold.Id.Protein>
3pbl|protein|mol2

> <Gold.Protein.RotatedTorsions>
[ 1303 1298 1297 1294 ] final  -95.07 input  179.99 | X-H torsion
[ 2461 2456 2455 2452 ] final -121.29 input   30.03 | X-H torsion
[ 2515 2510 2509 2506 ] final  -84.65 input  -89.99 | X-H torsion
[ 3721 3712 3711 3710 ] final   -2.53 input -179.91 | X-H torsion
[ 3841 3832 3831 3830 ] final  -66.94 input -179.91 | X-H torsion
[ 3767 3762 3761 3758 ] final -152.04 input  -89.99 | X-H torsion
[ 2472 2467 2466 2463 ] final  -79.98 input  -89.97 | X-H torsion

> <Gold.Protein.ActiveResidues>
 VAL82   VAL86   LEU89   PHE106  VAL107  ASP110  VAL111  MET112  CYS114  THR115 
 CYS181  SER182  ILE183  PHE188  VAL189  ILE190  SER192  SER193  SER196  TRP342 
 PHE345  PHE346  HIS349  VAL350  TYR365  THR369  GLY372  TYR373 

> <Gold.Protein.RotatedAtoms>
    3.8924   -8.5857    3.8998 H   0  0  0  0  0  0  0  0  0  0  0  0  # atno 1303 bound_to 1298
    0.5898   -9.1826    8.0663 H   0  0  0  0  0  0  0  0  0  0  0  0  # atno 2461 bound_to 2456
   -3.9166   -5.2964    9.2034 H   0  0  0  0  0  0  0  0  0  0  0  0  # atno 2472 bound_to 2467
    2.8294   -8.8639    4.5552 H   0  0  0  0  0  0  0  0  0  0  0  0  # atno 2515 bound_to 2510
   -2.4927  -17.9413   14.2770 H   0  0  0  0  0  0  0  0  0  0  0  0  # atno 3721 bound_to 3712
   -4.4083  -22.2130   11.6501 H   0  0  0  0  0  0  0  0  0  0  0  0  # atno 3767 bound_to 3762
    1.6526  -19.7528    8.9535 H   0  0  0  0  0  0  0  0  0  0  0  0  # atno 3841 bound_to 3832
    4.8911   -9.3947    4.9071 LP  0  0  0  0  0  0  0  0  0  0  0  0  # atno 4297 bound_to 1298
    3.5788  -10.1412    4.2848 LP  0  0  0  0  0  0  0  0  0  0  0  0  # atno 4298 bound_to 1298
    2.1268   -8.6303    8.0511 LP  0  0  0  0  0  0  0  0  0  0  0  0  # atno 4299 bound_to 2456
    1.0210   -7.9954    7.0309 LP  0  0  0  0  0  0  0  0  0  0  0  0  # atno 4300 bound_to 2456
    2.1713   -8.7231    6.0428 LP  0  0  0  0  0  0  0  0  0  0  0  0  # atno 4301 bound_to 2510
    2.2958   -7.4119    5.0775 LP  0  0  0  0  0  0  0  0  0  0  0  0  # atno 4302 bound_to 2510
   -3.4558  -16.6647   14.4199 LP  0  0  0  0  0  0  0  0  0  0  0  0  # atno 4306 bound_to 3712
   -3.1940  -17.3481   12.9601 LP  0  0  0  0  0  0  0  0  0  0  0  0  # atno 4307 bound_to 3712
    3.0071  -20.2631    8.2599 LP  0  0  0  0  0  0  0  0  0  0  0  0  # atno 4314 bound_to 3832
    2.3132  -21.1247    9.4611 LP  0  0  0  0  0  0  0  0  0  0  0  0  # atno 4315 bound_to 3832
   -4.2154  -23.3325   10.4769 LP  0  0  0  0  0  0  0  0  0  0  0  0  # atno 4318 bound_to 3762
   -5.5035  -22.3294   10.4444 LP  0  0  0  0  0  0  0  0  0  0  0  0  # atno 4319 bound_to 3762
   -5.4808   -5.2987    8.7345 LP  0  0  0  0  0  0  0  0  0  0  0  0  # atno 4320 bound_to 2467
   -4.3194   -4.7985    7.7013 LP  0  0  0  0  0  0  0  0  0  0  0  0  # atno 4321 bound_to 2467

> <Gold.Score>
     Score     S(PLP)   S(hbond)     S(cho)   S(metal)  DE(clash)   DE(tors)     intcor
     43.80     -38.83       0.94       0.72       0.00       0.00       0.20       0.36

> <Gold.PLP.Fitness>
43.8025

> <Gold.PLP.PLP>
-38.8318

> <Gold.PLP.part.hbond>
-1.0000

> <Gold.PLP.part.metal>
0.0000

> <Gold.PLP.part.buried>
-2.7526

> <Gold.PLP.part.nonpolar>
-36.3172

> <Gold.PLP.part.repulsive>
0.1112

> <Gold.PLP.ligand.clash>
0.0000

> <Gold.PLP.ligand.torsion>
0.1987

> <Gold.PLP.Chemscore.Hbond>
0.9440

> <Gold.PLP.Chemscore.CHOScore>
0.7238

> <Gold.PLP.Chemscore.Metal>
0.0000

> <Gold.Chemscore.Hbonds>
donor molecule, donor type, donor heavy atom, donor atom, acceptor molecule, acceptor atom, score
      P1  H  2456  2461       L1     3  0.94
      L1  C     6    14       P1  1227  0.72

> <Gold.PLP.Chemscore.Internal.Correction>
0.3645

