#       Name:                EN300-223795_i001
#       Creating user name   fsindt
#       Creation time:       Tue Feb 28 19:26:54 2023


#       File generated by GOLD software.
#

@<TRIPOS>MOLECULE
EN300-223795_i001|acide_2|mol2|6724|dock7
    14    14     1
SMALL
USER_CHARGES


@<TRIPOS>ATOM
      1 O1          -0.0668 -11.0953   8.2585 O.co2          1 <1>               -1.0000
      2 C2           0.0909 -12.3041   8.3695 C.2            1 <1>                0.0000
      3 O3           0.4573 -12.9644   7.4062 O.co2          1 <1>                0.0000
      4 C4          -0.1535 -12.9606   9.6587 C.2            1 <1>                0.0000
      5 C5           0.4184 -14.2365  10.0255 C.2            1 <1>                0.0000
      6 C6           0.0610 -14.6377  11.2386 C.2            1 <1>                0.0000
      7 S7          -1.0006 -13.4608  11.9919 S.3            1 <1>                0.0000
      8 C8          -0.9386 -12.4280  10.6374 C.2            1 <1>                0.0000
      9 C9          -1.6605 -11.1093  10.5328 C.3            1 <1>                0.0000
     10 F10         -0.7260 -10.0716  10.4479 F              1 <1>                0.0000
     11 F11         -2.4648 -11.1075   9.3881 F              1 <1>                0.0000
     12 F12         -2.4608 -10.9247  11.6653 F              1 <1>                0.0000
     13 H13          1.0695 -14.8052   9.3783 H              1 <1>                0.0000
     14 H14          0.3795 -15.5612  11.6989 H              1 <1>                0.0000
@<TRIPOS>BOND
    1    1    2 ar    
    2    2    3 ar    
    3    2    4 1     
    4    4    5 1     
    5    4    8 2     
    6    5    6 2     
    7    5   13 1     
    8    6    7 1     
    9    6   14 1     
   10    7    8 1     
   11    8    9 1     
   12    9   10 1     
   13    9   11 1     
   14    9   12 1     
@<TRIPOS>SUBSTRUCTURE
      1 ****           1
@<TRIPOS>COMMENT
> <Gold.Version>
2022.2.0

> <Gold.Id.Protein>
3pbl|protein|mol2

> <Gold.Protein.RotatedTorsions>
[ 1303 1298 1297 1294 ] final -169.84 input  179.99 | X-H torsion
[ 2461 2456 2455 2452 ] final -113.04 input   30.03 | X-H torsion
[ 2515 2510 2509 2506 ] final  100.25 input  -89.99 | X-H torsion
[ 3721 3712 3711 3710 ] final   -0.49 input -179.91 | X-H torsion
[ 3841 3832 3831 3830 ] final  -19.92 input -179.91 | X-H torsion
[ 3767 3762 3761 3758 ] final  -75.94 input  -89.99 | X-H torsion
[ 2472 2467 2466 2463 ] final  116.31 input  -89.97 | X-H torsion

> <Gold.Protein.ActiveResidues>
 VAL82   VAL86   LEU89   PHE106  VAL107  ASP110  VAL111  MET112  CYS114  THR115 
 CYS181  SER182  ILE183  PHE188  VAL189  ILE190  SER192  SER193  SER196  TRP342 
 PHE345  PHE346  HIS349  VAL350  TYR365  THR369  GLY372  TYR373 

> <Gold.Protein.RotatedAtoms>
    4.7915   -8.7509    4.5888 H   0  0  0  0  0  0  0  0  0  0  0  0  # atno 1303 bound_to 1298
    0.5050   -9.1240    7.9781 H   0  0  0  0  0  0  0  0  0  0  0  0  # atno 2461 bound_to 2456
   -5.3896   -5.0545    8.0826 H   0  0  0  0  0  0  0  0  0  0  0  0  # atno 2472 bound_to 2467
    2.0306   -7.8687    5.9401 H   0  0  0  0  0  0  0  0  0  0  0  0  # atno 2515 bound_to 2510
   -2.4880  -17.9538   14.2492 H   0  0  0  0  0  0  0  0  0  0  0  0  # atno 3721 bound_to 3712
   -5.3586  -21.9634   11.0292 H   0  0  0  0  0  0  0  0  0  0  0  0  # atno 3767 bound_to 3762
    1.6046  -20.2511    9.4293 H   0  0  0  0  0  0  0  0  0  0  0  0  # atno 3841 bound_to 3832
    4.1482  -10.2459    4.7211 LP  0  0  0  0  0  0  0  0  0  0  0  0  # atno 4297 bound_to 1298
    3.4222   -9.1248    3.7816 LP  0  0  0  0  0  0  0  0  0  0  0  0  # atno 4298 bound_to 1298
    2.0819   -8.7284    8.1334 LP  0  0  0  0  0  0  0  0  0  0  0  0  # atno 4299 bound_to 2456
    1.1507   -7.9560    7.0367 LP  0  0  0  0  0  0  0  0  0  0  0  0  # atno 4300 bound_to 2456
    2.6658   -7.8729    4.4360 LP  0  0  0  0  0  0  0  0  0  0  0  0  # atno 4301 bound_to 2510
    2.6005   -9.2578    5.2988 LP  0  0  0  0  0  0  0  0  0  0  0  0  # atno 4302 bound_to 2510
   -3.4446  -16.6798   14.4483 LP  0  0  0  0  0  0  0  0  0  0  0  0  # atno 4306 bound_to 3712
   -3.2106  -17.3186   12.9638 LP  0  0  0  0  0  0  0  0  0  0  0  0  # atno 4307 bound_to 3712
    2.4451  -19.7567    8.1545 LP  0  0  0  0  0  0  0  0  0  0  0  0  # atno 4314 bound_to 3832
    2.9307  -21.0556    9.0168 LP  0  0  0  0  0  0  0  0  0  0  0  0  # atno 4315 bound_to 3832
   -3.9770  -22.7302   11.4416 LP  0  0  0  0  0  0  0  0  0  0  0  0  # atno 4318 bound_to 3762
   -4.7919  -23.1812   10.1003 LP  0  0  0  0  0  0  0  0  0  0  0  0  # atno 4319 bound_to 3762
   -3.7655   -4.8895    8.1228 LP  0  0  0  0  0  0  0  0  0  0  0  0  # atno 4320 bound_to 2467
   -4.5620   -5.4496    9.4337 LP  0  0  0  0  0  0  0  0  0  0  0  0  # atno 4321 bound_to 2467

> <Gold.Score>
     Score     S(PLP)   S(hbond)     S(cho)   S(metal)  DE(clash)   DE(tors)     intcor
     40.04     -37.24       1.00       0.00       0.00       0.00       0.28       0.36

> <Gold.PLP.Fitness>
40.0440

> <Gold.PLP.PLP>
-37.2366

> <Gold.PLP.part.hbond>
-1.0000

> <Gold.PLP.part.metal>
0.0000

> <Gold.PLP.part.buried>
-3.1867

> <Gold.PLP.part.nonpolar>
-33.5209

> <Gold.PLP.part.repulsive>
0.0068

> <Gold.PLP.ligand.clash>
0.0000

> <Gold.PLP.ligand.torsion>
0.2785

> <Gold.PLP.Chemscore.Hbond>
1.0000

> <Gold.PLP.Chemscore.CHOScore>
0.0000

> <Gold.PLP.Chemscore.Metal>
0.0000

> <Gold.Chemscore.Hbonds>
donor molecule, donor type, donor heavy atom, donor atom, acceptor molecule, acceptor atom, score
      P1  H  2456  2461       L1     1  1.00

> <Gold.PLP.Chemscore.Internal.Correction>
0.3645

