#       Name:                EN300-223795_i001
#       Creating user name   fsindt
#       Creation time:       Tue Feb 28 19:27:00 2023


#       File generated by GOLD software.
#

@<TRIPOS>MOLECULE
EN300-223795_i001|acide_2|mol2|6724|dock19
    14    14     1
SMALL
USER_CHARGES


@<TRIPOS>ATOM
      1 O1           0.6867 -13.0419   7.0315 O.co2          1 <1>               -1.0000
      2 C2           0.5160 -11.9900   7.6337 C.2            1 <1>                0.0000
      3 O3           0.9879 -10.9497   7.1941 O.co2          1 <1>                0.0000
      4 C4          -0.2593 -11.9752   8.8794 C.2            1 <1>                0.0000
      5 C5          -1.0455 -10.8437   9.3165 C.2            1 <1>                0.0000
      6 C6          -1.6625 -11.0538  10.4720 C.2            1 <1>                0.0000
      7 S7          -1.3050 -12.6603  11.0813 S.3            1 <1>                0.0000
      8 C8          -0.3176 -13.0290   9.7419 C.2            1 <1>                0.0000
      9 C9           0.4000 -14.3391   9.5424 C.3            1 <1>                0.0000
     10 F10          1.7686 -14.1006   9.3773 F              1 <1>                0.0000
     11 F11          0.2004 -15.1552  10.6611 F              1 <1>                0.0000
     12 F12         -0.1028 -14.9776   8.4037 F              1 <1>                0.0000
     13 H13         -1.1225  -9.9215   8.7596 H              1 <1>                0.0000
     14 H14         -2.2972 -10.3353  10.9692 H              1 <1>                0.0000
@<TRIPOS>BOND
    1    1    2 ar    
    2    2    3 ar    
    3    2    4 1     
    4    4    5 1     
    5    4    8 2     
    6    5    6 2     
    7    5   13 1     
    8    6    7 1     
    9    6   14 1     
   10    7    8 1     
   11    8    9 1     
   12    9   10 1     
   13    9   11 1     
   14    9   12 1     
@<TRIPOS>SUBSTRUCTURE
      1 ****           1
@<TRIPOS>COMMENT
> <Gold.Version>
2022.2.0

> <Gold.Id.Protein>
3pbl|protein|mol2

> <Gold.Protein.RotatedTorsions>
[ 1303 1298 1297 1294 ] final   93.12 input  179.99 | X-H torsion
[ 2461 2456 2455 2452 ] final   30.61 input   30.03 | X-H torsion
[ 2515 2510 2509 2506 ] final -132.32 input  -89.99 | X-H torsion
[ 3721 3712 3711 3710 ] final    7.95 input -179.91 | X-H torsion
[ 3841 3832 3831 3830 ] final   23.95 input -179.91 | X-H torsion
[ 3767 3762 3761 3758 ] final  137.72 input  -89.99 | X-H torsion
[ 2472 2467 2466 2463 ] final   91.13 input  -89.97 | X-H torsion

> <Gold.Protein.ActiveResidues>
 VAL82   VAL86   LEU89   PHE106  VAL107  ASP110  VAL111  MET112  CYS114  THR115 
 CYS181  SER182  ILE183  PHE188  VAL189  ILE190  SER192  SER193  SER196  TRP342 
 PHE345  PHE346  HIS349  VAL350  TYR365  THR369  GLY372  TYR373 

> <Gold.Protein.RotatedAtoms>
    4.4542  -10.0922    4.8748 H   0  0  0  0  0  0  0  0  0  0  0  0  # atno 1303 bound_to 1298
    1.5239   -7.9185    7.1296 H   0  0  0  0  0  0  0  0  0  0  0  0  # atno 2461 bound_to 2456
   -5.1163   -4.9243    7.8047 H   0  0  0  0  0  0  0  0  0  0  0  0  # atno 2472 bound_to 2467
    2.6466   -9.2500    5.1860 H   0  0  0  0  0  0  0  0  0  0  0  0  # atno 2515 bound_to 2510
   -2.4743  -17.9962   14.1297 H   0  0  0  0  0  0  0  0  0  0  0  0  # atno 3721 bound_to 3712
   -3.9072  -23.0307   11.1426 H   0  0  0  0  0  0  0  0  0  0  0  0  # atno 3767 bound_to 3762
    1.9904  -20.7332    9.6221 H   0  0  0  0  0  0  0  0  0  0  0  0  # atno 3841 bound_to 3832
    3.3326   -9.4811    3.8576 LP  0  0  0  0  0  0  0  0  0  0  0  0  # atno 4297 bound_to 1298
    4.5752   -8.5477    4.3589 LP  0  0  0  0  0  0  0  0  0  0  0  0  # atno 4298 bound_to 1298
    0.3517   -8.9012    7.7020 LP  0  0  0  0  0  0  0  0  0  0  0  0  # atno 4299 bound_to 2456
    1.8622   -8.9883    8.3163 LP  0  0  0  0  0  0  0  0  0  0  0  0  # atno 4300 bound_to 2456
    2.0288   -7.9758    5.9987 LP  0  0  0  0  0  0  0  0  0  0  0  0  # atno 4301 bound_to 2510
    2.6213   -7.7729    4.4906 LP  0  0  0  0  0  0  0  0  0  0  0  0  # atno 4302 bound_to 2510
   -3.3936  -16.7517   14.5583 LP  0  0  0  0  0  0  0  0  0  0  0  0  # atno 4306 bound_to 3712
   -3.2775  -17.1976   12.9917 LP  0  0  0  0  0  0  0  0  0  0  0  0  # atno 4307 bound_to 3712
    1.8045  -19.6482    8.4540 LP  0  0  0  0  0  0  0  0  0  0  0  0  # atno 4314 bound_to 3832
    3.1257  -20.6072    8.4946 LP  0  0  0  0  0  0  0  0  0  0  0  0  # atno 4315 bound_to 3832
   -5.1372  -22.9273   10.0733 LP  0  0  0  0  0  0  0  0  0  0  0  0  # atno 4318 bound_to 3762
   -5.0827  -21.9172   11.3552 LP  0  0  0  0  0  0  0  0  0  0  0  0  # atno 4319 bound_to 3762
   -3.6388   -5.0096    8.4948 LP  0  0  0  0  0  0  0  0  0  0  0  0  # atno 4320 bound_to 2467
   -4.9619   -5.4596    9.3396 LP  0  0  0  0  0  0  0  0  0  0  0  0  # atno 4321 bound_to 2467

> <Gold.Score>
     Score     S(PLP)   S(hbond)     S(cho)   S(metal)  DE(clash)   DE(tors)     intcor
     37.46     -37.97       0.00       0.00       0.00       0.00       0.44       0.36

> <Gold.PLP.Fitness>
37.4622

> <Gold.PLP.PLP>
-37.9713

> <Gold.PLP.part.hbond>
-1.0000

> <Gold.PLP.part.metal>
0.0000

> <Gold.PLP.part.buried>
-4.1977

> <Gold.PLP.part.nonpolar>
-32.7831

> <Gold.PLP.part.repulsive>
0.0621

> <Gold.PLP.ligand.clash>
0.0000

> <Gold.PLP.ligand.torsion>
0.4368

> <Gold.PLP.Chemscore.Hbond>
0.0000

> <Gold.PLP.Chemscore.CHOScore>
0.0000

> <Gold.PLP.Chemscore.Metal>
0.0000

> <Gold.PLP.Chemscore.Internal.Correction>
0.3645

