#       Name:                EN300-223795_i001
#       Creating user name   fsindt
#       Creation time:       Tue Feb 28 19:26:51 2023


#       File generated by GOLD software.
#

@<TRIPOS>MOLECULE
EN300-223795_i001|acide_2|mol2|6724|dock2
    14    14     1
SMALL
USER_CHARGES


@<TRIPOS>ATOM
      1 O1          -1.0943 -10.1829  10.4429 O.co2          1 <1>               -1.0000
      2 C2          -0.7985 -11.1267   9.7217 C.2            1 <1>                0.0000
      3 O3          -0.6691 -10.9587   8.5162 O.co2          1 <1>                0.0000
      4 C4          -0.5933 -12.4582  10.3031 C.2            1 <1>                0.0000
      5 C5          -0.9856 -12.8103  11.6491 C.2            1 <1>                0.0000
      6 C6          -0.7030 -14.0683  11.9613 C.2            1 <1>                0.0000
      7 S7           0.0626 -14.8846  10.6096 S.3            1 <1>                0.0000
      8 C8          -0.0182 -13.4934   9.6281 C.2            1 <1>                0.0000
      9 C9           0.4853 -13.4161   8.2099 C.3            1 <1>                0.0000
     10 F10          1.4000 -12.3636   8.0965 F              1 <1>                0.0000
     11 F11          1.1144 -14.6191   7.8720 F              1 <1>                0.0000
     12 F12         -0.5911 -13.1936   7.3444 F              1 <1>                0.0000
     13 H13         -1.4598 -12.1198  12.3308 H              1 <1>                0.0000
     14 H14         -0.9147 -14.5269  12.9160 H              1 <1>                0.0000
@<TRIPOS>BOND
    1    1    2 ar    
    2    2    3 ar    
    3    2    4 1     
    4    4    5 1     
    5    4    8 2     
    6    5    6 2     
    7    5   13 1     
    8    6    7 1     
    9    6   14 1     
   10    7    8 1     
   11    8    9 1     
   12    9   10 1     
   13    9   11 1     
   14    9   12 1     
@<TRIPOS>SUBSTRUCTURE
      1 ****           1
@<TRIPOS>COMMENT
> <Gold.Version>
2022.2.0

> <Gold.Id.Protein>
3pbl|protein|mol2

> <Gold.Protein.RotatedTorsions>
[ 1303 1298 1297 1294 ] final  101.64 input  179.99 | X-H torsion
[ 2461 2456 2455 2452 ] final -121.21 input   30.03 | X-H torsion
[ 2515 2510 2509 2506 ] final -135.51 input  -89.99 | X-H torsion
[ 3721 3712 3711 3710 ] final   83.18 input -179.91 | X-H torsion
[ 3841 3832 3831 3830 ] final   87.29 input -179.91 | X-H torsion
[ 3767 3762 3761 3758 ] final   32.77 input  -89.99 | X-H torsion
[ 2472 2467 2466 2463 ] final   41.06 input  -89.97 | X-H torsion

> <Gold.Protein.ActiveResidues>
 VAL82   VAL86   LEU89   PHE106  VAL107  ASP110  VAL111  MET112  CYS114  THR115 
 CYS181  SER182  ILE183  PHE188  VAL189  ILE190  SER192  SER193  SER196  TRP342 
 PHE345  PHE346  HIS349  VAL350  TYR365  THR369  GLY372  TYR373 

> <Gold.Protein.RotatedAtoms>
    4.5568  -10.0045    4.9121 H   0  0  0  0  0  0  0  0  0  0  0  0  # atno 1303 bound_to 1298
    0.5889   -9.1821    8.0655 H   0  0  0  0  0  0  0  0  0  0  0  0  # atno 2461 bound_to 2456
   -4.3357   -4.7993    7.6962 H   0  0  0  0  0  0  0  0  0  0  0  0  # atno 2472 bound_to 2467
    2.6272   -9.2551    5.2345 H   0  0  0  0  0  0  0  0  0  0  0  0  # atno 2515 bound_to 2510
   -2.7351  -17.6929   13.1510 H   0  0  0  0  0  0  0  0  0  0  0  0  # atno 3721 bound_to 3712
   -4.9460  -23.0835   10.0678 H   0  0  0  0  0  0  0  0  0  0  0  0  # atno 3767 bound_to 3762
    2.8129  -20.9312    9.2901 H   0  0  0  0  0  0  0  0  0  0  0  0  # atno 3841 bound_to 3832
    3.3310   -9.6120    3.9073 LP  0  0  0  0  0  0  0  0  0  0  0  0  # atno 4297 bound_to 1298
    4.4742   -8.5046    4.2720 LP  0  0  0  0  0  0  0  0  0  0  0  0  # atno 4298 bound_to 1298
    2.1264   -8.6313    8.0519 LP  0  0  0  0  0  0  0  0  0  0  0  0  # atno 4299 bound_to 2456
    1.0223   -7.9950    7.0308 LP  0  0  0  0  0  0  0  0  0  0  0  0  # atno 4300 bound_to 2456
    2.0286   -7.9289    5.9752 LP  0  0  0  0  0  0  0  0  0  0  0  0  # atno 4301 bound_to 2510
    2.6408   -7.8148    4.4656 LP  0  0  0  0  0  0  0  0  0  0  0  0  # atno 4302 bound_to 2510
   -2.8078  -17.7438   14.7541 LP  0  0  0  0  0  0  0  0  0  0  0  0  # atno 4306 bound_to 3712
   -3.5622  -16.5557   13.9259 LP  0  0  0  0  0  0  0  0  0  0  0  0  # atno 4307 bound_to 3712
    1.3927  -20.1898    9.1940 LP  0  0  0  0  0  0  0  0  0  0  0  0  # atno 4314 bound_to 3832
    2.5873  -19.8367    8.1381 LP  0  0  0  0  0  0  0  0  0  0  0  0  # atno 4315 bound_to 3832
   -5.2543  -21.9259   11.1776 LP  0  0  0  0  0  0  0  0  0  0  0  0  # atno 4318 bound_to 3762
   -3.9271  -22.8658   11.3253 LP  0  0  0  0  0  0  0  0  0  0  0  0  # atno 4319 bound_to 3762
   -3.9047   -5.2904    9.1927 LP  0  0  0  0  0  0  0  0  0  0  0  0  # atno 4320 bound_to 2467
   -5.4765   -5.3038    8.7500 LP  0  0  0  0  0  0  0  0  0  0  0  0  # atno 4321 bound_to 2467

> <Gold.Score>
     Score     S(PLP)   S(hbond)     S(cho)   S(metal)  DE(clash)   DE(tors)     intcor
     36.55     -35.03       0.70       0.00       0.00       0.64       0.15       0.36

> <Gold.PLP.Fitness>
36.5481

> <Gold.PLP.PLP>
-35.0263

> <Gold.PLP.part.hbond>
-0.5967

> <Gold.PLP.part.metal>
0.0000

> <Gold.PLP.part.buried>
-3.5532

> <Gold.PLP.part.nonpolar>
-31.3224

> <Gold.PLP.part.repulsive>
0.0542

> <Gold.PLP.ligand.clash>
0.6445

> <Gold.PLP.ligand.torsion>
0.1472

> <Gold.PLP.Chemscore.Hbond>
0.6988

> <Gold.PLP.Chemscore.CHOScore>
0.0000

> <Gold.PLP.Chemscore.Metal>
0.0000

> <Gold.Chemscore.Hbonds>
donor molecule, donor type, donor heavy atom, donor atom, acceptor molecule, acceptor atom, score
      P1  H  2456  2461       L1     3  0.70

> <Gold.PLP.Chemscore.Internal.Correction>
0.3645

