#       Name:                EN300-223795_i001
#       Creating user name   fsindt
#       Creation time:       Tue Feb 28 19:26:59 2023


#       File generated by GOLD software.
#

@<TRIPOS>MOLECULE
EN300-223795_i001|acide_2|mol2|6724|dock16
    14    14     1
SMALL
USER_CHARGES


@<TRIPOS>ATOM
      1 O1          -0.7894 -18.8669  15.0599 O.co2          1 <1>               -1.0000
      2 C2          -0.1114 -19.2623  14.1205 C.2            1 <1>                0.0000
      3 O3           0.6938 -20.1692  14.2860 O.co2          1 <1>                0.0000
      4 C4          -0.2681 -18.6531  12.7949 C.2            1 <1>                0.0000
      5 C5          -0.6055 -19.4038  11.6066 C.2            1 <1>                0.0000
      6 C6          -0.6948 -18.6469  10.5207 C.2            1 <1>                0.0000
      7 S7          -0.3668 -16.9671  10.9084 S.3            1 <1>                0.0000
      8 C8          -0.1163 -17.3195  12.5570 C.2            1 <1>                0.0000
      9 C9           0.2336 -16.2971  13.6073 C.3            1 <1>                0.0000
     10 F10          1.5163 -16.5566  14.1017 F              1 <1>                0.0000
     11 F11          0.2017 -15.0179  13.0418 F              1 <1>                0.0000
     12 F12         -0.6926 -16.3676  14.6535 F              1 <1>                0.0000
     13 H13         -0.7679 -20.4715  11.6031 H              1 <1>                0.0000
     14 H14         -0.9359 -19.0140   9.5340 H              1 <1>                0.0000
@<TRIPOS>BOND
    1    1    2 ar    
    2    2    3 ar    
    3    2    4 1     
    4    4    5 1     
    5    4    8 2     
    6    5    6 2     
    7    5   13 1     
    8    6    7 1     
    9    6   14 1     
   10    7    8 1     
   11    8    9 1     
   12    9   10 1     
   13    9   11 1     
   14    9   12 1     
@<TRIPOS>SUBSTRUCTURE
      1 ****           1
@<TRIPOS>COMMENT
> <Gold.Version>
2022.2.0

> <Gold.Id.Protein>
3pbl|protein|mol2

> <Gold.Protein.RotatedTorsions>
[ 1303 1298 1297 1294 ] final  117.55 input  179.99 | X-H torsion
[ 2461 2456 2455 2452 ] final   74.81 input   30.03 | X-H torsion
[ 2515 2510 2509 2506 ] final   69.95 input  -89.99 | X-H torsion
[ 3721 3712 3711 3710 ] final  -10.45 input -179.91 | X-H torsion
[ 3841 3832 3831 3830 ] final   53.01 input -179.91 | X-H torsion
[ 3767 3762 3761 3758 ] final  106.05 input  -89.99 | X-H torsion
[ 2472 2467 2466 2463 ] final -103.89 input  -89.97 | X-H torsion

> <Gold.Protein.ActiveResidues>
 VAL82   VAL86   LEU89   PHE106  VAL107  ASP110  VAL111  MET112  CYS114  THR115 
 CYS181  SER182  ILE183  PHE188  VAL189  ILE190  SER192  SER193  SER196  TRP342 
 PHE345  PHE346  HIS349  VAL350  TYR365  THR369  GLY372  TYR373 

> <Gold.Protein.RotatedAtoms>
    4.7210   -9.8052    4.9488 H   0  0  0  0  0  0  0  0  0  0  0  0  # atno 1303 bound_to 1298
    2.0534   -8.1473    7.5430 H   0  0  0  0  0  0  0  0  0  0  0  0  # atno 2461 bound_to 2456
   -4.2448   -5.3993    9.3888 H   0  0  0  0  0  0  0  0  0  0  0  0  # atno 2472 bound_to 2467
    2.1045   -7.5289    5.5913 H   0  0  0  0  0  0  0  0  0  0  0  0  # atno 2515 bound_to 2510
   -2.5157  -17.8850   14.3800 H   0  0  0  0  0  0  0  0  0  0  0  0  # atno 3721 bound_to 3712
   -4.0431  -23.2765   10.7113 H   0  0  0  0  0  0  0  0  0  0  0  0  # atno 3767 bound_to 3762
    2.3754  -20.9215    9.5524 H   0  0  0  0  0  0  0  0  0  0  0  0  # atno 3841 bound_to 3832
    3.3743   -9.8403    4.0260 LP  0  0  0  0  0  0  0  0  0  0  0  0  # atno 4297 bound_to 1298
    4.2667   -8.4757    4.1166 LP  0  0  0  0  0  0  0  0  0  0  0  0  # atno 4298 bound_to 1298
    0.4687   -8.3861    7.2284 LP  0  0  0  0  0  0  0  0  0  0  0  0  # atno 4299 bound_to 2456
    1.2160   -9.2746    8.3768 LP  0  0  0  0  0  0  0  0  0  0  0  0  # atno 4300 bound_to 2456
    2.8000   -8.3403    4.3570 LP  0  0  0  0  0  0  0  0  0  0  0  0  # atno 4301 bound_to 2510
    2.3924   -9.1303    5.7268 LP  0  0  0  0  0  0  0  0  0  0  0  0  # atno 4302 bound_to 2510
   -3.4947  -16.6148   14.3038 LP  0  0  0  0  0  0  0  0  0  0  0  0  # atno 4306 bound_to 3712
   -3.1285  -17.4629   12.9573 LP  0  0  0  0  0  0  0  0  0  0  0  0  # atno 4307 bound_to 3712
    1.5018  -19.8126    8.7887 LP  0  0  0  0  0  0  0  0  0  0  0  0  # atno 4314 bound_to 3832
    2.9836  -20.2251    8.2405 LP  0  0  0  0  0  0  0  0  0  0  0  0  # atno 4315 bound_to 3832
   -5.4296  -22.5446   10.2544 LP  0  0  0  0  0  0  0  0  0  0  0  0  # atno 4318 bound_to 3762
   -4.6543  -22.0542   11.6053 LP  0  0  0  0  0  0  0  0  0  0  0  0  # atno 4319 bound_to 3762
   -5.4971   -5.1679    8.3668 LP  0  0  0  0  0  0  0  0  0  0  0  0  # atno 4320 bound_to 2467
   -3.9750   -4.8264    7.8837 LP  0  0  0  0  0  0  0  0  0  0  0  0  # atno 4321 bound_to 2467

> <Gold.Score>
     Score     S(PLP)   S(hbond)     S(cho)   S(metal)  DE(clash)   DE(tors)     intcor
     28.23     -27.11       1.00       0.00       0.00       0.00       1.12       0.36

> <Gold.PLP.Fitness>
28.2279

> <Gold.PLP.PLP>
-27.1084

> <Gold.PLP.part.hbond>
-1.0000

> <Gold.PLP.part.metal>
0.0000

> <Gold.PLP.part.buried>
-1.5673

> <Gold.PLP.part.nonpolar>
-24.7263

> <Gold.PLP.part.repulsive>
0.0352

> <Gold.PLP.ligand.clash>
0.0000

> <Gold.PLP.ligand.torsion>
1.1225

> <Gold.PLP.Chemscore.Hbond>
1.0000

> <Gold.PLP.Chemscore.CHOScore>
0.0000

> <Gold.PLP.Chemscore.Metal>
0.0000

> <Gold.Chemscore.Hbonds>
donor molecule, donor type, donor heavy atom, donor atom, acceptor molecule, acceptor atom, score
      P1  H  3712  3721       L1     1  1.00

> <Gold.PLP.Chemscore.Internal.Correction>
0.3645

