#       Name:                EN300-223795_i001
#       Creating user name   fsindt
#       Creation time:       Tue Feb 28 19:27:00 2023


#       File generated by GOLD software.
#

@<TRIPOS>MOLECULE
EN300-223795_i001|acide_2|mol2|6724|dock18
    14    14     1
SMALL
USER_CHARGES


@<TRIPOS>ATOM
      1 O1           0.0605 -10.8029   9.0460 O.co2          1 <1>               -1.0000
      2 C2           0.1299 -11.9473   8.6171 C.2            1 <1>                0.0000
      3 O3           0.3263 -12.1432   7.4249 O.co2          1 <1>                0.0000
      4 C4          -0.0164 -13.0841   9.5330 C.2            1 <1>                0.0000
      5 C5          -0.3123 -12.9417  10.9408 C.2            1 <1>                0.0000
      6 C6          -0.3995 -14.1040  11.5745 C.2            1 <1>                0.0000
      7 S7          -0.1208 -15.4357  10.4662 S.3            1 <1>                0.0000
      8 C8           0.1067 -14.3846   9.1438 C.2            1 <1>                0.0000
      9 C9           0.4109 -14.8320   7.7373 C.3            1 <1>                0.0000
     10 F10          0.4942 -16.2280   7.6997 F              1 <1>                0.0000
     11 F11         -0.6083 -14.4024   6.8806 F              1 <1>                0.0000
     12 F12          1.6292 -14.2808   7.3259 F              1 <1>                0.0000
     13 H13         -0.4480 -11.9870  11.4269 H              1 <1>                0.0000
     14 H14         -0.6125 -14.2152  12.6274 H              1 <1>                0.0000
@<TRIPOS>BOND
    1    1    2 ar    
    2    2    3 ar    
    3    2    4 1     
    4    4    5 1     
    5    4    8 2     
    6    5    6 2     
    7    5   13 1     
    8    6    7 1     
    9    6   14 1     
   10    7    8 1     
   11    8    9 1     
   12    9   10 1     
   13    9   11 1     
   14    9   12 1     
@<TRIPOS>SUBSTRUCTURE
      1 ****           1
@<TRIPOS>COMMENT
> <Gold.Version>
2022.2.0

> <Gold.Id.Protein>
3pbl|protein|mol2

> <Gold.Protein.RotatedTorsions>
[ 1303 1298 1297 1294 ] final   66.42 input  179.99 | X-H torsion
[ 2461 2456 2455 2452 ] final -137.07 input   30.03 | X-H torsion
[ 2515 2510 2509 2506 ] final -126.21 input  -89.99 | X-H torsion
[ 3721 3712 3711 3710 ] final   27.23 input -179.91 | X-H torsion
[ 3841 3832 3831 3830 ] final    0.44 input -179.91 | X-H torsion
[ 3767 3762 3761 3758 ] final   52.98 input  -89.99 | X-H torsion
[ 2472 2467 2466 2463 ] final -153.53 input  -89.97 | X-H torsion

> <Gold.Protein.ActiveResidues>
 VAL82   VAL86   LEU89   PHE106  VAL107  ASP110  VAL111  MET112  CYS114  THR115 
 CYS181  SER182  ILE183  PHE188  VAL189  ILE190  SER192  SER193  SER196  TRP342 
 PHE345  PHE346  HIS349  VAL350  TYR365  THR369  GLY372  TYR373 

> <Gold.Protein.RotatedAtoms>
    4.0964  -10.2577    4.6904 H   0  0  0  0  0  0  0  0  0  0  0  0  # atno 1303 bound_to 1298
    0.7882   -9.2604    8.2133 H   0  0  0  0  0  0  0  0  0  0  0  0  # atno 2461 bound_to 2456
   -5.0297   -5.4552    9.3044 H   0  0  0  0  0  0  0  0  0  0  0  0  # atno 2472 bound_to 2467
    2.6818   -9.2323    5.0934 H   0  0  0  0  0  0  0  0  0  0  0  0  # atno 2515 bound_to 2510
   -2.4780  -18.0343   13.8421 H   0  0  0  0  0  0  0  0  0  0  0  0  # atno 3721 bound_to 3712
   -4.6667  -23.2428   10.1458 H   0  0  0  0  0  0  0  0  0  0  0  0  # atno 3767 bound_to 3762
    1.7405  -20.4917    9.5606 H   0  0  0  0  0  0  0  0  0  0  0  0  # atno 3841 bound_to 3832
    3.4480   -9.0689    3.7778 LP  0  0  0  0  0  0  0  0  0  0  0  0  # atno 4297 bound_to 1298
    4.8178   -8.7944    4.6232 LP  0  0  0  0  0  0  0  0  0  0  0  0  # atno 4298 bound_to 1298
    2.1612   -8.4429    7.8759 LP  0  0  0  0  0  0  0  0  0  0  0  0  # atno 4299 bound_to 2456
    0.7882   -8.1050    7.0590 LP  0  0  0  0  0  0  0  0  0  0  0  0  # atno 4300 bound_to 2456
    2.0326   -8.0687    6.0371 LP  0  0  0  0  0  0  0  0  0  0  0  0  # atno 4301 bound_to 2510
    2.5822   -7.6977    4.5448 LP  0  0  0  0  0  0  0  0  0  0  0  0  # atno 4302 bound_to 2510
   -3.2544  -16.9645   14.7536 LP  0  0  0  0  0  0  0  0  0  0  0  0  # atno 4306 bound_to 3712
   -3.4124  -16.9409   13.1285 LP  0  0  0  0  0  0  0  0  0  0  0  0  # atno 4307 bound_to 3712
    2.1380  -19.6526    8.2514 LP  0  0  0  0  0  0  0  0  0  0  0  0  # atno 4314 bound_to 3832
    3.0807  -20.8817    8.7682 LP  0  0  0  0  0  0  0  0  0  0  0  0  # atno 4315 bound_to 3832
   -5.4240  -22.0125   10.9072 LP  0  0  0  0  0  0  0  0  0  0  0  0  # atno 4318 bound_to 3762
   -4.0366  -22.6200   11.5177 LP  0  0  0  0  0  0  0  0  0  0  0  0  # atno 4319 bound_to 3762
   -5.0526   -4.9032    7.7679 LP  0  0  0  0  0  0  0  0  0  0  0  0  # atno 4320 bound_to 2467
   -3.6347   -5.0352    8.5670 LP  0  0  0  0  0  0  0  0  0  0  0  0  # atno 4321 bound_to 2467

> <Gold.Score>
     Score     S(PLP)   S(hbond)     S(cho)   S(metal)  DE(clash)   DE(tors)     intcor
     34.99     -33.15       1.00       0.00       0.00       1.51       0.01       0.36

> <Gold.PLP.Fitness>
34.9918

> <Gold.PLP.PLP>
-33.1498

> <Gold.PLP.part.hbond>
-1.0000

> <Gold.PLP.part.metal>
0.0000

> <Gold.PLP.part.buried>
-1.0644

> <Gold.PLP.part.nonpolar>
-32.0069

> <Gold.PLP.part.repulsive>
0.0000

> <Gold.PLP.ligand.clash>
1.5063

> <Gold.PLP.ligand.torsion>
0.0081

> <Gold.PLP.Chemscore.Hbond>
1.0000

> <Gold.PLP.Chemscore.CHOScore>
0.0000

> <Gold.PLP.Chemscore.Metal>
0.0000

> <Gold.Chemscore.Hbonds>
donor molecule, donor type, donor heavy atom, donor atom, acceptor molecule, acceptor atom, score
      P1  H  2456  2461       L1     1  1.00

> <Gold.PLP.Chemscore.Internal.Correction>
0.3645

