#       Name:                EN300-223795_i001
#       Creating user name   fsindt
#       Creation time:       Tue Feb 28 19:26:58 2023


#       File generated by GOLD software.
#

@<TRIPOS>MOLECULE
EN300-223795_i001|acide_2|mol2|6724|dock15
    14    14     1
SMALL
USER_CHARGES


@<TRIPOS>ATOM
      1 O1          -0.3185 -16.0569  14.9548 O.co2          1 <1>               -1.0000
      2 C2          -0.0612 -17.2185  14.6669 C.2            1 <1>                0.0000
      3 O3          -0.7957 -18.1205  15.0479 O.co2          1 <1>                0.0000
      4 C4           1.1243 -17.5291  13.8601 C.2            1 <1>                0.0000
      5 C5           2.2212 -16.6079  13.6662 C.2            1 <1>                0.0000
      6 C6           3.1857 -17.1008  12.9000 C.2            1 <1>                0.0000
      7 S7           2.7899 -18.7287  12.3775 S.3            1 <1>                0.0000
      8 C8           1.3084 -18.7184  13.2202 C.2            1 <1>                0.0000
      9 C9           0.3311 -19.8652  13.2472 C.3            1 <1>                0.0000
     10 F10         -0.9215 -19.4209  12.8106 F              1 <1>                0.0000
     11 F11          0.7847 -20.8845  12.4030 F              1 <1>                0.0000
     12 F12          0.2230 -20.3551  14.5532 F              1 <1>                0.0000
     13 H13          2.2523 -15.6195  14.1002 H              1 <1>                0.0000
     14 H14          4.0896 -16.5729  12.6344 H              1 <1>                0.0000
@<TRIPOS>BOND
    1    1    2 ar    
    2    2    3 ar    
    3    2    4 1     
    4    4    5 1     
    5    4    8 2     
    6    5    6 2     
    7    5   13 1     
    8    6    7 1     
    9    6   14 1     
   10    7    8 1     
   11    8    9 1     
   12    9   10 1     
   13    9   11 1     
   14    9   12 1     
@<TRIPOS>SUBSTRUCTURE
      1 ****           1
@<TRIPOS>COMMENT
> <Gold.Version>
2022.2.0

> <Gold.Id.Protein>
3pbl|protein|mol2

> <Gold.Protein.RotatedTorsions>
[ 1303 1298 1297 1294 ] final  146.12 input  179.99 | X-H torsion
[ 2461 2456 2455 2452 ] final  118.87 input   30.03 | X-H torsion
[ 2515 2510 2509 2506 ] final   85.52 input  -89.99 | X-H torsion
[ 3721 3712 3711 3710 ] final   -9.73 input -179.91 | X-H torsion
[ 3841 3832 3831 3830 ] final   15.45 input -179.91 | X-H torsion
[ 3767 3762 3761 3758 ] final   24.72 input  -89.99 | X-H torsion
[ 2472 2467 2466 2463 ] final  138.75 input  -89.97 | X-H torsion

> <Gold.Protein.ActiveResidues>
 VAL82   VAL86   LEU89   PHE106  VAL107  ASP110  VAL111  MET112  CYS114  THR115 
 CYS181  SER182  ILE183  PHE188  VAL189  ILE190  SER192  SER193  SER196  TRP342 
 PHE345  PHE346  HIS349  VAL350  TYR365  THR369  GLY372  TYR373 

> <Gold.Protein.RotatedAtoms>
    4.8942   -9.3759    4.9026 H   0  0  0  0  0  0  0  0  0  0  0  0  # atno 1303 bound_to 1298
    2.1263   -8.6322    8.0528 H   0  0  0  0  0  0  0  0  0  0  0  0  # atno 2461 bound_to 2456
   -5.5032   -5.1838    8.4066 H   0  0  0  0  0  0  0  0  0  0  0  0  # atno 2472 bound_to 2467
    2.0534   -7.6808    5.7900 H   0  0  0  0  0  0  0  0  0  0  0  0  # atno 2515 bound_to 2510
   -2.5133  -17.8907   14.3710 H   0  0  0  0  0  0  0  0  0  0  0  0  # atno 3721 bound_to 3712
   -5.0511  -23.0029   10.0637 H   0  0  0  0  0  0  0  0  0  0  0  0  # atno 3767 bound_to 3762
    1.8907  -20.6528    9.6119 H   0  0  0  0  0  0  0  0  0  0  0  0  # atno 3841 bound_to 3832
    3.5907  -10.1506    4.2968 LP  0  0  0  0  0  0  0  0  0  0  0  0  # atno 4297 bound_to 1298
    3.8770   -8.5948    3.8920 LP  0  0  0  0  0  0  0  0  0  0  0  0  # atno 4298 bound_to 1298
    1.0234   -7.9946    7.0308 LP  0  0  0  0  0  0  0  0  0  0  0  0  # atno 4299 bound_to 2456
    0.5883   -9.1814    8.0646 LP  0  0  0  0  0  0  0  0  0  0  0  0  # atno 4300 bound_to 2456
    2.7418   -8.0919    4.3678 LP  0  0  0  0  0  0  0  0  0  0  0  0  # atno 4301 bound_to 2510
    2.5017   -9.2268    5.5171 LP  0  0  0  0  0  0  0  0  0  0  0  0  # atno 4302 bound_to 2510
   -3.4915  -16.6187   14.3147 LP  0  0  0  0  0  0  0  0  0  0  0  0  # atno 4306 bound_to 3712
   -3.1345  -17.4525   12.9568 LP  0  0  0  0  0  0  0  0  0  0  0  0  # atno 4307 bound_to 3712
    1.9192  -19.6350    8.3712 LP  0  0  0  0  0  0  0  0  0  0  0  0  # atno 4314 bound_to 3832
    3.1262  -20.7131    8.5892 LP  0  0  0  0  0  0  0  0  0  0  0  0  # atno 4315 bound_to 3832
   -5.1665  -21.9152   11.2762 LP  0  0  0  0  0  0  0  0  0  0  0  0  # atno 4318 bound_to 3762
   -3.9099  -22.9571   11.2309 LP  0  0  0  0  0  0  0  0  0  0  0  0  # atno 4319 bound_to 3762
   -4.0091   -4.8205    7.8571 LP  0  0  0  0  0  0  0  0  0  0  0  0  # atno 4320 bound_to 2467
   -4.2048   -5.3892    9.3753 LP  0  0  0  0  0  0  0  0  0  0  0  0  # atno 4321 bound_to 2467

> <Gold.Score>
     Score     S(PLP)   S(hbond)     S(cho)   S(metal)  DE(clash)   DE(tors)     intcor
     31.48     -25.53       2.00       0.00       0.00       0.04       0.19       0.36

> <Gold.PLP.Fitness>
31.4779

> <Gold.PLP.PLP>
-25.5307

> <Gold.PLP.part.hbond>
-2.0000

> <Gold.PLP.part.metal>
0.0000

> <Gold.PLP.part.buried>
-0.6151

> <Gold.PLP.part.nonpolar>
-23.7649

> <Gold.PLP.part.repulsive>
0.1015

> <Gold.PLP.ligand.clash>
0.0395

> <Gold.PLP.ligand.torsion>
0.1889

> <Gold.PLP.Chemscore.Hbond>
2.0000

> <Gold.PLP.Chemscore.CHOScore>
0.0000

> <Gold.PLP.Chemscore.Metal>
0.0000

> <Gold.Chemscore.Hbonds>
donor molecule, donor type, donor heavy atom, donor atom, acceptor molecule, acceptor atom, score
      P1  H  2305  2313       L1     1  1.00
      P1  H  3712  3721       L1     3  1.00

> <Gold.PLP.Chemscore.Internal.Correction>
0.3645

