#       Name:                EN300-223795_i001
#       Creating user name   fsindt
#       Creation time:       Tue Feb 28 19:26:53 2023


#       File generated by GOLD software.
#

@<TRIPOS>MOLECULE
EN300-223795_i001|acide_2|mol2|6724|dock6
    14    14     1
SMALL
USER_CHARGES


@<TRIPOS>ATOM
      1 O1          -1.0523 -17.8834  11.8907 O.co2          1 <1>               -1.0000
      2 C2          -0.1310 -18.6893  11.8889 C.2            1 <1>                0.0000
      3 O3           0.2002 -19.2379  10.8461 O.co2          1 <1>                0.0000
      4 C4           0.5803 -18.9932  13.1358 C.2            1 <1>                0.0000
      5 C5           1.2511 -17.9935  13.9358 C.2            1 <1>                0.0000
      6 C6           1.8272 -18.4953  15.0204 C.2            1 <1>                0.0000
      7 S7           1.5717 -20.2292  15.1109 S.3            1 <1>                0.0000
      8 C8           0.6724 -20.2468  13.6631 C.2            1 <1>                0.0000
      9 C9           0.0684 -21.4816  13.0457 C.3            1 <1>                0.0000
     10 F10         -1.3262 -21.3709  13.0504 F              1 <1>                0.0000
     11 F11          0.5213 -21.6137  11.7286 F              1 <1>                0.0000
     12 F12          0.4494 -22.6066  13.7848 F              1 <1>                0.0000
     13 H13          1.2806 -16.9454  13.6770 H              1 <1>                0.0000
     14 H14          2.3776 -17.9166  15.7474 H              1 <1>                0.0000
@<TRIPOS>BOND
    1    1    2 ar    
    2    2    3 ar    
    3    2    4 1     
    4    4    5 1     
    5    4    8 2     
    6    5    6 2     
    7    5   13 1     
    8    6    7 1     
    9    6   14 1     
   10    7    8 1     
   11    8    9 1     
   12    9   10 1     
   13    9   11 1     
   14    9   12 1     
@<TRIPOS>SUBSTRUCTURE
      1 ****           1
@<TRIPOS>COMMENT
> <Gold.Version>
2022.2.0

> <Gold.Id.Protein>
3pbl|protein|mol2

> <Gold.Protein.RotatedTorsions>
[ 1303 1298 1297 1294 ] final -120.66 input  179.99 | X-H torsion
[ 2461 2456 2455 2452 ] final  -73.36 input   30.03 | X-H torsion
[ 2515 2510 2509 2506 ] final    2.63 input  -89.99 | X-H torsion
[ 3721 3712 3711 3710 ] final   75.29 input -179.91 | X-H torsion
[ 3841 3832 3831 3830 ] final  -31.43 input -179.91 | X-H torsion
[ 3767 3762 3761 3758 ] final -140.51 input  -89.99 | X-H torsion
[ 2472 2467 2466 2463 ] final   38.16 input  -89.97 | X-H torsion

> <Gold.Protein.ActiveResidues>
 VAL82   VAL86   LEU89   PHE106  VAL107  ASP110  VAL111  MET112  CYS114  THR115 
 CYS181  SER182  ILE183  PHE188  VAL189  ILE190  SER192  SER193  SER196  TRP342 
 PHE345  PHE346  HIS349  VAL350  TYR365  THR369  GLY372  TYR373 

> <Gold.Protein.RotatedAtoms>
    4.2420   -8.4769    4.1005 H   0  0  0  0  0  0  0  0  0  0  0  0  # atno 1303 bound_to 1298
    0.3323   -8.7190    7.5133 H   0  0  0  0  0  0  0  0  0  0  0  0  # atno 2461 bound_to 2456
   -4.2901   -4.7993    7.7102 H   0  0  0  0  0  0  0  0  0  0  0  0  # atno 2472 bound_to 2467
    2.5230   -7.6024    4.6368 H   0  0  0  0  0  0  0  0  0  0  0  0  # atno 2515 bound_to 2510
   -2.6818  -17.7755   13.2183 H   0  0  0  0  0  0  0  0  0  0  0  0  # atno 3721 bound_to 3712
   -4.5629  -22.1055   11.6303 H   0  0  0  0  0  0  0  0  0  0  0  0  # atno 3767 bound_to 3762
    1.5682  -20.1141    9.3292 H   0  0  0  0  0  0  0  0  0  0  0  0  # atno 3841 bound_to 3832
    4.7372   -9.7806    4.9499 LP  0  0  0  0  0  0  0  0  0  0  0  0  # atno 4297 bound_to 1298
    3.3829   -9.8642    4.0413 LP  0  0  0  0  0  0  0  0  0  0  0  0  # atno 4298 bound_to 1298
    1.6513   -9.1300    8.3843 LP  0  0  0  0  0  0  0  0  0  0  0  0  # atno 4299 bound_to 2456
    1.7539   -7.9592    7.2505 LP  0  0  0  0  0  0  0  0  0  0  0  0  # atno 4300 bound_to 2456
    2.7275   -9.1891    4.9626 LP  0  0  0  0  0  0  0  0  0  0  0  0  # atno 4301 bound_to 2510
    2.0462   -8.2080    6.0761 LP  0  0  0  0  0  0  0  0  0  0  0  0  # atno 4302 bound_to 2510
   -2.8640  -17.6375   14.8075 LP  0  0  0  0  0  0  0  0  0  0  0  0  # atno 4306 bound_to 3712
   -3.5675  -16.5668   13.7949 LP  0  0  0  0  0  0  0  0  0  0  0  0  # atno 4307 bound_to 3712
    2.6108  -19.8521    8.1374 LP  0  0  0  0  0  0  0  0  0  0  0  0  # atno 4314 bound_to 3832
    2.8071  -21.1184    9.1496 LP  0  0  0  0  0  0  0  0  0  0  0  0  # atno 4315 bound_to 3832
   -4.0991  -23.3049   10.6237 LP  0  0  0  0  0  0  0  0  0  0  0  0  # atno 4318 bound_to 3762
   -5.4653  -22.4644   10.3174 LP  0  0  0  0  0  0  0  0  0  0  0  0  # atno 4319 bound_to 3762
   -3.9388   -5.3049    9.2226 LP  0  0  0  0  0  0  0  0  0  0  0  0  # atno 4320 bound_to 2467
   -5.4879   -5.2892    8.7061 LP  0  0  0  0  0  0  0  0  0  0  0  0  # atno 4321 bound_to 2467

> <Gold.Score>
     Score     S(PLP)   S(hbond)     S(cho)   S(metal)  DE(clash)   DE(tors)     intcor
     31.13     -25.55       1.69       0.82       0.00       0.00       1.15       0.36

> <Gold.PLP.Fitness>
31.1286

> <Gold.PLP.PLP>
-25.5494

> <Gold.PLP.part.hbond>
-1.6001

> <Gold.PLP.part.metal>
0.0000

> <Gold.PLP.part.buried>
-2.8895

> <Gold.PLP.part.nonpolar>
-22.2709

> <Gold.PLP.part.repulsive>
0.1650

> <Gold.PLP.ligand.clash>
0.0000

> <Gold.PLP.ligand.torsion>
1.1534

> <Gold.PLP.Chemscore.Hbond>
1.6900

> <Gold.PLP.Chemscore.CHOScore>
0.8172

> <Gold.PLP.Chemscore.Metal>
0.0000

> <Gold.Chemscore.Hbonds>
donor molecule, donor type, donor heavy atom, donor atom, acceptor molecule, acceptor atom, score
      P1  H  3712  3721       L1     1  0.99
      P1  H  3832  3841       L1     3  0.70
      L1  C     6    14       P1  2287  0.82

> <Gold.PLP.Chemscore.Internal.Correction>
0.3645

