#       Name:                EN300-223795_i001
#       Creating user name   fsindt
#       Creation time:       Tue Feb 28 19:26:56 2023


#       File generated by GOLD software.
#

@<TRIPOS>MOLECULE
EN300-223795_i001|acide_2|mol2|6724|dock11
    14    14     1
SMALL
USER_CHARGES


@<TRIPOS>ATOM
      1 O1          -0.9197 -19.0954  14.7126 O.co2          1 <1>               -1.0000
      2 C2          -1.0077 -20.3139  14.6369 C.2            1 <1>                0.0000
      3 O3          -1.1945 -20.8477  13.5514 O.co2          1 <1>                0.0000
      4 C4          -0.8831 -21.1350  15.8465 C.2            1 <1>                0.0000
      5 C5          -1.0226 -20.6092  17.1857 C.2            1 <1>                0.0000
      6 C6          -0.8707 -21.5327  18.1260 C.2            1 <1>                0.0000
      7 S7          -0.5474 -23.1006  17.4071 S.3            1 <1>                0.0000
      8 C8          -0.6297 -22.4741  15.8241 C.2            1 <1>                0.0000
      9 C9          -0.4397 -23.2885  14.5703 C.3            1 <1>                0.0000
     10 F10         -0.0984 -24.6009  14.9140 F              1 <1>                0.0000
     11 F11         -1.6286 -23.2936  13.8330 F              1 <1>                0.0000
     12 F12          0.5843 -22.7267  13.8002 F              1 <1>                0.0000
     13 H13         -1.2289 -19.5708  17.3990 H              1 <1>                0.0000
     14 H14         -0.9368 -21.3454  19.1875 H              1 <1>                0.0000
@<TRIPOS>BOND
    1    1    2 ar    
    2    2    3 ar    
    3    2    4 1     
    4    4    5 1     
    5    4    8 2     
    6    5    6 2     
    7    5   13 1     
    8    6    7 1     
    9    6   14 1     
   10    7    8 1     
   11    8    9 1     
   12    9   10 1     
   13    9   11 1     
   14    9   12 1     
@<TRIPOS>SUBSTRUCTURE
      1 ****           1
@<TRIPOS>COMMENT
> <Gold.Version>
2022.2.0

> <Gold.Id.Protein>
3pbl|protein|mol2

> <Gold.Protein.RotatedTorsions>
[ 1303 1298 1297 1294 ] final  -17.32 input  179.99 | X-H torsion
[ 2461 2456 2455 2452 ] final  158.63 input   30.03 | X-H torsion
[ 2515 2510 2509 2506 ] final -166.97 input  -89.99 | X-H torsion
[ 3721 3712 3711 3710 ] final   20.03 input -179.91 | X-H torsion
[ 3841 3832 3831 3830 ] final  -23.96 input -179.91 | X-H torsion
[ 3767 3762 3761 3758 ] final  138.51 input  -89.99 | X-H torsion
[ 2472 2467 2466 2463 ] final   20.68 input  -89.97 | X-H torsion

> <Gold.Protein.ActiveResidues>
 VAL82   VAL86   LEU89   PHE106  VAL107  ASP110  VAL111  MET112  CYS114  THR115 
 CYS181  SER182  ILE183  PHE188  VAL189  ILE190  SER192  SER193  SER196  TRP342 
 PHE345  PHE346  HIS349  VAL350  TYR365  THR369  GLY372  TYR373 

> <Gold.Protein.RotatedAtoms>
    3.3319   -9.6275    3.9146 H   0  0  0  0  0  0  0  0  0  0  0  0  # atno 1303 bound_to 1298
    1.7620   -9.0637    8.3568 H   0  0  0  0  0  0  0  0  0  0  0  0  # atno 2461 bound_to 2456
   -4.0344   -4.8174    7.8385 H   0  0  0  0  0  0  0  0  0  0  0  0  # atno 2472 bound_to 2467
    2.4142   -9.1539    5.6878 H   0  0  0  0  0  0  0  0  0  0  0  0  # atno 2515 bound_to 2510
   -2.4709  -18.0299   13.9505 H   0  0  0  0  0  0  0  0  0  0  0  0  # atno 3721 bound_to 3712
   -3.9069  -23.0227   11.1527 H   0  0  0  0  0  0  0  0  0  0  0  0  # atno 3767 bound_to 3762
    1.5883  -20.2027    9.3961 H   0  0  0  0  0  0  0  0  0  0  0  0  # atno 3841 bound_to 3832
    4.4615   -8.5006    4.2616 LP  0  0  0  0  0  0  0  0  0  0  0  0  # atno 4297 bound_to 1298
    4.5691   -9.9931    4.9156 LP  0  0  0  0  0  0  0  0  0  0  0  0  # atno 4298 bound_to 1298
    1.6427   -7.9324    7.1849 LP  0  0  0  0  0  0  0  0  0  0  0  0  # atno 4299 bound_to 2456
    0.3332   -8.8121    7.6066 LP  0  0  0  0  0  0  0  0  0  0  0  0  # atno 4300 bound_to 2456
    2.0921   -7.5542    5.6332 LP  0  0  0  0  0  0  0  0  0  0  0  0  # atno 4301 bound_to 2510
    2.7905   -8.2906    4.3540 LP  0  0  0  0  0  0  0  0  0  0  0  0  # atno 4302 bound_to 2510
   -3.3094  -16.8781   14.6908 LP  0  0  0  0  0  0  0  0  0  0  0  0  # atno 4306 bound_to 3712
   -3.3656  -17.0323   13.0661 LP  0  0  0  0  0  0  0  0  0  0  0  0  # atno 4307 bound_to 3712
    2.5044  -19.7874    8.1453 LP  0  0  0  0  0  0  0  0  0  0  0  0  # atno 4314 bound_to 3832
    2.8902  -21.0808    9.0644 LP  0  0  0  0  0  0  0  0  0  0  0  0  # atno 4315 bound_to 3832
   -5.1278  -22.9361   10.0717 LP  0  0  0  0  0  0  0  0  0  0  0  0  # atno 4318 bound_to 3762
   -5.0924  -21.9164   11.3467 LP  0  0  0  0  0  0  0  0  0  0  0  0  # atno 4319 bound_to 3762
   -4.1759   -5.3820    9.3641 LP  0  0  0  0  0  0  0  0  0  0  0  0  # atno 4320 bound_to 2467
   -5.5065   -5.1941    8.4364 LP  0  0  0  0  0  0  0  0  0  0  0  0  # atno 4321 bound_to 2467

> <Gold.Score>
     Score     S(PLP)   S(hbond)     S(cho)   S(metal)  DE(clash)   DE(tors)     intcor
     28.24     -25.25       1.00       0.00       0.00       0.00       0.19       0.36

> <Gold.PLP.Fitness>
28.2385

> <Gold.PLP.PLP>
-25.2520

> <Gold.PLP.part.hbond>
-1.0000

> <Gold.PLP.part.metal>
0.0000

> <Gold.PLP.part.buried>
-2.7946

> <Gold.PLP.part.nonpolar>
-21.6501

> <Gold.PLP.part.repulsive>
0.0000

> <Gold.PLP.ligand.clash>
0.0018

> <Gold.PLP.ligand.torsion>
0.1881

> <Gold.PLP.Chemscore.Hbond>
1.0000

> <Gold.PLP.Chemscore.CHOScore>
0.0000

> <Gold.PLP.Chemscore.Metal>
0.0000

> <Gold.Chemscore.Hbonds>
donor molecule, donor type, donor heavy atom, donor atom, acceptor molecule, acceptor atom, score
      P1  H  3712  3721       L1     1  1.00

> <Gold.PLP.Chemscore.Internal.Correction>
0.3645

