#       Name:                EN300-223795_i001
#       Creating user name   fsindt
#       Creation time:       Tue Feb 28 19:26:52 2023


#       File generated by GOLD software.
#

@<TRIPOS>MOLECULE
EN300-223795_i001|acide_2|mol2|6724|dock3
    14    14     1
SMALL
USER_CHARGES


@<TRIPOS>ATOM
      1 O1           0.2478 -11.1478   8.9423 O.co2          1 <1>               -1.0000
      2 C2          -0.6925 -11.8425   9.3050 C.2            1 <1>                0.0000
      3 O3          -1.8406 -11.4913   9.0666 O.co2          1 <1>                0.0000
      4 C4          -0.4433 -13.0992  10.0201 C.2            1 <1>                0.0000
      5 C5          -0.7045 -13.2803  11.4302 C.2            1 <1>                0.0000
      6 C6          -0.4040 -14.4978  11.8632 C.2            1 <1>                0.0000
      7 S7           0.2175 -15.4850  10.5521 S.3            1 <1>                0.0000
      8 C8           0.0532 -14.2192   9.4225 C.2            1 <1>                0.0000
      9 C9           0.4155 -14.3219   7.9633 C.3            1 <1>                0.0000
     10 F10          1.4008 -13.3762   7.6599 F              1 <1>                0.0000
     11 F11          0.9019 -15.6054   7.6927 F              1 <1>                0.0000
     12 F12         -0.7199 -14.0793   7.1828 F              1 <1>                0.0000
     13 H13         -1.1030 -12.5038  12.0663 H              1 <1>                0.0000
     14 H14         -0.5251 -14.8348  12.8820 H              1 <1>                0.0000
@<TRIPOS>BOND
    1    1    2 ar    
    2    2    3 ar    
    3    2    4 1     
    4    4    5 1     
    5    4    8 2     
    6    5    6 2     
    7    5   13 1     
    8    6    7 1     
    9    6   14 1     
   10    7    8 1     
   11    8    9 1     
   12    9   10 1     
   13    9   11 1     
   14    9   12 1     
@<TRIPOS>SUBSTRUCTURE
      1 ****           1
@<TRIPOS>COMMENT
> <Gold.Version>
2022.2.0

> <Gold.Id.Protein>
3pbl|protein|mol2

> <Gold.Protein.RotatedTorsions>
[ 1303 1298 1297 1294 ] final   89.64 input  179.99 | X-H torsion
[ 2461 2456 2455 2452 ] final -138.49 input   30.03 | X-H torsion
[ 2515 2510 2509 2506 ] final -125.78 input  -89.99 | X-H torsion
[ 3721 3712 3711 3710 ] final  -37.27 input -179.91 | X-H torsion
[ 3841 3832 3831 3830 ] final   37.11 input -179.91 | X-H torsion
[ 3767 3762 3761 3758 ] final   85.62 input  -89.99 | X-H torsion
[ 2472 2467 2466 2463 ] final  -73.24 input  -89.97 | X-H torsion

> <Gold.Protein.ActiveResidues>
 VAL82   VAL86   LEU89   PHE106  VAL107  ASP110  VAL111  MET112  CYS114  THR115 
 CYS181  SER182  ILE183  PHE188  VAL189  ILE190  SER192  SER193  SER196  TRP342 
 PHE345  PHE346  HIS349  VAL350  TYR365  THR369  GLY372  TYR373 

> <Gold.Protein.RotatedAtoms>
    4.4101  -10.1236    4.8563 H   0  0  0  0  0  0  0  0  0  0  0  0  # atno 1303 bound_to 1298
    0.8080   -9.2651    8.2249 H   0  0  0  0  0  0  0  0  0  0  0  0  # atno 2461 bound_to 2456
   -3.8425   -5.2614    9.1289 H   0  0  0  0  0  0  0  0  0  0  0  0  # atno 2472 bound_to 2467
    2.6841   -9.2307    5.0870 H   0  0  0  0  0  0  0  0  0  0  0  0  # atno 2515 bound_to 2510
   -2.6452  -17.6172   14.6500 H   0  0  0  0  0  0  0  0  0  0  0  0  # atno 3721 bound_to 3712
   -4.2412  -23.3344   10.4483 H   0  0  0  0  0  0  0  0  0  0  0  0  # atno 3767 bound_to 3762
    2.1591  -20.8367    9.6103 H   0  0  0  0  0  0  0  0  0  0  0  0  # atno 3841 bound_to 3832
    3.3383   -9.4268    3.8405 LP  0  0  0  0  0  0  0  0  0  0  0  0  # atno 4297 bound_to 1298
    4.6137   -8.5706    4.3946 LP  0  0  0  0  0  0  0  0  0  0  0  0  # atno 4298 bound_to 1298
    2.1609   -8.4264    7.8593 LP  0  0  0  0  0  0  0  0  0  0  0  0  # atno 4299 bound_to 2456
    0.7687   -8.1169    7.0641 LP  0  0  0  0  0  0  0  0  0  0  0  0  # atno 4300 bound_to 2456
    2.0331   -8.0753    6.0394 LP  0  0  0  0  0  0  0  0  0  0  0  0  # atno 4301 bound_to 2510
    2.5794   -7.6927    4.5489 LP  0  0  0  0  0  0  0  0  0  0  0  0  # atno 4302 bound_to 2510
   -3.5656  -16.5586   13.8690 LP  0  0  0  0  0  0  0  0  0  0  0  0  # atno 4306 bound_to 3712
   -2.9082  -17.8283   13.0803 LP  0  0  0  0  0  0  0  0  0  0  0  0  # atno 4307 bound_to 3712
    1.6478  -19.7008    8.5982 LP  0  0  0  0  0  0  0  0  0  0  0  0  # atno 4314 bound_to 3832
    3.0875  -20.4350    8.3641 LP  0  0  0  0  0  0  0  0  0  0  0  0  # atno 4315 bound_to 3832
   -5.5074  -22.3034   10.4723 LP  0  0  0  0  0  0  0  0  0  0  0  0  # atno 4318 bound_to 3762
   -4.3786  -22.2376   11.6504 LP  0  0  0  0  0  0  0  0  0  0  0  0  # atno 4319 bound_to 3762
   -5.4472   -5.3312    8.8350 LP  0  0  0  0  0  0  0  0  0  0  0  0  # atno 4320 bound_to 2467
   -4.4270   -4.8010    7.6754 LP  0  0  0  0  0  0  0  0  0  0  0  0  # atno 4321 bound_to 2467

> <Gold.Score>
     Score     S(PLP)   S(hbond)     S(cho)   S(metal)  DE(clash)   DE(tors)     intcor
     36.35     -35.71       1.00       0.00       0.00       0.00       1.36       0.36

> <Gold.PLP.Fitness>
36.3540

> <Gold.PLP.PLP>
-35.7107

> <Gold.PLP.part.hbond>
-1.0000

> <Gold.PLP.part.metal>
0.0000

> <Gold.PLP.part.buried>
-1.9237

> <Gold.PLP.part.nonpolar>
-33.8072

> <Gold.PLP.part.repulsive>
0.0000

> <Gold.PLP.ligand.clash>
0.0000

> <Gold.PLP.ligand.torsion>
1.3606

> <Gold.PLP.Chemscore.Hbond>
1.0000

> <Gold.PLP.Chemscore.CHOScore>
0.0000

> <Gold.PLP.Chemscore.Metal>
0.0000

> <Gold.Chemscore.Hbonds>
donor molecule, donor type, donor heavy atom, donor atom, acceptor molecule, acceptor atom, score
      P1  H  2456  2461       L1     1  1.00

> <Gold.PLP.Chemscore.Internal.Correction>
0.3645

