#       Name:                EN300-223795_i001
#       Creating user name   fsindt
#       Creation time:       Tue Feb 28 19:27:01 2023


#       File generated by GOLD software.
#

@<TRIPOS>MOLECULE
EN300-223795_i001|acide_2|mol2|6724|dock20
    14    14     1
SMALL
USER_CHARGES


@<TRIPOS>ATOM
      1 O1           0.5135 -10.8012   8.9347 O.co2          1 <1>               -1.0000
      2 C2           0.5125 -11.5615   7.9753 C.2            1 <1>                0.0000
      3 O3           0.5295 -11.1109   6.8374 O.co2          1 <1>                0.0000
      4 C4           0.4970 -13.0129   8.1895 C.2            1 <1>                0.0000
      5 C5           0.9550 -13.9694   7.2071 C.2            1 <1>                0.0000
      6 C6           0.8486 -15.2270   7.6160 C.2            1 <1>                0.0000
      7 S7           0.1771 -15.2964   9.2359 S.3            1 <1>                0.0000
      8 C8           0.0547 -13.5994   9.3377 C.2            1 <1>                0.0000
      9 C9          -0.4779 -12.8498  10.5315 C.3            1 <1>                0.0000
     10 F10         -1.5295 -12.0193  10.1295 F              1 <1>                0.0000
     11 F11         -0.9423 -13.7616  11.4856 F              1 <1>                0.0000
     12 F12          0.5436 -12.0725  11.0878 F              1 <1>                0.0000
     13 H13          1.3437 -13.6890   6.2393 H              1 <1>                0.0000
     14 H14          1.1356 -16.0892   7.0324 H              1 <1>                0.0000
@<TRIPOS>BOND
    1    1    2 ar    
    2    2    3 ar    
    3    2    4 1     
    4    4    5 1     
    5    4    8 2     
    6    5    6 2     
    7    5   13 1     
    8    6    7 1     
    9    6   14 1     
   10    7    8 1     
   11    8    9 1     
   12    9   10 1     
   13    9   11 1     
   14    9   12 1     
@<TRIPOS>SUBSTRUCTURE
      1 ****           1
@<TRIPOS>COMMENT
> <Gold.Version>
2022.2.0

> <Gold.Id.Protein>
3pbl|protein|mol2

> <Gold.Protein.RotatedTorsions>
[ 1303 1298 1297 1294 ] final -125.70 input  179.99 | X-H torsion
[ 2461 2456 2455 2452 ] final -150.51 input   30.03 | X-H torsion
[ 2515 2510 2509 2506 ] final   47.97 input  -89.99 | X-H torsion
[ 3721 3712 3711 3710 ] final -119.46 input -179.91 | X-H torsion
[ 3841 3832 3831 3830 ] final  105.85 input -179.91 | X-H torsion
[ 3767 3762 3761 3758 ] final    8.37 input  -89.99 | X-H torsion
[ 2472 2467 2466 2463 ] final  103.60 input  -89.97 | X-H torsion

> <Gold.Protein.ActiveResidues>
 VAL82   VAL86   LEU89   PHE106  VAL107  ASP110  VAL111  MET112  CYS114  THR115 
 CYS181  SER182  ILE183  PHE188  VAL189  ILE190  SER192  SER193  SER196  TRP342 
 PHE345  PHE346  HIS349  VAL350  TYR365  THR369  GLY372  TYR373 

> <Gold.Protein.RotatedAtoms>
    4.3102   -8.4761    4.1476 H   0  0  0  0  0  0  0  0  0  0  0  0  # atno 1303 bound_to 1298
    0.9851   -9.2878    8.3094 H   0  0  0  0  0  0  0  0  0  0  0  0  # atno 2461 bound_to 2456
   -5.2685   -4.9853    7.9275 H   0  0  0  0  0  0  0  0  0  0  0  0  # atno 2472 bound_to 2467
    2.2164   -7.4167    5.2687 H   0  0  0  0  0  0  0  0  0  0  0  0  # atno 2515 bound_to 2510
   -3.2146  -16.6604   14.4117 H   0  0  0  0  0  0  0  0  0  0  0  0  # atno 3721 bound_to 3712
   -5.2415  -22.8183   10.1031 H   0  0  0  0  0  0  0  0  0  0  0  0  # atno 3767 bound_to 3762
    2.9903  -20.8372    9.0961 H   0  0  0  0  0  0  0  0  0  0  0  0  # atno 3841 bound_to 3832
    4.6912   -9.8494    4.9446 LP  0  0  0  0  0  0  0  0  0  0  0  0  # atno 4297 bound_to 1298
    3.3607   -9.7962    3.9994 LP  0  0  0  0  0  0  0  0  0  0  0  0  # atno 4298 bound_to 1298
    2.1361   -8.2922    7.7166 LP  0  0  0  0  0  0  0  0  0  0  0  0  # atno 4299 bound_to 2456
    0.6165   -8.2284    7.1223 LP  0  0  0  0  0  0  0  0  0  0  0  0  # atno 4300 bound_to 2456
    2.8355   -8.6860    4.4494 LP  0  0  0  0  0  0  0  0  0  0  0  0  # atno 4301 bound_to 2510
    2.2449   -8.8969    5.9571 LP  0  0  0  0  0  0  0  0  0  0  0  0  # atno 4302 bound_to 2510
   -3.1949  -17.3466   12.9603 LP  0  0  0  0  0  0  0  0  0  0  0  0  # atno 4306 bound_to 3712
   -2.6214  -18.1450   14.2642 LP  0  0  0  0  0  0  0  0  0  0  0  0  # atno 4307 bound_to 3712
    1.4611  -20.4340    9.3703 LP  0  0  0  0  0  0  0  0  0  0  0  0  # atno 4314 bound_to 3832
    2.3139  -19.7012    8.1861 LP  0  0  0  0  0  0  0  0  0  0  0  0  # atno 4315 bound_to 3832
   -4.9625  -21.9363   11.4489 LP  0  0  0  0  0  0  0  0  0  0  0  0  # atno 4318 bound_to 3762
   -3.9236  -23.1205   11.0188 LP  0  0  0  0  0  0  0  0  0  0  0  0  # atno 4319 bound_to 3762
   -3.6802   -4.9456    8.3046 LP  0  0  0  0  0  0  0  0  0  0  0  0  # atno 4320 bound_to 2467
   -4.7684   -5.4626    9.4069 LP  0  0  0  0  0  0  0  0  0  0  0  0  # atno 4321 bound_to 2467

> <Gold.Score>
     Score     S(PLP)   S(hbond)     S(cho)   S(metal)  DE(clash)   DE(tors)     intcor
     34.39     -31.59       1.00       0.00       0.00       0.00       0.28       0.36

> <Gold.PLP.Fitness>
34.3944

> <Gold.PLP.PLP>
-31.5939

> <Gold.PLP.part.hbond>
-2.0000

> <Gold.PLP.part.metal>
0.0000

> <Gold.PLP.part.buried>
-1.5078

> <Gold.PLP.part.nonpolar>
-28.7238

> <Gold.PLP.part.repulsive>
0.0152

> <Gold.PLP.ligand.clash>
0.0000

> <Gold.PLP.ligand.torsion>
0.2820

> <Gold.PLP.Chemscore.Hbond>
1.0000

> <Gold.PLP.Chemscore.CHOScore>
0.0000

> <Gold.PLP.Chemscore.Metal>
0.0000

> <Gold.Chemscore.Hbonds>
donor molecule, donor type, donor heavy atom, donor atom, acceptor molecule, acceptor atom, score
      P1  H  2456  2461       L1     1  1.00

> <Gold.PLP.Chemscore.Internal.Correction>
0.3645

