#       Name:                EN300-223795_i001
#       Creating user name   fsindt
#       Creation time:       Tue Feb 28 19:26:55 2023


#       File generated by GOLD software.
#

@<TRIPOS>MOLECULE
EN300-223795_i001|acide_2|mol2|6724|dock10
    14    14     1
SMALL
USER_CHARGES


@<TRIPOS>ATOM
      1 O1           0.3607 -10.7970   7.3487 O.co2          1 <1>               -1.0000
      2 C2          -0.3431 -11.0944   8.3050 C.2            1 <1>                0.0000
      3 O3          -1.2549 -10.3532   8.6477 O.co2          1 <1>                0.0000
      4 C4          -0.0976 -12.3422   9.0368 C.2            1 <1>                0.0000
      5 C5           0.6646 -13.4462   8.4984 C.2            1 <1>                0.0000
      6 C6           0.7580 -14.4714   9.3353 C.2            1 <1>                0.0000
      7 S7          -0.0905 -14.1275  10.8324 S.3            1 <1>                0.0000
      8 C8          -0.5597 -12.5788  10.2971 C.2            1 <1>                0.0000
      9 C9          -1.3808 -11.6065  11.1043 C.3            1 <1>                0.0000
     10 F10         -2.6131 -11.4016  10.4745 F              1 <1>                0.0000
     11 F11         -1.5926 -12.1264  12.3857 F              1 <1>                0.0000
     12 F12         -0.6988 -10.3889  11.2019 F              1 <1>                0.0000
     13 H13          1.1119 -13.4375   7.5155 H              1 <1>                0.0000
     14 H14          1.2837 -15.3909   9.1243 H              1 <1>                0.0000
@<TRIPOS>BOND
    1    1    2 ar    
    2    2    3 ar    
    3    2    4 1     
    4    4    5 1     
    5    4    8 2     
    6    5    6 2     
    7    5   13 1     
    8    6    7 1     
    9    6   14 1     
   10    7    8 1     
   11    8    9 1     
   12    9   10 1     
   13    9   11 1     
   14    9   12 1     
@<TRIPOS>SUBSTRUCTURE
      1 ****           1
@<TRIPOS>COMMENT
> <Gold.Version>
2022.2.0

> <Gold.Id.Protein>
3pbl|protein|mol2

> <Gold.Protein.RotatedTorsions>
[ 1303 1298 1297 1294 ] final  102.72 input  179.99 | X-H torsion
[ 2461 2456 2455 2452 ] final -121.84 input   30.03 | X-H torsion
[ 2515 2510 2509 2506 ] final  -88.88 input  -89.99 | X-H torsion
[ 3721 3712 3711 3710 ] final -170.11 input -179.91 | X-H torsion
[ 3841 3832 3831 3830 ] final  119.76 input -179.91 | X-H torsion
[ 3767 3762 3761 3758 ] final -107.33 input  -89.99 | X-H torsion
[ 2472 2467 2466 2463 ] final   82.34 input  -89.97 | X-H torsion

> <Gold.Protein.ActiveResidues>
 VAL82   VAL86   LEU89   PHE106  VAL107  ASP110  VAL111  MET112  CYS114  THR115 
 CYS181  SER182  ILE183  PHE188  VAL189  ILE190  SER192  SER193  SER196  TRP342 
 PHE345  PHE346  HIS349  VAL350  TYR365  THR369  GLY372  TYR373 

> <Gold.Protein.RotatedAtoms>
    4.5691   -9.9924    4.9159 H   0  0  0  0  0  0  0  0  0  0  0  0  # atno 1303 bound_to 1298
    0.5960   -9.1861    8.0720 H   0  0  0  0  0  0  0  0  0  0  0  0  # atno 2461 bound_to 2456
   -4.9933   -4.8870    7.7389 H   0  0  0  0  0  0  0  0  0  0  0  0  # atno 2472 bound_to 2467
    2.8230   -8.9183    4.5982 H   0  0  0  0  0  0  0  0  0  0  0  0  # atno 2515 bound_to 2510
   -3.3363  -16.5604   13.6877 H   0  0  0  0  0  0  0  0  0  0  0  0  # atno 3721 bound_to 3712
   -5.0185  -21.9246   11.4073 H   0  0  0  0  0  0  0  0  0  0  0  0  # atno 3767 bound_to 3762
    3.0801  -20.7271    8.9419 H   0  0  0  0  0  0  0  0  0  0  0  0  # atno 3841 bound_to 3832
    3.3320   -9.6283    3.9143 LP  0  0  0  0  0  0  0  0  0  0  0  0  # atno 4297 bound_to 1298
    4.4609   -8.5004    4.2611 LP  0  0  0  0  0  0  0  0  0  0  0  0  # atno 4298 bound_to 1298
    2.1291   -8.6237    8.0453 LP  0  0  0  0  0  0  0  0  0  0  0  0  # atno 4299 bound_to 2456
    1.0125   -7.9985    7.0310 LP  0  0  0  0  0  0  0  0  0  0  0  0  # atno 4300 bound_to 2456
    2.1493   -8.6602    6.0628 LP  0  0  0  0  0  0  0  0  0  0  0  0  # atno 4301 bound_to 2510
    2.3242   -7.4204    5.0145 LP  0  0  0  0  0  0  0  0  0  0  0  0  # atno 4302 bound_to 2510
   -2.7936  -18.0035   13.2398 LP  0  0  0  0  0  0  0  0  0  0  0  0  # atno 4306 bound_to 3712
   -2.8822  -17.6036   14.8206 LP  0  0  0  0  0  0  0  0  0  0  0  0  # atno 4307 bound_to 3712
    1.5675  -20.6158    9.4671 LP  0  0  0  0  0  0  0  0  0  0  0  0  # atno 4314 bound_to 3832
    2.1038  -19.6465    8.2672 LP  0  0  0  0  0  0  0  0  0  0  0  0  # atno 4315 bound_to 3832
   -3.9137  -23.0808   11.0768 LP  0  0  0  0  0  0  0  0  0  0  0  0  # atno 4318 bound_to 3762
   -5.1953  -22.8694   10.0872 LP  0  0  0  0  0  0  0  0  0  0  0  0  # atno 4319 bound_to 3762
   -3.6362   -5.0583    8.6307 LP  0  0  0  0  0  0  0  0  0  0  0  0  # atno 4320 bound_to 2467
   -5.0876   -5.4482    9.2694 LP  0  0  0  0  0  0  0  0  0  0  0  0  # atno 4321 bound_to 2467

> <Gold.Score>
     Score     S(PLP)   S(hbond)     S(cho)   S(metal)  DE(clash)   DE(tors)     intcor
     35.74     -31.94       0.35       0.94       0.00       0.00       0.22       0.36

> <Gold.PLP.Fitness>
35.7369

> <Gold.PLP.PLP>
-31.9434

> <Gold.PLP.part.hbond>
-1.6500

> <Gold.PLP.part.metal>
0.0000

> <Gold.PLP.part.buried>
4.0376

> <Gold.PLP.part.nonpolar>
-33.8092

> <Gold.PLP.part.repulsive>
0.0604

> <Gold.PLP.ligand.clash>
0.0000

> <Gold.PLP.ligand.torsion>
0.2247

> <Gold.PLP.Chemscore.Hbond>
0.3528

> <Gold.PLP.Chemscore.CHOScore>
0.9400

> <Gold.PLP.Chemscore.Metal>
0.0000

> <Gold.Chemscore.Hbonds>
donor molecule, donor type, donor heavy atom, donor atom, acceptor molecule, acceptor atom, score
      P1  H  2456  2461       L1     1  0.35
      L1  C     6    14       P1  1227  0.94

> <Gold.PLP.Chemscore.Internal.Correction>
0.3645

