#       Name:                EN300-223795_i001
#       Creating user name   fsindt
#       Creation time:       Tue Feb 28 19:26:52 2023


#       File generated by GOLD software.
#

@<TRIPOS>MOLECULE
EN300-223795_i001|acide_2|mol2|6724|dock4
    14    14     1
SMALL
USER_CHARGES


@<TRIPOS>ATOM
      1 O1          -1.2772 -17.5719  15.4506 O.co2          1 <1>               -1.0000
      2 C2          -0.3895 -17.2828  14.6589 C.2            1 <1>                0.0000
      3 O3           0.0874 -16.1556  14.6591 O.co2          1 <1>                0.0000
      4 C4           0.1069 -18.2893  13.7136 C.2            1 <1>                0.0000
      5 C5          -0.6469 -19.4602  13.3259 C.2            1 <1>                0.0000
      6 C6          -0.0019 -20.2313  12.4601 C.2            1 <1>                0.0000
      7 S7           1.5705 -19.5521  12.0781 S.3            1 <1>                0.0000
      8 C8           1.3245 -18.2144  13.1054 C.2            1 <1>                0.0000
      9 C9           2.3210 -17.1043  13.3187 C.3            1 <1>                0.0000
     10 F10          2.5997 -16.9838  14.6844 F              1 <1>                0.0000
     11 F11          3.5007 -17.3971  12.6261 F              1 <1>                0.0000
     12 F12          1.7877 -15.9013  12.8437 F              1 <1>                0.0000
     13 H13         -1.6338 -19.6845  13.7026 H              1 <1>                0.0000
     14 H14         -0.3909 -21.1504  12.0474 H              1 <1>                0.0000
@<TRIPOS>BOND
    1    1    2 ar    
    2    2    3 ar    
    3    2    4 1     
    4    4    5 1     
    5    4    8 2     
    6    5    6 2     
    7    5   13 1     
    8    6    7 1     
    9    6   14 1     
   10    7    8 1     
   11    8    9 1     
   12    9   10 1     
   13    9   11 1     
   14    9   12 1     
@<TRIPOS>SUBSTRUCTURE
      1 ****           1
@<TRIPOS>COMMENT
> <Gold.Version>
2022.2.0

> <Gold.Id.Protein>
3pbl|protein|mol2

> <Gold.Protein.RotatedTorsions>
[ 1303 1298 1297 1294 ] final -137.64 input  179.99 | X-H torsion
[ 2461 2456 2455 2452 ] final  -65.06 input   30.03 | X-H torsion
[ 2515 2510 2509 2506 ] final  -44.48 input  -89.99 | X-H torsion
[ 3721 3712 3711 3710 ] final  -53.69 input -179.91 | X-H torsion
[ 3841 3832 3831 3830 ] final -153.57 input -179.91 | X-H torsion
[ 3767 3762 3761 3758 ] final -159.22 input  -89.99 | X-H torsion
[ 2472 2467 2466 2463 ] final  -49.68 input  -89.97 | X-H torsion

> <Gold.Protein.ActiveResidues>
 VAL82   VAL86   LEU89   PHE106  VAL107  ASP110  VAL111  MET112  CYS114  THR115 
 CYS181  SER182  ILE183  PHE188  VAL189  ILE190  SER192  SER193  SER196  TRP342 
 PHE345  PHE346  HIS349  VAL350  TYR365  THR369  GLY372  TYR373 

> <Gold.Protein.RotatedAtoms>
    4.4651   -8.5019    4.2652 H   0  0  0  0  0  0  0  0  0  0  0  0  # atno 1303 bound_to 1298
    0.3504   -8.6202    7.4209 H   0  0  0  0  0  0  0  0  0  0  0  0  # atno 2461 bound_to 2456
   -3.6679   -5.1282    8.8128 H   0  0  0  0  0  0  0  0  0  0  0  0  # atno 2472 bound_to 2467
    2.7821   -8.2506    4.3539 H   0  0  0  0  0  0  0  0  0  0  0  0  # atno 2515 bound_to 2510
   -2.7543  -17.4132   14.7375 H   0  0  0  0  0  0  0  0  0  0  0  0  # atno 3721 bound_to 3712
   -4.3176  -22.2886   11.6462 H   0  0  0  0  0  0  0  0  0  0  0  0  # atno 3767 bound_to 3762
    2.6736  -19.7821    8.3475 H   0  0  0  0  0  0  0  0  0  0  0  0  # atno 3841 bound_to 3832
    4.5654   -9.9968    4.9144 LP  0  0  0  0  0  0  0  0  0  0  0  0  # atno 4297 bound_to 1298
    3.3316   -9.6230    3.9120 LP  0  0  0  0  0  0  0  0  0  0  0  0  # atno 4298 bound_to 1298
    1.5286   -9.1878    8.3992 LP  0  0  0  0  0  0  0  0  0  0  0  0  # atno 4299 bound_to 2456
    1.8585   -8.0002    7.3280 LP  0  0  0  0  0  0  0  0  0  0  0  0  # atno 4300 bound_to 2456
    2.4315   -9.1719    5.6554 LP  0  0  0  0  0  0  0  0  0  0  0  0  # atno 4301 bound_to 2510
    2.0829   -7.5766    5.6664 LP  0  0  0  0  0  0  0  0  0  0  0  0  # atno 4302 bound_to 2510
   -3.5583  -16.6130   13.6012 LP  0  0  0  0  0  0  0  0  0  0  0  0  # atno 4306 bound_to 3712
   -2.7895  -18.0095   13.2472 LP  0  0  0  0  0  0  0  0  0  0  0  0  # atno 4307 bound_to 3712
    2.7450  -21.1371    9.2048 LP  0  0  0  0  0  0  0  0  0  0  0  0  # atno 4314 bound_to 3832
    1.3960  -20.2170    9.2163 LP  0  0  0  0  0  0  0  0  0  0  0  0  # atno 4315 bound_to 3832
   -4.2984  -23.3354   10.3928 LP  0  0  0  0  0  0  0  0  0  0  0  0  # atno 4318 bound_to 3762
   -5.5113  -22.2509   10.5323 LP  0  0  0  0  0  0  0  0  0  0  0  0  # atno 4319 bound_to 3762
   -5.2394   -5.4205    9.1464 LP  0  0  0  0  0  0  0  0  0  0  0  0  # atno 4320 bound_to 2467
   -4.8094   -4.8448    7.6800 LP  0  0  0  0  0  0  0  0  0  0  0  0  # atno 4321 bound_to 2467

> <Gold.Score>
     Score     S(PLP)   S(hbond)     S(cho)   S(metal)  DE(clash)   DE(tors)     intcor
     35.13     -29.31       1.99       0.00       0.00       0.00       0.26       0.36

> <Gold.PLP.Fitness>
35.1331

> <Gold.PLP.PLP>
-29.3150

> <Gold.PLP.part.hbond>
-1.8627

> <Gold.PLP.part.metal>
0.0000

> <Gold.PLP.part.buried>
-0.0070

> <Gold.PLP.part.nonpolar>
-28.0900

> <Gold.PLP.part.repulsive>
0.0778

> <Gold.PLP.ligand.clash>
0.0000

> <Gold.PLP.ligand.torsion>
0.2612

> <Gold.PLP.Chemscore.Hbond>
1.9920

> <Gold.PLP.Chemscore.CHOScore>
0.0000

> <Gold.PLP.Chemscore.Metal>
0.0000

> <Gold.Chemscore.Hbonds>
donor molecule, donor type, donor heavy atom, donor atom, acceptor molecule, acceptor atom, score
      P1  H  2305  2313       L1     3  1.00
      P1  H  3712  3721       L1     1  0.99

> <Gold.PLP.Chemscore.Internal.Correction>
0.3645

