#       Name:                EN300-223795_i001
#       Creating user name   fsindt
#       Creation time:       Tue Feb 28 19:26:57 2023


#       File generated by GOLD software.
#

@<TRIPOS>MOLECULE
EN300-223795_i001|acide_2|mol2|6724|dock14
    14    14     1
SMALL
USER_CHARGES


@<TRIPOS>ATOM
      1 O1           0.6689 -16.1693  14.3974 O.co2          1 <1>               -1.0000
      2 C2          -0.0987 -17.1222  14.3635 C.2            1 <1>                0.0000
      3 O3          -0.8572 -17.3307  15.3012 O.co2          1 <1>                0.0000
      4 C4          -0.1136 -18.0111  13.1962 C.2            1 <1>                0.0000
      5 C5          -0.4408 -17.5677  11.8598 C.2            1 <1>                0.0000
      6 C6          -0.3906 -18.5424  10.9611 C.2            1 <1>                0.0000
      7 S7           0.0633 -20.0592  11.7179 S.3            1 <1>                0.0000
      8 C8           0.1852 -19.3395  13.2581 C.2            1 <1>                0.0000
      9 C9           0.5637 -20.0738  14.5185 C.3            1 <1>                0.0000
     10 F10         -0.4931 -20.0064  15.4327 F              1 <1>                0.0000
     11 F11          0.8332 -21.4127  14.2151 F              1 <1>                0.0000
     12 F12          1.7024 -19.4841  15.0777 F              1 <1>                0.0000
     13 H13         -0.6998 -16.5476  11.6177 H              1 <1>                0.0000
     14 H14         -0.6003 -18.4193   9.9089 H              1 <1>                0.0000
@<TRIPOS>BOND
    1    1    2 ar    
    2    2    3 ar    
    3    2    4 1     
    4    4    5 1     
    5    4    8 2     
    6    5    6 2     
    7    5   13 1     
    8    6    7 1     
    9    6   14 1     
   10    7    8 1     
   11    8    9 1     
   12    9   10 1     
   13    9   11 1     
   14    9   12 1     
@<TRIPOS>SUBSTRUCTURE
      1 ****           1
@<TRIPOS>COMMENT
> <Gold.Version>
2022.2.0

> <Gold.Id.Protein>
3pbl|protein|mol2

> <Gold.Protein.RotatedTorsions>
[ 1303 1298 1297 1294 ] final  -55.02 input  179.99 | X-H torsion
[ 2461 2456 2455 2452 ] final   61.11 input   30.03 | X-H torsion
[ 2515 2510 2509 2506 ] final  152.59 input  -89.99 | X-H torsion
[ 3721 3712 3711 3710 ] final  -35.54 input -179.91 | X-H torsion
[ 3841 3832 3831 3830 ] final  134.87 input -179.91 | X-H torsion
[ 3767 3762 3761 3758 ] final -176.47 input  -89.99 | X-H torsion
[ 2472 2467 2466 2463 ] final   32.83 input  -89.97 | X-H torsion

> <Gold.Protein.ActiveResidues>
 VAL82   VAL86   LEU89   PHE106  VAL107  ASP110  VAL111  MET112  CYS114  THR115 
 CYS181  SER182  ILE183  PHE188  VAL189  ILE190  SER192  SER193  SER196  TRP342 
 PHE345  PHE346  HIS349  VAL350  TYR365  THR369  GLY372  TYR373 

> <Gold.Protein.RotatedAtoms>
    3.4586   -9.0477    3.7776 H   0  0  0  0  0  0  0  0  0  0  0  0  # atno 1303 bound_to 1298
    1.9281   -8.0387    7.3908 H   0  0  0  0  0  0  0  0  0  0  0  0  # atno 2461 bound_to 2456
   -4.2082   -4.8016    7.7416 H   0  0  0  0  0  0  0  0  0  0  0  0  # atno 2472 bound_to 2467
    2.1570   -8.6821    6.0561 H   0  0  0  0  0  0  0  0  0  0  0  0  # atno 2515 bound_to 2510
   -2.6347  -17.6374   14.6370 H   0  0  0  0  0  0  0  0  0  0  0  0  # atno 3721 bound_to 3712
   -4.1275  -22.4895   11.5868 H   0  0  0  0  0  0  0  0  0  0  0  0  # atno 3767 bound_to 3762
    3.1289  -20.5773    8.7776 H   0  0  0  0  0  0  0  0  0  0  0  0  # atno 3841 bound_to 3832
    4.8271   -8.8120    4.6365 LP  0  0  0  0  0  0  0  0  0  0  0  0  # atno 4297 bound_to 1298
    4.0767  -10.2618    4.6777 LP  0  0  0  0  0  0  0  0  0  0  0  0  # atno 4298 bound_to 1298
    0.3763   -8.5465    7.3563 LP  0  0  0  0  0  0  0  0  0  0  0  0  # atno 4299 bound_to 2456
    1.4336   -9.2228    8.4010 LP  0  0  0  0  0  0  0  0  0  0  0  0  # atno 4300 bound_to 2456
    2.3143   -7.4169    5.0362 LP  0  0  0  0  0  0  0  0  0  0  0  0  # atno 4301 bound_to 2510
    2.8255   -8.9000    4.5825 LP  0  0  0  0  0  0  0  0  0  0  0  0  # atno 4302 bound_to 2510
   -3.5641  -16.5568   13.8979 LP  0  0  0  0  0  0  0  0  0  0  0  0  # atno 4306 bound_to 3712
   -2.9218  -17.8068   13.0664 LP  0  0  0  0  0  0  0  0  0  0  0  0  # atno 4307 bound_to 3712
    1.7289  -20.7984    9.5307 LP  0  0  0  0  0  0  0  0  0  0  0  0  # atno 4314 bound_to 3832
    1.8861  -19.6370    8.3935 LP  0  0  0  0  0  0  0  0  0  0  0  0  # atno 4315 bound_to 3832
   -4.5211  -23.2969   10.2230 LP  0  0  0  0  0  0  0  0  0  0  0  0  # atno 4318 bound_to 3762
   -5.4785  -22.0886   10.7616 LP  0  0  0  0  0  0  0  0  0  0  0  0  # atno 4319 bound_to 3762
   -4.0059   -5.3305    9.2731 LP  0  0  0  0  0  0  0  0  0  0  0  0  # atno 4320 bound_to 2467
   -5.5028   -5.2613    8.6243 LP  0  0  0  0  0  0  0  0  0  0  0  0  # atno 4321 bound_to 2467

> <Gold.Score>
     Score     S(PLP)   S(hbond)     S(cho)   S(metal)  DE(clash)   DE(tors)     intcor
     28.96     -25.10       1.94       0.00       0.00       0.00       1.17       0.36

> <Gold.PLP.Fitness>
28.9593

> <Gold.PLP.PLP>
-25.0997

> <Gold.PLP.part.hbond>
-1.9393

> <Gold.PLP.part.metal>
0.0000

> <Gold.PLP.part.buried>
-1.6464

> <Gold.PLP.part.nonpolar>
-21.6234

> <Gold.PLP.part.repulsive>
0.0439

> <Gold.PLP.ligand.clash>
0.0000

> <Gold.PLP.ligand.torsion>
1.1662

> <Gold.PLP.Chemscore.Hbond>
1.9425

> <Gold.PLP.Chemscore.CHOScore>
0.0000

> <Gold.PLP.Chemscore.Metal>
0.0000

> <Gold.Chemscore.Hbonds>
donor molecule, donor type, donor heavy atom, donor atom, acceptor molecule, acceptor atom, score
      P1  H  2305  2313       L1     1  0.94
      P1  H  3712  3721       L1     3  1.00

> <Gold.PLP.Chemscore.Internal.Correction>
0.3645

