#       Name:                EN300-223795_i001
#       Creating user name   fsindt
#       Creation time:       Tue Feb 28 19:26:59 2023


#       File generated by GOLD software.
#

@<TRIPOS>MOLECULE
EN300-223795_i001|acide_2|mol2|6724|dock17
    14    14     1
SMALL
USER_CHARGES


@<TRIPOS>ATOM
      1 O1           0.1877 -19.2851  10.8547 O.co2          1 <1>               -1.0000
      2 C2          -0.2014 -18.5411  11.7455 C.2            1 <1>                0.0000
      3 O3          -1.2998 -18.0076  11.6611 O.co2          1 <1>                0.0000
      4 C4           0.6463 -18.2937  12.9172 C.2            1 <1>                0.0000
      5 C5           1.0088 -16.9713  13.3749 C.2            1 <1>                0.0000
      6 C6           1.7823 -16.9874  14.4527 C.2            1 <1>                0.0000
      7 S7           2.1038 -18.6365  14.9592 S.3            1 <1>                0.0000
      8 C8           1.1692 -19.2867  13.6908 C.2            1 <1>                0.0000
      9 C9           0.9567 -20.7594  13.4521 C.3            1 <1>                0.0000
     10 F10         -0.4059 -21.0575  13.5603 F              1 <1>                0.0000
     11 F11          1.4070 -21.0939  12.1705 F              1 <1>                0.0000
     12 F12          1.6718 -21.4940  14.4041 F              1 <1>                0.0000
     13 H13          0.6837 -16.0633  12.8890 H              1 <1>                0.0000
     14 H14          2.1618 -16.1069  14.9497 H              1 <1>                0.0000
@<TRIPOS>BOND
    1    1    2 ar    
    2    2    3 ar    
    3    2    4 1     
    4    4    5 1     
    5    4    8 2     
    6    5    6 2     
    7    5   13 1     
    8    6    7 1     
    9    6   14 1     
   10    7    8 1     
   11    8    9 1     
   12    9   10 1     
   13    9   11 1     
   14    9   12 1     
@<TRIPOS>SUBSTRUCTURE
      1 ****           1
@<TRIPOS>COMMENT
> <Gold.Version>
2022.2.0

> <Gold.Id.Protein>
3pbl|protein|mol2

> <Gold.Protein.RotatedTorsions>
[ 1303 1298 1297 1294 ] final   65.67 input  179.99 | X-H torsion
[ 2461 2456 2455 2452 ] final   47.57 input   30.03 | X-H torsion
[ 2515 2510 2509 2506 ] final   27.40 input  -89.99 | X-H torsion
[ 3721 3712 3711 3710 ] final   89.61 input -179.91 | X-H torsion
[ 3841 3832 3831 3830 ] final  -27.41 input -179.91 | X-H torsion
[ 3767 3762 3761 3758 ] final  123.30 input  -89.99 | X-H torsion
[ 2472 2467 2466 2463 ] final  118.02 input  -89.97 | X-H torsion

> <Gold.Protein.ActiveResidues>
 VAL82   VAL86   LEU89   PHE106  VAL107  ASP110  VAL111  MET112  CYS114  THR115 
 CYS181  SER182  ILE183  PHE188  VAL189  ILE190  SER192  SER193  SER196  TRP342 
 PHE345  PHE346  HIS349  VAL350  TYR365  THR369  GLY372  TYR373 

> <Gold.Protein.RotatedAtoms>
    4.0860  -10.2597    4.6839 H   0  0  0  0  0  0  0  0  0  0  0  0  # atno 1303 bound_to 1298
    1.7663   -7.9629    7.2586 H   0  0  0  0  0  0  0  0  0  0  0  0  # atno 2461 bound_to 2456
   -5.4030   -5.0642    8.1055 H   0  0  0  0  0  0  0  0  0  0  0  0  # atno 2472 bound_to 2467
    2.3499   -7.4323    4.9603 H   0  0  0  0  0  0  0  0  0  0  0  0  # atno 2515 bound_to 2510
   -2.7810  -17.6198   13.1065 H   0  0  0  0  0  0  0  0  0  0  0  0  # atno 3721 bound_to 3712
   -3.9403  -23.1632   10.9492 H   0  0  0  0  0  0  0  0  0  0  0  0  # atno 3767 bound_to 3762
    1.5774  -20.1615    9.3660 H   0  0  0  0  0  0  0  0  0  0  0  0  # atno 3841 bound_to 3832
    3.4535   -9.0578    3.7774 LP  0  0  0  0  0  0  0  0  0  0  0  0  # atno 4297 bound_to 1298
    4.8227   -8.8035    4.6302 LP  0  0  0  0  0  0  0  0  0  0  0  0  # atno 4298 bound_to 1298
    0.3336   -8.7081    7.5028 LP  0  0  0  0  0  0  0  0  0  0  0  0  # atno 4299 bound_to 2456
    1.6380   -9.1370    8.3866 LP  0  0  0  0  0  0  0  0  0  0  0  0  # atno 4300 bound_to 2456
    2.8157   -8.9637    4.6384 LP  0  0  0  0  0  0  0  0  0  0  0  0  # atno 4301 bound_to 2510
    2.1312   -8.6035    6.0767 LP  0  0  0  0  0  0  0  0  0  0  0  0  # atno 4302 bound_to 2510
   -2.7658  -17.8257   14.6987 LP  0  0  0  0  0  0  0  0  0  0  0  0  # atno 4306 bound_to 3712
   -3.5512  -16.5583   14.0327 LP  0  0  0  0  0  0  0  0  0  0  0  0  # atno 4307 bound_to 3712
    2.5541  -19.8161    8.1402 LP  0  0  0  0  0  0  0  0  0  0  0  0  # atno 4314 bound_to 3832
    2.8531  -21.0997    9.1043 LP  0  0  0  0  0  0  0  0  0  0  0  0  # atno 4315 bound_to 3832
   -5.2927  -22.7576   10.1285 LP  0  0  0  0  0  0  0  0  0  0  0  0  # atno 4318 bound_to 3762
   -4.8941  -21.9545   11.4934 LP  0  0  0  0  0  0  0  0  0  0  0  0  # atno 4319 bound_to 3762
   -3.7802   -4.8827    8.0996 LP  0  0  0  0  0  0  0  0  0  0  0  0  # atno 4320 bound_to 2467
   -4.5339   -5.4466    9.4340 LP  0  0  0  0  0  0  0  0  0  0  0  0  # atno 4321 bound_to 2467

> <Gold.Score>
     Score     S(PLP)   S(hbond)     S(cho)   S(metal)  DE(clash)   DE(tors)     intcor
     29.36     -25.84       1.71       0.00       0.00       0.00       0.98       0.36

> <Gold.PLP.Fitness>
29.3612

> <Gold.PLP.PLP>
-25.8450

> <Gold.PLP.part.hbond>
-1.6193

> <Gold.PLP.part.metal>
0.0000

> <Gold.PLP.part.buried>
-1.6621

> <Gold.PLP.part.nonpolar>
-23.2105

> <Gold.PLP.part.repulsive>
0.1547

> <Gold.PLP.ligand.clash>
0.0000

> <Gold.PLP.ligand.torsion>
0.9835

> <Gold.PLP.Chemscore.Hbond>
1.7063

> <Gold.PLP.Chemscore.CHOScore>
0.0000

> <Gold.PLP.Chemscore.Metal>
0.0000

> <Gold.Chemscore.Hbonds>
donor molecule, donor type, donor heavy atom, donor atom, acceptor molecule, acceptor atom, score
      P1  H  3712  3721       L1     3  0.99
      P1  H  3832  3841       L1     1  0.71

> <Gold.PLP.Chemscore.Internal.Correction>
0.3645

