#       Name:                EN300-223795_i001
#       Creating user name   fsindt
#       Creation time:       Tue Feb 28 19:26:57 2023


#       File generated by GOLD software.
#

@<TRIPOS>MOLECULE
EN300-223795_i001|acide_2|mol2|6724|dock13
    14    14     1
SMALL
USER_CHARGES


@<TRIPOS>ATOM
      1 O1           0.1998 -15.5767  10.2835 O.co2          1 <1>               -1.0000
      2 C2          -0.1214 -14.6741  11.0454 C.2            1 <1>                0.0000
      3 O3          -0.1055 -14.8596  12.2551 O.co2          1 <1>                0.0000
      4 C4          -0.5198 -13.3679  10.5087 C.2            1 <1>                0.0000
      5 C5          -1.2337 -12.3734  11.2774 C.2            1 <1>                0.0000
      6 C6          -1.4890 -11.2682  10.5893 C.2            1 <1>                0.0000
      7 S7          -0.8614 -11.3974   8.9556 S.3            1 <1>                0.0000
      8 C8          -0.2501 -12.9637   9.2351 C.2            1 <1>                0.0000
      9 C9           0.4817 -13.7924   8.2110 C.3            1 <1>                0.0000
     10 F10          0.6752 -13.0353   7.0506 F              1 <1>                0.0000
     11 F11          1.7227 -14.1815   8.7264 F              1 <1>                0.0000
     12 F12         -0.2737 -14.9296   7.9053 F              1 <1>                0.0000
     13 H13         -1.5292 -12.5156  12.3063 H              1 <1>                0.0000
     14 H14         -2.0113 -10.4077  10.9806 H              1 <1>                0.0000
@<TRIPOS>BOND
    1    1    2 ar    
    2    2    3 ar    
    3    2    4 1     
    4    4    5 1     
    5    4    8 2     
    6    5    6 2     
    7    5   13 1     
    8    6    7 1     
    9    6   14 1     
   10    7    8 1     
   11    8    9 1     
   12    9   10 1     
   13    9   11 1     
   14    9   12 1     
@<TRIPOS>SUBSTRUCTURE
      1 ****           1
@<TRIPOS>COMMENT
> <Gold.Version>
2022.2.0

> <Gold.Id.Protein>
3pbl|protein|mol2

> <Gold.Protein.RotatedTorsions>
[ 1303 1298 1297 1294 ] final  -52.55 input  179.99 | X-H torsion
[ 2461 2456 2455 2452 ] final  143.88 input   30.03 | X-H torsion
[ 2515 2510 2509 2506 ] final   21.55 input  -89.99 | X-H torsion
[ 3721 3712 3711 3710 ] final    2.90 input -179.91 | X-H torsion
[ 3841 3832 3831 3830 ] final  101.04 input -179.91 | X-H torsion
[ 3767 3762 3761 3758 ] final  114.77 input  -89.99 | X-H torsion
[ 2472 2467 2466 2463 ] final  -64.85 input  -89.97 | X-H torsion

> <Gold.Protein.ActiveResidues>
 VAL82   VAL86   LEU89   PHE106  VAL107  ASP110  VAL111  MET112  CYS114  THR115 
 CYS181  SER182  ILE183  PHE188  VAL189  ILE190  SER192  SER193  SER196  TRP342 
 PHE345  PHE346  HIS349  VAL350  TYR365  THR369  GLY372  TYR373 

> <Gold.Protein.RotatedAtoms>
    3.4405   -9.0841    3.7792 H   0  0  0  0  0  0  0  0  0  0  0  0  # atno 1303 bound_to 1298
    1.9374   -8.9193    8.2737 H   0  0  0  0  0  0  0  0  0  0  0  0  # atno 2461 bound_to 2456
   -3.7644   -5.2153    9.0250 H   0  0  0  0  0  0  0  0  0  0  0  0  # atno 2472 bound_to 2467
    2.3906   -7.4582    4.8770 H   0  0  0  0  0  0  0  0  0  0  0  0  # atno 2515 bound_to 2510
   -2.4813  -17.9727   14.2019 H   0  0  0  0  0  0  0  0  0  0  0  0  # atno 3721 bound_to 3712
   -3.9829  -23.2260   10.8314 H   0  0  0  0  0  0  0  0  0  0  0  0  # atno 3767 bound_to 3762
    2.9501  -20.8678    9.1483 H   0  0  0  0  0  0  0  0  0  0  0  0  # atno 3841 bound_to 3832
    4.8111   -8.7823    4.6139 LP  0  0  0  0  0  0  0  0  0  0  0  0  # atno 4297 bound_to 1298
    4.1109  -10.2551    4.6988 LP  0  0  0  0  0  0  0  0  0  0  0  0  # atno 4298 bound_to 1298
    1.4198   -7.9175    7.0922 LP  0  0  0  0  0  0  0  0  0  0  0  0  # atno 4299 bound_to 2456
    0.3808   -8.9714    7.7824 LP  0  0  0  0  0  0  0  0  0  0  0  0  # atno 4300 bound_to 2456
    2.8008   -9.0294    4.7073 LP  0  0  0  0  0  0  0  0  0  0  0  0  # atno 4301 bound_to 2510
    2.1054   -8.5119    6.0912 LP  0  0  0  0  0  0  0  0  0  0  0  0  # atno 4302 bound_to 2510
   -3.4250  -16.7070   14.4942 LP  0  0  0  0  0  0  0  0  0  0  0  0  # atno 4306 bound_to 3712
   -3.2379  -17.2696   12.9726 LP  0  0  0  0  0  0  0  0  0  0  0  0  # atno 4307 bound_to 3712
    1.4350  -20.3700    9.3292 LP  0  0  0  0  0  0  0  0  0  0  0  0  # atno 4314 bound_to 3832
    2.3865  -19.7298    8.1667 LP  0  0  0  0  0  0  0  0  0  0  0  0  # atno 4315 bound_to 3832
   -5.3678  -22.6527   10.1831 LP  0  0  0  0  0  0  0  0  0  0  0  0  # atno 4318 bound_to 3762
   -4.7764  -21.9966   11.5566 LP  0  0  0  0  0  0  0  0  0  0  0  0  # atno 4319 bound_to 3762
   -5.3886   -5.3678    8.9544 LP  0  0  0  0  0  0  0  0  0  0  0  0  # atno 4320 bound_to 2467
   -4.5638   -4.8105    7.6599 LP  0  0  0  0  0  0  0  0  0  0  0  0  # atno 4321 bound_to 2467

> <Gold.Score>
     Score     S(PLP)   S(hbond)     S(cho)   S(metal)  DE(clash)   DE(tors)     intcor
     39.51     -39.56       0.00       0.00       0.00       0.03       0.19       0.36

> <Gold.PLP.Fitness>
39.5109

> <Gold.PLP.PLP>
-39.5587

> <Gold.PLP.part.hbond>
0.0000

> <Gold.PLP.part.metal>
0.0000

> <Gold.PLP.part.buried>
-3.6356

> <Gold.PLP.part.nonpolar>
-36.4277

> <Gold.PLP.part.repulsive>
0.1576

> <Gold.PLP.ligand.clash>
0.0263

> <Gold.PLP.ligand.torsion>
0.1930

> <Gold.PLP.Chemscore.Hbond>
0.0000

> <Gold.PLP.Chemscore.CHOScore>
0.0000

> <Gold.PLP.Chemscore.Metal>
0.0000

> <Gold.PLP.Chemscore.Internal.Correction>
0.3645

