#       Name:                EN300-223795_i001
#       Creating user name   fsindt
#       Creation time:       Tue Feb 28 19:26:55 2023


#       File generated by GOLD software.
#

@<TRIPOS>MOLECULE
EN300-223795_i001|acide_2|mol2|6724|dock9
    14    14     1
SMALL
USER_CHARGES


@<TRIPOS>ATOM
      1 O1           0.1515 -19.4036  10.7042 O.co2          1 <1>               -1.0000
      2 C2          -0.1464 -19.0876  11.8487 C.2            1 <1>                0.0000
      3 O3          -0.9968 -18.2294  12.0449 O.co2          1 <1>                0.0000
      4 C4           0.5117 -19.7418  12.9853 C.2            1 <1>                0.0000
      5 C5           0.4734 -21.1681  13.2166 C.2            1 <1>                0.0000
      6 C6           1.1374 -21.5371  14.3043 C.2            1 <1>                0.0000
      7 S7           1.8450 -20.1424  15.1003 S.3            1 <1>                0.0000
      8 C8           1.2276 -19.0683  13.9297 C.2            1 <1>                0.0000
      9 C9           1.4375 -17.5761  13.9419 C.3            1 <1>                0.0000
     10 F10          2.2838 -17.2328  15.0017 F              1 <1>                0.0000
     11 F11          2.0182 -17.1770  12.7333 F              1 <1>                0.0000
     12 F12          0.2053 -16.9331  14.1020 F              1 <1>                0.0000
     13 H13         -0.0431 -21.8623  12.5704 H              1 <1>                0.0000
     14 H14          1.2297 -22.5554  14.6519 H              1 <1>                0.0000
@<TRIPOS>BOND
    1    1    2 ar    
    2    2    3 ar    
    3    2    4 1     
    4    4    5 1     
    5    4    8 2     
    6    5    6 2     
    7    5   13 1     
    8    6    7 1     
    9    6   14 1     
   10    7    8 1     
   11    8    9 1     
   12    9   10 1     
   13    9   11 1     
   14    9   12 1     
@<TRIPOS>SUBSTRUCTURE
      1 ****           1
@<TRIPOS>COMMENT
> <Gold.Version>
2022.2.0

> <Gold.Id.Protein>
3pbl|protein|mol2

> <Gold.Protein.RotatedTorsions>
[ 1303 1298 1297 1294 ] final  155.36 input  179.99 | X-H torsion
[ 2461 2456 2455 2452 ] final  -40.77 input   30.03 | X-H torsion
[ 2515 2510 2509 2506 ] final   91.22 input  -89.99 | X-H torsion
[ 3721 3712 3711 3710 ] final   67.38 input -179.91 | X-H torsion
[ 3841 3832 3831 3830 ] final  -28.62 input -179.91 | X-H torsion
[ 3767 3762 3761 3758 ] final   12.93 input  -89.99 | X-H torsion
[ 2472 2467 2466 2463 ] final -118.30 input  -89.97 | X-H torsion

> <Gold.Protein.ActiveResidues>
 VAL82   VAL86   LEU89   PHE106  VAL107  ASP110  VAL111  MET112  CYS114  THR115 
 CYS181  SER182  ILE183  PHE188  VAL189  ILE190  SER192  SER193  SER196  TRP342 
 PHE345  PHE346  HIS349  VAL350  TYR365  THR369  GLY372  TYR373 

> <Gold.Protein.RotatedAtoms>
    4.9107   -9.2317    4.8581 H   0  0  0  0  0  0  0  0  0  0  0  0  # atno 1303 bound_to 1298
    0.5080   -8.3366    7.1926 H   0  0  0  0  0  0  0  0  0  0  0  0  # atno 2461 bound_to 2456
   -4.4737   -5.4399    9.4317 H   0  0  0  0  0  0  0  0  0  0  0  0  # atno 2472 bound_to 2467
    2.0415   -7.7491    5.8532 H   0  0  0  0  0  0  0  0  0  0  0  0  # atno 2515 bound_to 2510
   -2.6326  -17.8489   13.2986 H   0  0  0  0  0  0  0  0  0  0  0  0  # atno 3721 bound_to 3712
   -5.1920  -22.8721   10.0857 H   0  0  0  0  0  0  0  0  0  0  0  0  # atno 3767 bound_to 3762
    1.5742  -20.1472    9.3551 H   0  0  0  0  0  0  0  0  0  0  0  0  # atno 3841 bound_to 3832
    3.6919  -10.2130    4.3913 LP  0  0  0  0  0  0  0  0  0  0  0  0  # atno 4297 bound_to 1298
    3.7593   -8.6767    3.8420 LP  0  0  0  0  0  0  0  0  0  0  0  0  # atno 4298 bound_to 1298
    1.1456   -9.2832    8.3608 LP  0  0  0  0  0  0  0  0  0  0  0  0  # atno 4299 bound_to 2456
    2.0840   -8.1883    7.5946 LP  0  0  0  0  0  0  0  0  0  0  0  0  # atno 4300 bound_to 2456
    2.7146   -8.0044    4.3877 LP  0  0  0  0  0  0  0  0  0  0  0  0  # atno 4301 bound_to 2510
    2.5409   -9.2460    5.4341 LP  0  0  0  0  0  0  0  0  0  0  0  0  # atno 4302 bound_to 2510
   -2.9246  -17.5260   14.8440 LP  0  0  0  0  0  0  0  0  0  0  0  0  # atno 4306 bound_to 3712
   -3.5637  -16.5935   13.6656 LP  0  0  0  0  0  0  0  0  0  0  0  0  # atno 4307 bound_to 3712
    2.5714  -19.8266    8.1390 LP  0  0  0  0  0  0  0  0  0  0  0  0  # atno 4314 bound_to 3832
    2.8396  -21.1057    9.1181 LP  0  0  0  0  0  0  0  0  0  0  0  0  # atno 4315 bound_to 3832
   -5.0223  -21.9246   11.4049 LP  0  0  0  0  0  0  0  0  0  0  0  0  # atno 4318 bound_to 3762
   -3.9132  -23.0784   11.0801 LP  0  0  0  0  0  0  0  0  0  0  0  0  # atno 4319 bound_to 3762
   -5.4292   -5.0846    8.1562 LP  0  0  0  0  0  0  0  0  0  0  0  0  # atno 4320 bound_to 2467
   -3.8139   -4.8691    8.0514 LP  0  0  0  0  0  0  0  0  0  0  0  0  # atno 4321 bound_to 2467

> <Gold.Score>
     Score     S(PLP)   S(hbond)     S(cho)   S(metal)  DE(clash)   DE(tors)     intcor
     31.73     -27.65       2.00       0.00       0.00       0.00       1.14       0.36

> <Gold.PLP.Fitness>
31.7265

> <Gold.PLP.PLP>
-27.6471

> <Gold.PLP.part.hbond>
-2.0000

> <Gold.PLP.part.metal>
0.0000

> <Gold.PLP.part.buried>
-2.9271

> <Gold.PLP.part.nonpolar>
-23.9461

> <Gold.PLP.part.repulsive>
0.1450

> <Gold.PLP.ligand.clash>
0.0000

> <Gold.PLP.ligand.torsion>
1.1425

> <Gold.PLP.Chemscore.Hbond>
2.0000

> <Gold.PLP.Chemscore.CHOScore>
0.0000

> <Gold.PLP.Chemscore.Metal>
0.0000

> <Gold.Chemscore.Hbonds>
donor molecule, donor type, donor heavy atom, donor atom, acceptor molecule, acceptor atom, score
      P1  H  3712  3721       L1     3  1.00
      P1  H  3832  3841       L1     1  1.00

> <Gold.PLP.Chemscore.Internal.Correction>
0.3645

