#       Name:                EN300-223795_i001
#       Creating user name   fsindt
#       Creation time:       Tue Feb 28 19:26:51 2023


#       File generated by GOLD software.
#

@<TRIPOS>MOLECULE
EN300-223795_i001|acide_2|mol2|6724|dock1
    14    14     1
SMALL
USER_CHARGES


@<TRIPOS>ATOM
      1 O1           1.3675 -12.0336   7.0802 O.co2          1 <1>               -1.0000
      2 C2           0.5371 -11.8562   7.9619 C.2            1 <1>                0.0000
      3 O3          -0.1290 -10.8294   7.9775 O.co2          1 <1>                0.0000
      4 C4           0.3362 -12.8769   8.9965 C.2            1 <1>                0.0000
      5 C5           0.8054 -14.2388   8.8757 C.2            1 <1>                0.0000
      6 C6           0.5117 -14.9862   9.9318 C.2            1 <1>                0.0000
      7 S7          -0.3599 -14.0475  11.1312 S.3            1 <1>                0.0000
      8 C8          -0.3074 -12.6381  10.1742 C.2            1 <1>                0.0000
      9 C9          -0.8993 -11.3106  10.5722 C.3            1 <1>                0.0000
     10 F10          0.0895 -10.3226  10.5131 F              1 <1>                0.0000
     11 F11         -1.9395 -10.9823   9.6962 F              1 <1>                0.0000
     12 F12         -1.3973 -11.3945  11.8769 F              1 <1>                0.0000
     13 H13          1.3400 -14.6100   8.0139 H              1 <1>                0.0000
     14 H14          0.7730 -16.0286  10.0385 H              1 <1>                0.0000
@<TRIPOS>BOND
    1    1    2 ar    
    2    2    3 ar    
    3    2    4 1     
    4    4    5 1     
    5    4    8 2     
    6    5    6 2     
    7    5   13 1     
    8    6    7 1     
    9    6   14 1     
   10    7    8 1     
   11    8    9 1     
   12    9   10 1     
   13    9   11 1     
   14    9   12 1     
@<TRIPOS>SUBSTRUCTURE
      1 ****           1
@<TRIPOS>COMMENT
> <Gold.Version>
2022.2.0

> <Gold.Id.Protein>
3pbl|protein|mol2

> <Gold.Protein.RotatedTorsions>
[ 1303 1298 1297 1294 ] final -144.97 input  179.99 | X-H torsion
[ 2461 2456 2455 2452 ] final -105.17 input   30.03 | X-H torsion
[ 2515 2510 2509 2506 ] final -133.77 input  -89.99 | X-H torsion
[ 3721 3712 3711 3710 ] final   26.70 input -179.91 | X-H torsion
[ 3841 3832 3831 3830 ] final -171.68 input -179.91 | X-H torsion
[ 3767 3762 3761 3758 ] final  140.54 input  -89.99 | X-H torsion
[ 2472 2467 2466 2463 ] final -132.89 input  -89.97 | X-H torsion

> <Gold.Protein.ActiveResidues>
 VAL82   VAL86   LEU89   PHE106  VAL107  ASP110  VAL111  MET112  CYS114  THR115 
 CYS181  SER182  ILE183  PHE188  VAL189  ILE190  SER192  SER193  SER196  TRP342 
 PHE345  PHE346  HIS349  VAL350  TYR365  THR369  GLY372  TYR373 

> <Gold.Protein.RotatedAtoms>
    4.5531   -8.5365    4.3398 H   0  0  0  0  0  0  0  0  0  0  0  0  # atno 1303 bound_to 1298
    0.4383   -9.0580    7.8890 H   0  0  0  0  0  0  0  0  0  0  0  0  # atno 2461 bound_to 2456
   -4.7118   -5.4613    9.4184 H   0  0  0  0  0  0  0  0  0  0  0  0  # atno 2472 bound_to 2467
    2.6379   -9.2526    5.2080 H   0  0  0  0  0  0  0  0  0  0  0  0  # atno 2515 bound_to 2510
   -2.4773  -18.0344   13.8501 H   0  0  0  0  0  0  0  0  0  0  0  0  # atno 3721 bound_to 3712
   -3.9066  -23.0015   11.1787 H   0  0  0  0  0  0  0  0  0  0  0  0  # atno 3767 bound_to 3762
    2.8797  -19.9578    8.3772 H   0  0  0  0  0  0  0  0  0  0  0  0  # atno 3841 bound_to 3832
    4.4782  -10.0743    4.8839 LP  0  0  0  0  0  0  0  0  0  0  0  0  # atno 4297 bound_to 1298
    3.3307   -9.5109    3.8679 LP  0  0  0  0  0  0  0  0  0  0  0  0  # atno 4298 bound_to 1298
    2.0230   -8.8195    8.2039 LP  0  0  0  0  0  0  0  0  0  0  0  0  # atno 4299 bound_to 2456
    1.2762   -7.9308    7.0554 LP  0  0  0  0  0  0  0  0  0  0  0  0  # atno 4300 bound_to 2456
    2.0285   -7.9543    5.9883 LP  0  0  0  0  0  0  0  0  0  0  0  0  # atno 4301 bound_to 2510
    2.6302   -7.7917    4.4790 LP  0  0  0  0  0  0  0  0  0  0  0  0  # atno 4302 bound_to 2510
   -3.2585  -16.9579   14.7494 LP  0  0  0  0  0  0  0  0  0  0  0  0  # atno 4306 bound_to 3712
   -3.4091  -16.9474   13.1234 LP  0  0  0  0  0  0  0  0  0  0  0  0  # atno 4307 bound_to 3712
    2.4969  -21.1554    9.3748 LP  0  0  0  0  0  0  0  0  0  0  0  0  # atno 4314 bound_to 3832
    1.4060  -19.9957    9.0119 LP  0  0  0  0  0  0  0  0  0  0  0  0  # atno 4315 bound_to 3832
   -5.1033  -22.9586   10.0682 LP  0  0  0  0  0  0  0  0  0  0  0  0  # atno 4318 bound_to 3762
   -5.1172  -21.9151   11.3243 LP  0  0  0  0  0  0  0  0  0  0  0  0  # atno 4319 bound_to 3762
   -5.3057   -5.0031    7.9679 LP  0  0  0  0  0  0  0  0  0  0  0  0  # atno 4320 bound_to 2467
   -3.6994   -4.9291    8.2530 LP  0  0  0  0  0  0  0  0  0  0  0  0  # atno 4321 bound_to 2467

> <Gold.Score>
     Score     S(PLP)   S(hbond)     S(cho)   S(metal)  DE(clash)   DE(tors)     intcor
     44.97     -39.00       1.00       1.00       0.00       0.03       0.18       0.36

> <Gold.PLP.Fitness>
44.9720

> <Gold.PLP.PLP>
-38.9973

> <Gold.PLP.part.hbond>
-1.0000

> <Gold.PLP.part.metal>
0.0000

> <Gold.PLP.part.buried>
-3.5307

> <Gold.PLP.part.nonpolar>
-36.2831

> <Gold.PLP.part.repulsive>
0.0777

> <Gold.PLP.ligand.clash>
0.0340

> <Gold.PLP.ligand.torsion>
0.1779

> <Gold.PLP.Chemscore.Hbond>
1.0000

> <Gold.PLP.Chemscore.CHOScore>
1.0000

> <Gold.PLP.Chemscore.Metal>
0.0000

> <Gold.Chemscore.Hbonds>
donor molecule, donor type, donor heavy atom, donor atom, acceptor molecule, acceptor atom, score
      P1  H  2456  2461       L1     3  1.00
      L1  C     6    14       P1  1227  1.00

> <Gold.PLP.Chemscore.Internal.Correction>
0.3645

