#       Name:                EN300-223795_i001
#       Creating user name   fsindt
#       Creation time:       Tue Feb 28 19:26:56 2023


#       File generated by GOLD software.
#

@<TRIPOS>MOLECULE
EN300-223795_i001|acide_2|mol2|6724|dock12
    14    14     1
SMALL
USER_CHARGES


@<TRIPOS>ATOM
      1 O1           0.2993 -15.0882   8.0785 O.co2          1 <1>               -1.0000
      2 C2           0.4412 -13.8759   8.1706 C.2            1 <1>                0.0000
      3 O3           1.1972 -13.2885   7.4079 O.co2          1 <1>                0.0000
      4 C4          -0.2996 -13.1259   9.1912 C.2            1 <1>                0.0000
      5 C5          -1.0035 -11.8926   8.9212 C.2            1 <1>                0.0000
      6 C6          -1.6025 -11.3898   9.9929 C.2            1 <1>                0.0000
      7 S7          -1.3286 -12.4129  11.3922 S.3            1 <1>                0.0000
      8 C8          -0.4003 -13.5228  10.4913 C.2            1 <1>                0.0000
      9 C9           0.2303 -14.7690  11.0572 C.3            1 <1>                0.0000
     10 F10          1.6188 -14.7019  10.8994 F              1 <1>                0.0000
     11 F11         -0.0800 -14.8724  12.4174 F              1 <1>                0.0000
     12 F12         -0.2623 -15.8897  10.3800 F              1 <1>                0.0000
     13 H13         -1.0380 -11.4279   7.9470 H              1 <1>                0.0000
     14 H14         -2.1790 -10.4766  10.0029 H              1 <1>                0.0000
@<TRIPOS>BOND
    1    1    2 ar    
    2    2    3 ar    
    3    2    4 1     
    4    4    5 1     
    5    4    8 2     
    6    5    6 2     
    7    5   13 1     
    8    6    7 1     
    9    6   14 1     
   10    7    8 1     
   11    8    9 1     
   12    9   10 1     
   13    9   11 1     
   14    9   12 1     
@<TRIPOS>SUBSTRUCTURE
      1 ****           1
@<TRIPOS>COMMENT
> <Gold.Version>
2022.2.0

> <Gold.Id.Protein>
3pbl|protein|mol2

> <Gold.Protein.RotatedTorsions>
[ 1303 1298 1297 1294 ] final    7.78 input  179.99 | X-H torsion
[ 2461 2456 2455 2452 ] final  117.17 input   30.03 | X-H torsion
[ 2515 2510 2509 2506 ] final   87.14 input  -89.99 | X-H torsion
[ 3721 3712 3711 3710 ] final   10.31 input -179.91 | X-H torsion
[ 3841 3832 3831 3830 ] final   44.28 input -179.91 | X-H torsion
[ 3767 3762 3761 3758 ] final   47.47 input  -89.99 | X-H torsion
[ 2472 2467 2466 2463 ] final  -52.82 input  -89.97 | X-H torsion

> <Gold.Protein.ActiveResidues>
 VAL82   VAL86   LEU89   PHE106  VAL107  ASP110  VAL111  MET112  CYS114  THR115 
 CYS181  SER182  ILE183  PHE188  VAL189  ILE190  SER192  SER193  SER196  TRP342 
 PHE345  PHE346  HIS349  VAL350  TYR365  THR369  GLY372  TYR373 

> <Gold.Protein.RotatedAtoms>
    3.4327   -9.9690    4.1172 H   0  0  0  0  0  0  0  0  0  0  0  0  # atno 1303 bound_to 1298
    2.1334   -8.6119    8.0351 H   0  0  0  0  0  0  0  0  0  0  0  0  # atno 2461 bound_to 2456
   -3.6829   -5.1464    8.8587 H   0  0  0  0  0  0  0  0  0  0  0  0  # atno 2472 bound_to 2467
    2.0496   -7.6996    5.8086 H   0  0  0  0  0  0  0  0  0  0  0  0  # atno 2515 bound_to 2510
   -2.4721  -18.0054   14.0953 H   0  0  0  0  0  0  0  0  0  0  0  0  # atno 3721 bound_to 3712
   -4.7438  -23.2062   10.1153 H   0  0  0  0  0  0  0  0  0  0  0  0  # atno 3767 bound_to 3762
    2.2559  -20.8808    9.5899 H   0  0  0  0  0  0  0  0  0  0  0  0  # atno 3841 bound_to 3832
    4.1263   -8.4936    4.0260 LP  0  0  0  0  0  0  0  0  0  0  0  0  # atno 4297 bound_to 1298
    4.8034   -9.6585    4.9485 LP  0  0  0  0  0  0  0  0  0  0  0  0  # atno 4298 bound_to 1298
    0.9973   -8.0042    7.0313 LP  0  0  0  0  0  0  0  0  0  0  0  0  # atno 4299 bound_to 2456
    0.6074   -9.1920    8.0818 LP  0  0  0  0  0  0  0  0  0  0  0  0  # atno 4300 bound_to 2456
    2.7344   -8.0667    4.3726 LP  0  0  0  0  0  0  0  0  0  0  0  0  # atno 4301 bound_to 2510
    2.5129   -9.2332    5.4938 LP  0  0  0  0  0  0  0  0  0  0  0  0  # atno 4302 bound_to 2510
   -3.3782  -16.7743   14.5866 LP  0  0  0  0  0  0  0  0  0  0  0  0  # atno 4306 bound_to 3712
   -3.2954  -17.1645   13.0031 LP  0  0  0  0  0  0  0  0  0  0  0  0  # atno 4307 bound_to 3712
    1.5753  -19.7451    8.6827 LP  0  0  0  0  0  0  0  0  0  0  0  0  # atno 4314 bound_to 3832
    3.0481  -20.3397    8.3032 LP  0  0  0  0  0  0  0  0  0  0  0  0  # atno 4315 bound_to 3832
   -5.3858  -21.9808   10.9830 LP  0  0  0  0  0  0  0  0  0  0  0  0  # atno 4318 bound_to 3762
   -3.9978  -22.6883   11.4725 LP  0  0  0  0  0  0  0  0  0  0  0  0  # atno 4319 bound_to 3762
   -5.2745   -5.4112    9.1097 LP  0  0  0  0  0  0  0  0  0  0  0  0  # atno 4320 bound_to 2467
   -4.7594   -4.8359    7.6708 LP  0  0  0  0  0  0  0  0  0  0  0  0  # atno 4321 bound_to 2467

> <Gold.Score>
     Score     S(PLP)   S(hbond)     S(cho)   S(metal)  DE(clash)   DE(tors)     intcor
     31.52     -32.71       0.00       0.00       0.00       0.00       0.78       0.36

> <Gold.PLP.Fitness>
31.5183

> <Gold.PLP.PLP>
-32.7119

> <Gold.PLP.part.hbond>
0.0000

> <Gold.PLP.part.metal>
0.0000

> <Gold.PLP.part.buried>
-3.7765

> <Gold.PLP.part.nonpolar>
-29.3657

> <Gold.PLP.part.repulsive>
0.1843

> <Gold.PLP.ligand.clash>
0.0000

> <Gold.PLP.ligand.torsion>
0.7790

> <Gold.PLP.Chemscore.Hbond>
0.0000

> <Gold.PLP.Chemscore.CHOScore>
0.0000

> <Gold.PLP.Chemscore.Metal>
0.0000

> <Gold.PLP.Chemscore.Internal.Correction>
0.3645

