#       Name:                EN300-124870_i001
#       Creating user name   fsindt
#       Creation time:       Tue Feb 28 11:59:00 2023


#       File generated by GOLD software.
#

@<TRIPOS>MOLECULE
EN300-124870_i001|amine_4|mol2|5079|dock6
    25    26     1
SMALL
USER_CHARGES


@<TRIPOS>ATOM
      1 N1           0.5102 -16.1610  11.0299 N.4            1 <1>                1.0000
      2 C2           0.7949 -14.7408  10.7849 C.3            1 <1>                0.0000
      3 C3          -0.3941 -13.8206  10.4999 C.3            1 <1>                0.0000
      4 C4           0.5616 -14.2079   9.3719 C.3            1 <1>                0.0000
      5 C5           0.0521 -15.1911   8.3139 C.3            1 <1>                0.0000
      6 C6          -0.5683 -14.3991   7.1590 C.3            1 <1>                0.0000
      7 C7           0.4648 -13.4193   6.6005 C.3            1 <1>                0.0000
      8 C8           0.8518 -12.4042   7.6769 C.3            1 <1>                0.0000
      9 C9           1.5178 -13.1320   8.8486 C.3            1 <1>                0.0000
     10 H10          1.6298 -14.3246  11.3488 H              1 <1>                0.0000
     11 H11         -1.3876 -14.2690  10.4941 H              1 <1>                0.0000
     12 H12         -0.3412 -12.7988  10.8759 H              1 <1>                0.0000
     13 H13          0.8835 -15.7895   7.9412 H              1 <1>                0.0000
     14 H14         -0.7009 -15.8441   8.7550 H              1 <1>                0.0000
     15 H15         -0.8794 -15.0868   6.3725 H              1 <1>                0.0000
     16 H16         -1.4347 -13.8461   7.5217 H              1 <1>                0.0000
     17 H17          1.3516 -13.9688   6.2851 H              1 <1>                0.0000
     18 H18          0.0409 -12.8953   5.7438 H              1 <1>                0.0000
     19 H19          1.5476 -11.6774   7.2576 H              1 <1>                0.0000
     20 H20         -0.0423 -11.8898   8.0295 H              1 <1>                0.0000
     21 H21          1.7363 -12.4196   9.6441 H              1 <1>                0.0000
     22 H22          2.4427 -13.5989   8.5101 H              1 <1>                0.0000
     23 H23         -0.2539 -16.4572  10.4412 H              1 <1>                0.0000
     24 H24          1.3301 -16.7098  10.8184 H              1 <1>                0.0000
     25 H25          0.2588 -16.2914  11.9983 H              1 <1>                0.0000
@<TRIPOS>BOND
    1    1    2 1     
    2    1   23 1     
    3    1   24 1     
    4    1   25 1     
    5    2    3 1     
    6    2    4 1     
    7    2   10 1     
    8    3    4 1     
    9    3   11 1     
   10    3   12 1     
   11    4    5 1     
   12    4    9 1     
   13    5    6 1     
   14    5   13 1     
   15    5   14 1     
   16    6    7 1     
   17    6   15 1     
   18    6   16 1     
   19    7    8 1     
   20    7   17 1     
   21    7   18 1     
   22    8    9 1     
   23    8   19 1     
   24    8   20 1     
   25    9   21 1     
   26    9   22 1     
@<TRIPOS>SUBSTRUCTURE
      1 ****           1
@<TRIPOS>SET
DONOR_HYDROGENS      STATIC     ATOMS    <user>   **** ""
3 23 24 25
ATOM$RED        STATIC     ATOMS    COLORGROUP SYSTEM
3 23 24 25
@<TRIPOS>COMMENT
> <Gold.Version>
2022.2.0

> <Gold.Id.Protein>
3pbl|protein|mol2

> <Gold.Protein.RotatedTorsions>
[ 1303 1298 1297 1294 ] final  116.44 input  179.99 | X-H torsion
[ 2461 2456 2455 2452 ] final  -35.09 input   30.03 | X-H torsion
[ 2515 2510 2509 2506 ] final   96.24 input  -89.99 | X-H torsion
[ 3721 3712 3711 3710 ] final   44.81 input -179.91 | X-H torsion
[ 3841 3832 3831 3830 ] final  -40.08 input -179.91 | X-H torsion
[ 3767 3762 3761 3758 ] final  175.04 input  -89.99 | X-H torsion
[ 2472 2467 2466 2463 ] final  106.84 input  -89.97 | X-H torsion

> <Gold.Protein.ActiveResidues>
 VAL82   VAL86   LEU89   PHE106  VAL107  ASP110  VAL111  MET112  CYS114  THR115 
 CYS181  SER182  ILE183  PHE188  VAL189  ILE190  SER192  SER193  SER196  TRP342 
 PHE345  PHE346  HIS349  VAL350  TYR365  THR369  GLY372  TYR373 

> <Gold.Protein.RotatedAtoms>
    4.7109   -9.8203    4.9477 H   0  0  0  0  0  0  0  0  0  0  0  0  # atno 1303 bound_to 1298
    0.5652   -8.2753    7.1514 H   0  0  0  0  0  0  0  0  0  0  0  0  # atno 2461 bound_to 2456
   -5.3028   -5.0023    7.9644 H   0  0  0  0  0  0  0  0  0  0  0  0  # atno 2472 bound_to 2467
    2.0342   -7.8139    5.9035 H   0  0  0  0  0  0  0  0  0  0  0  0  # atno 2515 bound_to 2510
   -2.5233  -17.9953   13.5842 H   0  0  0  0  0  0  0  0  0  0  0  0  # atno 3721 bound_to 3712
   -4.0523  -22.5939   11.5329 H   0  0  0  0  0  0  0  0  0  0  0  0  # atno 3767 bound_to 3762
    1.5614  -20.0148    9.2446 H   0  0  0  0  0  0  0  0  0  0  0  0  # atno 3841 bound_to 3832
    3.3694   -9.8254    4.0168 LP  0  0  0  0  0  0  0  0  0  0  0  0  # atno 4297 bound_to 1298
    4.2817   -8.4755    4.1269 LP  0  0  0  0  0  0  0  0  0  0  0  0  # atno 4298 bound_to 1298
    1.0560   -9.2884    8.3347 LP  0  0  0  0  0  0  0  0  0  0  0  0  # atno 4299 bound_to 2456
    2.1163   -8.2444    7.6619 LP  0  0  0  0  0  0  0  0  0  0  0  0  # atno 4300 bound_to 2456
    2.6883   -7.9301    4.4121 LP  0  0  0  0  0  0  0  0  0  0  0  0  # atno 4301 bound_to 2510
    2.5744   -9.2554    5.3593 LP  0  0  0  0  0  0  0  0  0  0  0  0  # atno 4302 bound_to 2510
   -3.1105  -17.2006   14.8496 LP  0  0  0  0  0  0  0  0  0  0  0  0  # atno 4306 bound_to 3712
   -3.5040  -16.7497   13.3303 LP  0  0  0  0  0  0  0  0  0  0  0  0  # atno 4307 bound_to 3712
    2.7264  -19.9386    8.1432 LP  0  0  0  0  0  0  0  0  0  0  0  0  # atno 4314 bound_to 3832
    2.6994  -21.1466    9.2416 LP  0  0  0  0  0  0  0  0  0  0  0  0  # atno 4315 bound_to 3832
   -4.6383  -23.2553   10.1596 LP  0  0  0  0  0  0  0  0  0  0  0  0  # atno 4318 bound_to 3762
   -5.4366  -22.0258   10.8789 LP  0  0  0  0  0  0  0  0  0  0  0  0  # atno 4319 bound_to 3762
   -3.6979   -4.9304    8.2568 LP  0  0  0  0  0  0  0  0  0  0  0  0  # atno 4320 bound_to 2467
   -4.7164   -5.4608    9.4178 LP  0  0  0  0  0  0  0  0  0  0  0  0  # atno 4321 bound_to 2467

> <Gold.Score>
     Score     S(PLP)   S(hbond)     S(cho)   S(metal)  DE(clash)   DE(tors)     intcor
     35.28     -29.28       2.00       0.00       0.00       0.00       0.00       0.00

> <Gold.PLP.Fitness>
35.2782

> <Gold.PLP.PLP>
-29.2782

> <Gold.PLP.part.hbond>
-1.0000

> <Gold.PLP.part.metal>
0.0000

> <Gold.PLP.part.buried>
-2.3049

> <Gold.PLP.part.nonpolar>
-26.0913

> <Gold.PLP.part.repulsive>
0.0000

> <Gold.PLP.ligand.clash>
0.0000

> <Gold.PLP.ligand.torsion>
0.0000

> <Gold.PLP.Chemscore.Hbond>
2.0000

> <Gold.PLP.Chemscore.CHOScore>
0.0000

> <Gold.PLP.Chemscore.Metal>
0.0000

> <Gold.Chemscore.Hbonds>
donor molecule, donor type, donor heavy atom, donor atom, acceptor molecule, acceptor atom, score
      L1  H     1    24       P1  1227  2.00

> <Gold.PLP.Chemscore.Internal.Correction>
0.0000

