#       Name:                EN300-124870_i001
#       Creating user name   fsindt
#       Creation time:       Tue Feb 28 11:58:58 2023


#       File generated by GOLD software.
#

@<TRIPOS>MOLECULE
EN300-124870_i001|amine_4|mol2|5079|dock1
    25    26     1
SMALL
USER_CHARGES


@<TRIPOS>ATOM
      1 N1           1.1626 -16.1988   7.4400 N.4            1 <1>                1.0000
      2 C2           0.1599 -15.3193   8.0557 C.3            1 <1>                0.0000
      3 C3          -0.8381 -14.6258   7.1258 C.3            1 <1>                0.0000
      4 C4           0.2780 -13.8193   7.7890 C.3            1 <1>                0.0000
      5 C5           1.4326 -13.3411   6.9037 C.3            1 <1>                0.0000
      6 C6           1.1019 -11.9442   6.3694 C.3            1 <1>                0.0000
      7 C7           0.8322 -11.0008   7.5426 C.3            1 <1>                0.0000
      8 C8          -0.3938 -11.4793   8.3217 C.3            1 <1>                0.0000
      9 C9          -0.1112 -12.8613   8.9188 C.3            1 <1>                0.0000
     10 H10         -0.1984 -15.6298   9.0372 H              1 <1>                0.0000
     11 H11         -0.7506 -14.8220   6.0572 H              1 <1>                0.0000
     12 H12         -1.8530 -14.4795   7.4958 H              1 <1>                0.0000
     13 H13          2.3500 -13.2996   7.4910 H              1 <1>                0.0000
     14 H14          1.5623 -14.0301   6.0691 H              1 <1>                0.0000
     15 H15          1.9438 -11.5690   5.7874 H              1 <1>                0.0000
     16 H16          0.2169 -11.9978   5.7353 H              1 <1>                0.0000
     17 H17          1.6989 -10.9876   8.2034 H              1 <1>                0.0000
     18 H18          0.6511  -9.9947   7.1642 H              1 <1>                0.0000
     19 H19         -0.6123 -10.7746   9.1239 H              1 <1>                0.0000
     20 H20         -1.2497 -11.5419   7.6496 H              1 <1>                0.0000
     21 H21         -1.0053 -13.2321   9.4200 H              1 <1>                0.0000
     22 H22          0.7075 -12.7893   9.6347 H              1 <1>                0.0000
     23 H23          1.9682 -15.6539   7.1711 H              1 <1>                0.0000
     24 H24          1.4414 -16.9067   8.1027 H              1 <1>                0.0000
     25 H25          0.7671 -16.6398   6.6232 H              1 <1>                0.0000
@<TRIPOS>BOND
    1    1    2 1     
    2    1   23 1     
    3    1   24 1     
    4    1   25 1     
    5    2    3 1     
    6    2    4 1     
    7    2   10 1     
    8    3    4 1     
    9    3   11 1     
   10    3   12 1     
   11    4    5 1     
   12    4    9 1     
   13    5    6 1     
   14    5   13 1     
   15    5   14 1     
   16    6    7 1     
   17    6   15 1     
   18    6   16 1     
   19    7    8 1     
   20    7   17 1     
   21    7   18 1     
   22    8    9 1     
   23    8   19 1     
   24    8   20 1     
   25    9   21 1     
   26    9   22 1     
@<TRIPOS>SUBSTRUCTURE
      1 ****           1
@<TRIPOS>SET
DONOR_HYDROGENS      STATIC     ATOMS    <user>   **** ""
3 23 24 25
ATOM$RED        STATIC     ATOMS    COLORGROUP SYSTEM
3 23 24 25
@<TRIPOS>COMMENT
> <Gold.Version>
2022.2.0

> <Gold.Id.Protein>
3pbl|protein|mol2

> <Gold.Protein.RotatedTorsions>
[ 1303 1298 1297 1294 ] final -174.59 input  179.99 | X-H torsion
[ 2461 2456 2455 2452 ] final  175.74 input   30.03 | X-H torsion
[ 2515 2510 2509 2506 ] final  131.96 input  -89.99 | X-H torsion
[ 3721 3712 3711 3710 ] final  151.22 input -179.91 | X-H torsion
[ 3841 3832 3831 3830 ] final  115.45 input -179.91 | X-H torsion
[ 3767 3762 3761 3758 ] final  -12.23 input  -89.99 | X-H torsion
[ 2472 2467 2466 2463 ] final  104.70 input  -89.97 | X-H torsion

> <Gold.Protein.ActiveResidues>
 VAL82   VAL86   LEU89   PHE106  VAL107  ASP110  VAL111  MET112  CYS114  THR115 
 CYS181  SER182  ILE183  PHE188  VAL189  ILE190  SER192  SER193  SER196  TRP342 
 PHE345  PHE346  HIS349  VAL350  TYR365  THR369  GLY372  TYR373 

> <Gold.Protein.RotatedAtoms>
    4.8239   -8.8066    4.6329 H   0  0  0  0  0  0  0  0  0  0  0  0  # atno 1303 bound_to 1298
    1.5165   -9.1929    8.4001 H   0  0  0  0  0  0  0  0  0  0  0  0  # atno 2461 bound_to 2456
   -5.2804   -4.9910    7.9398 H   0  0  0  0  0  0  0  0  0  0  0  0  # atno 2472 bound_to 2467
    2.0708   -8.3582    6.0951 H   0  0  0  0  0  0  0  0  0  0  0  0  # atno 2515 bound_to 2510
   -3.2122  -16.8512   13.2091 H   0  0  0  0  0  0  0  0  0  0  0  0  # atno 3721 bound_to 3712
   -5.4185  -22.5653   10.2386 H   0  0  0  0  0  0  0  0  0  0  0  0  # atno 3767 bound_to 3762
    3.0567  -20.7644    8.9898 H   0  0  0  0  0  0  0  0  0  0  0  0  # atno 3841 bound_to 3832
    4.0826  -10.2607    4.6814 LP  0  0  0  0  0  0  0  0  0  0  0  0  # atno 4297 bound_to 1298
    3.4554   -9.0542    3.7773 LP  0  0  0  0  0  0  0  0  0  0  0  0  # atno 4298 bound_to 1298
    1.8679   -8.0048    7.3359 LP  0  0  0  0  0  0  0  0  0  0  0  0  # atno 4299 bound_to 2456
    0.3534   -8.6107    7.4124 LP  0  0  0  0  0  0  0  0  0  0  0  0  # atno 4300 bound_to 2456
    2.4579   -7.5199    4.7486 LP  0  0  0  0  0  0  0  0  0  0  0  0  # atno 4301 bound_to 2510
    2.7683   -9.1210    4.8312 LP  0  0  0  0  0  0  0  0  0  0  0  0  # atno 4302 bound_to 2510
   -2.6205  -18.2169   13.8112 LP  0  0  0  0  0  0  0  0  0  0  0  0  # atno 4306 bound_to 3712
   -3.1986  -17.0544   14.8017 LP  0  0  0  0  0  0  0  0  0  0  0  0  # atno 4307 bound_to 3712
    1.5299  -20.5604    9.4408 LP  0  0  0  0  0  0  0  0  0  0  0  0  # atno 4314 bound_to 3832
    2.1684  -19.6589    8.2382 LP  0  0  0  0  0  0  0  0  0  0  0  0  # atno 4315 bound_to 3832
   -4.6785  -22.0416   11.5970 LP  0  0  0  0  0  0  0  0  0  0  0  0  # atno 4318 bound_to 3762
   -4.0306  -23.2681   10.7352 LP  0  0  0  0  0  0  0  0  0  0  0  0  # atno 4319 bound_to 3762
   -3.6859   -4.9404    8.2883 LP  0  0  0  0  0  0  0  0  0  0  0  0  # atno 4320 bound_to 2467
   -4.7508   -5.4621    9.4109 LP  0  0  0  0  0  0  0  0  0  0  0  0  # atno 4321 bound_to 2467

> <Gold.Score>
     Score     S(PLP)   S(hbond)     S(cho)   S(metal)  DE(clash)   DE(tors)     intcor
     36.08     -30.08       2.00       0.00       0.00       0.00       0.00       0.00

> <Gold.PLP.Fitness>
36.0790

> <Gold.PLP.PLP>
-30.0790

> <Gold.PLP.part.hbond>
-1.0000

> <Gold.PLP.part.metal>
0.0000

> <Gold.PLP.part.buried>
1.6859

> <Gold.PLP.part.nonpolar>
-30.9666

> <Gold.PLP.part.repulsive>
0.0151

> <Gold.PLP.ligand.clash>
0.0000

> <Gold.PLP.ligand.torsion>
0.0000

> <Gold.PLP.Chemscore.Hbond>
2.0000

> <Gold.PLP.Chemscore.CHOScore>
0.0000

> <Gold.PLP.Chemscore.Metal>
0.0000

> <Gold.Chemscore.Hbonds>
donor molecule, donor type, donor heavy atom, donor atom, acceptor molecule, acceptor atom, score
      L1  H     1    24       P1  1227  2.00

> <Gold.PLP.Chemscore.Internal.Correction>
0.0000

