#       Name:                EN300-124870_i001
#       Creating user name   fsindt
#       Creation time:       Tue Feb 28 11:59:00 2023


#       File generated by GOLD software.
#

@<TRIPOS>MOLECULE
EN300-124870_i001|amine_4|mol2|5079|dock7
    25    26     1
SMALL
USER_CHARGES


@<TRIPOS>ATOM
      1 N1           0.8021 -16.1952   7.5934 N.4            1 <1>                1.0000
      2 C2           0.7236 -14.7283   7.5846 C.3            1 <1>                0.0000
      3 C3           1.6975 -13.9632   8.4834 C.3            1 <1>                0.0000
      4 C4           0.2162 -14.0412   8.8517 C.3            1 <1>                0.0000
      5 C5          -0.1766 -14.9292  10.0361 C.3            1 <1>                0.0000
      6 C6          -0.1760 -14.0823  11.3123 C.3            1 <1>                0.0000
      7 C7          -1.1189 -12.8914  11.1336 C.3            1 <1>                0.0000
      8 C8          -0.6114 -11.9929  10.0049 C.3            1 <1>                0.0000
      9 C9          -0.6259 -12.7726   8.6865 C.3            1 <1>                0.0000
     10 H10          0.4615 -14.2773   6.6275 H              1 <1>                0.0000
     11 H11          2.3963 -14.5481   9.0813 H              1 <1>                0.0000
     12 H12          2.0756 -13.0084   8.1178 H              1 <1>                0.0000
     13 H13         -1.1728 -15.3392   9.8703 H              1 <1>                0.0000
     14 H14          0.5425 -15.7422  10.1370 H              1 <1>                0.0000
     15 H15         -0.5132 -14.6901  12.1520 H              1 <1>                0.0000
     16 H16          0.8334 -13.7204  11.5079 H              1 <1>                0.0000
     17 H17         -2.1171 -13.2534  10.8876 H              1 <1>                0.0000
     18 H18         -1.1603 -12.3199  12.0609 H              1 <1>                0.0000
     19 H19         -1.2573 -11.1193   9.9175 H              1 <1>                0.0000
     20 H20          0.4065 -11.6715  10.2259 H              1 <1>                0.0000
     21 H21         -0.2046 -12.1556   7.8929 H              1 <1>                0.0000
     22 H22         -1.6508 -13.0449   8.4346 H              1 <1>                0.0000
     23 H23         -0.0511 -16.5754   7.9752 H              1 <1>                0.0000
     24 H24          0.9274 -16.5310   6.6502 H              1 <1>                0.0000
     25 H25          1.5837 -16.4868   8.1609 H              1 <1>                0.0000
@<TRIPOS>BOND
    1    1    2 1     
    2    1   23 1     
    3    1   24 1     
    4    1   25 1     
    5    2    3 1     
    6    2    4 1     
    7    2   10 1     
    8    3    4 1     
    9    3   11 1     
   10    3   12 1     
   11    4    5 1     
   12    4    9 1     
   13    5    6 1     
   14    5   13 1     
   15    5   14 1     
   16    6    7 1     
   17    6   15 1     
   18    6   16 1     
   19    7    8 1     
   20    7   17 1     
   21    7   18 1     
   22    8    9 1     
   23    8   19 1     
   24    8   20 1     
   25    9   21 1     
   26    9   22 1     
@<TRIPOS>SUBSTRUCTURE
      1 ****           1
@<TRIPOS>SET
DONOR_HYDROGENS      STATIC     ATOMS    <user>   **** ""
3 23 24 25
ATOM$RED        STATIC     ATOMS    COLORGROUP SYSTEM
3 23 24 25
@<TRIPOS>COMMENT
> <Gold.Version>
2022.2.0

> <Gold.Id.Protein>
3pbl|protein|mol2

> <Gold.Protein.RotatedTorsions>
[ 1303 1298 1297 1294 ] final  105.30 input  179.99 | X-H torsion
[ 2461 2456 2455 2452 ] final  144.14 input   30.03 | X-H torsion
[ 2515 2510 2509 2506 ] final -119.58 input  -89.99 | X-H torsion
[ 3721 3712 3711 3710 ] final  -93.24 input -179.91 | X-H torsion
[ 3841 3832 3831 3830 ] final  -87.38 input -179.91 | X-H torsion
[ 3767 3762 3761 3758 ] final  -10.33 input  -89.99 | X-H torsion
[ 2472 2467 2466 2463 ] final  -67.50 input  -89.97 | X-H torsion

> <Gold.Protein.ActiveResidues>
 VAL82   VAL86   LEU89   PHE106  VAL107  ASP110  VAL111  MET112  CYS114  THR115 
 CYS181  SER182  ILE183  PHE188  VAL189  ILE190  SER192  SER193  SER196  TRP342 
 PHE345  PHE346  HIS349  VAL350  TYR365  THR369  GLY372  TYR373 

> <Gold.Protein.RotatedAtoms>
    4.5980   -9.9624    4.9244 H   0  0  0  0  0  0  0  0  0  0  0  0  # atno 1303 bound_to 1298
    1.9347   -8.9220    8.2755 H   0  0  0  0  0  0  0  0  0  0  0  0  # atno 2461 bound_to 2456
   -3.7873   -5.2301    9.0590 H   0  0  0  0  0  0  0  0  0  0  0  0  # atno 2472 bound_to 2467
    2.7167   -9.2016    4.9950 H   0  0  0  0  0  0  0  0  0  0  0  0  # atno 2515 bound_to 2510
   -3.0483  -16.9115   14.6641 H   0  0  0  0  0  0  0  0  0  0  0  0  # atno 3721 bound_to 3712
   -5.4057  -22.5888   10.2225 H   0  0  0  0  0  0  0  0  0  0  0  0  # atno 3767 bound_to 3762
    1.8247  -19.6258    8.7332 H   0  0  0  0  0  0  0  0  0  0  0  0  # atno 3841 bound_to 3832
    3.3356   -9.6668    3.9318 LP  0  0  0  0  0  0  0  0  0  0  0  0  # atno 4297 bound_to 1298
    4.4283   -8.4919    4.2352 LP  0  0  0  0  0  0  0  0  0  0  0  0  # atno 4298 bound_to 1298
    1.4239   -7.9174    7.0935 LP  0  0  0  0  0  0  0  0  0  0  0  0  # atno 4299 bound_to 2456
    0.3794   -8.9688    7.7793 LP  0  0  0  0  0  0  0  0  0  0  0  0  # atno 4300 bound_to 2456
    2.0419   -8.1727    6.0682 LP  0  0  0  0  0  0  0  0  0  0  0  0  # atno 4301 bound_to 2510
    2.5379   -7.6244    4.6122 LP  0  0  0  0  0  0  0  0  0  0  0  0  # atno 4302 bound_to 2510
   -3.3906  -16.9837   13.0971 LP  0  0  0  0  0  0  0  0  0  0  0  0  # atno 4306 bound_to 3712
   -2.6177  -18.2179   13.8360 LP  0  0  0  0  0  0  0  0  0  0  0  0  # atno 4307 bound_to 3712
    3.1146  -20.5333    8.4353 LP  0  0  0  0  0  0  0  0  0  0  0  0  # atno 4314 bound_to 3832
    2.0069  -21.0012    9.5402 LP  0  0  0  0  0  0  0  0  0  0  0  0  # atno 4315 bound_to 3832
   -4.7051  -22.0285   11.5871 LP  0  0  0  0  0  0  0  0  0  0  0  0  # atno 4318 bound_to 3762
   -4.0168  -23.2577   10.7613 LP  0  0  0  0  0  0  0  0  0  0  0  0  # atno 4319 bound_to 3762
   -5.4091   -5.3567    8.9175 LP  0  0  0  0  0  0  0  0  0  0  0  0  # atno 4320 bound_to 2467
   -4.5204   -4.8067    7.6627 LP  0  0  0  0  0  0  0  0  0  0  0  0  # atno 4321 bound_to 2467

> <Gold.Score>
     Score     S(PLP)   S(hbond)     S(cho)   S(metal)  DE(clash)   DE(tors)     intcor
     33.53     -27.53       2.00       0.00       0.00       0.00       0.00       0.00

> <Gold.PLP.Fitness>
33.5302

> <Gold.PLP.PLP>
-27.5302

> <Gold.PLP.part.hbond>
-1.0000

> <Gold.PLP.part.metal>
0.0000

> <Gold.PLP.part.buried>
-2.7734

> <Gold.PLP.part.nonpolar>
-23.8893

> <Gold.PLP.part.repulsive>
0.0000

> <Gold.PLP.ligand.clash>
0.0000

> <Gold.PLP.ligand.torsion>
0.0000

> <Gold.PLP.Chemscore.Hbond>
2.0000

> <Gold.PLP.Chemscore.CHOScore>
0.0000

> <Gold.PLP.Chemscore.Metal>
0.0000

> <Gold.Chemscore.Hbonds>
donor molecule, donor type, donor heavy atom, donor atom, acceptor molecule, acceptor atom, score
      L1  H     1    25       P1  1227  2.00

> <Gold.PLP.Chemscore.Internal.Correction>
0.0000

