#       Name:                EN300-124870_i001
#       Creating user name   fsindt
#       Creation time:       Tue Feb 28 11:59:01 2023


#       File generated by GOLD software.
#

@<TRIPOS>MOLECULE
EN300-124870_i001|amine_4|mol2|5079|dock10
    25    26     1
SMALL
USER_CHARGES


@<TRIPOS>ATOM
      1 N1          -0.0447 -16.6047   8.5223 N.4            1 <1>                1.0000
      2 C2           0.3701 -15.6428   7.4925 C.3            1 <1>                0.0000
      3 C3           1.6980 -14.9118   7.7021 C.3            1 <1>                0.0000
      4 C4           0.3767 -14.1624   7.8714 C.3            1 <1>                0.0000
      5 C5          -0.0518 -13.7883   9.2934 C.3            1 <1>                0.0000
      6 C6           0.4786 -12.3887   9.6189 C.3            1 <1>                0.0000
      7 C7          -0.0292 -11.3955   8.5725 C.3            1 <1>                0.0000
      8 C8           0.5195 -11.7683   7.1945 C.3            1 <1>                0.0000
      9 C9          -0.0095 -13.1480   6.7909 C.3            1 <1>                0.0000
     10 H10          0.0928 -15.8998   6.4701 H              1 <1>                0.0000
     11 H11          2.2638 -15.1445   8.6042 H              1 <1>                0.0000
     12 H12          2.2942 -14.6874   6.8176 H              1 <1>                0.0000
     13 H13         -1.1398 -13.7910   9.3594 H              1 <1>                0.0000
     14 H14          0.3602 -14.5085  10.0002 H              1 <1>                0.0000
     15 H15          0.1278 -12.0876  10.6061 H              1 <1>                0.0000
     16 H16          1.5685 -12.4017   9.6089 H              1 <1>                0.0000
     17 H17         -1.1185 -11.4208   8.5477 H              1 <1>                0.0000
     18 H18          0.3030 -10.3911   8.8352 H              1 <1>                0.0000
     19 H19          0.1977 -11.0274   6.4627 H              1 <1>                0.0000
     20 H20          1.6087 -11.7932   7.2316 H              1 <1>                0.0000
     21 H21          0.4309 -13.4435   5.8387 H              1 <1>                0.0000
     22 H22         -1.0947 -13.1098   6.6972 H              1 <1>                0.0000
     23 H23         -0.5737 -16.1262   9.2360 H              1 <1>                0.0000
     24 H24         -0.6178 -17.3211   8.1022 H              1 <1>                0.0000
     25 H25          0.7726 -17.0276   8.9363 H              1 <1>                0.0000
@<TRIPOS>BOND
    1    1    2 1     
    2    1   23 1     
    3    1   24 1     
    4    1   25 1     
    5    2    3 1     
    6    2    4 1     
    7    2   10 1     
    8    3    4 1     
    9    3   11 1     
   10    3   12 1     
   11    4    5 1     
   12    4    9 1     
   13    5    6 1     
   14    5   13 1     
   15    5   14 1     
   16    6    7 1     
   17    6   15 1     
   18    6   16 1     
   19    7    8 1     
   20    7   17 1     
   21    7   18 1     
   22    8    9 1     
   23    8   19 1     
   24    8   20 1     
   25    9   21 1     
   26    9   22 1     
@<TRIPOS>SUBSTRUCTURE
      1 ****           1
@<TRIPOS>SET
DONOR_HYDROGENS      STATIC     ATOMS    <user>   **** ""
3 23 24 25
ATOM$RED        STATIC     ATOMS    COLORGROUP SYSTEM
3 23 24 25
@<TRIPOS>COMMENT
> <Gold.Version>
2022.2.0

> <Gold.Id.Protein>
3pbl|protein|mol2

> <Gold.Protein.RotatedTorsions>
[ 1303 1298 1297 1294 ] final -116.22 input  179.99 | X-H torsion
[ 2461 2456 2455 2452 ] final    8.01 input   30.03 | X-H torsion
[ 2515 2510 2509 2506 ] final  123.48 input  -89.99 | X-H torsion
[ 3721 3712 3711 3710 ] final   18.67 input -179.91 | X-H torsion
[ 3841 3832 3831 3830 ] final   -1.86 input -179.91 | X-H torsion
[ 3767 3762 3761 3758 ] final   31.40 input  -89.99 | X-H torsion
[ 2472 2467 2466 2463 ] final -101.01 input  -89.97 | X-H torsion

> <Gold.Protein.ActiveResidues>
 VAL82   VAL86   LEU89   PHE106  VAL107  ASP110  VAL111  MET112  CYS114  THR115 
 CYS181  SER182  ILE183  PHE188  VAL189  ILE190  SER192  SER193  SER196  TRP342 
 PHE345  PHE346  HIS349  VAL350  TYR365  THR369  GLY372  TYR373 

> <Gold.Protein.RotatedAtoms>
    4.1811   -8.4833    4.0607 H   0  0  0  0  0  0  0  0  0  0  0  0  # atno 1303 bound_to 1298
    1.1673   -7.9517    7.0383 H   0  0  0  0  0  0  0  0  0  0  0  0  # atno 2461 bound_to 2456
   -4.2010   -5.3890    9.3737 H   0  0  0  0  0  0  0  0  0  0  0  0  # atno 2472 bound_to 2467
    2.0483   -8.2216    6.0785 H   0  0  0  0  0  0  0  0  0  0  0  0  # atno 2515 bound_to 2510
   -2.4703  -18.0278   13.9710 H   0  0  0  0  0  0  0  0  0  0  0  0  # atno 3721 bound_to 3712
   -4.9643  -23.0704   10.0660 H   0  0  0  0  0  0  0  0  0  0  0  0  # atno 3767 bound_to 3762
    1.7210  -20.4655    9.5492 H   0  0  0  0  0  0  0  0  0  0  0  0  # atno 3841 bound_to 3832
    4.7738   -9.7173    4.9508 LP  0  0  0  0  0  0  0  0  0  0  0  0  # atno 4297 bound_to 1298
    3.4073   -9.9210    4.0802 LP  0  0  0  0  0  0  0  0  0  0  0  0  # atno 4298 bound_to 1298
    0.4955   -9.1156    7.9664 LP  0  0  0  0  0  0  0  0  0  0  0  0  # atno 4299 bound_to 2456
    2.0750   -8.7407    8.1433 LP  0  0  0  0  0  0  0  0  0  0  0  0  # atno 4300 bound_to 2456
    2.5170   -7.5938    4.6461 LP  0  0  0  0  0  0  0  0  0  0  0  0  # atno 4301 bound_to 2510
    2.7316   -9.1838    4.9502 LP  0  0  0  0  0  0  0  0  0  0  0  0  # atno 4302 bound_to 2510
   -3.3195  -16.8626   14.6775 LP  0  0  0  0  0  0  0  0  0  0  0  0  # atno 4306 bound_to 3712
   -3.3562  -17.0503   13.0558 LP  0  0  0  0  0  0  0  0  0  0  0  0  # atno 4307 bound_to 3712
    2.1726  -19.6598    8.2365 LP  0  0  0  0  0  0  0  0  0  0  0  0  # atno 4314 bound_to 3832
    3.0687  -20.9048    8.7964 LP  0  0  0  0  0  0  0  0  0  0  0  0  # atno 4315 bound_to 3832
   -5.2401  -21.9231   11.1949 LP  0  0  0  0  0  0  0  0  0  0  0  0  # atno 4318 bound_to 3762
   -3.9231  -22.8817   11.3098 LP  0  0  0  0  0  0  0  0  0  0  0  0  # atno 4319 bound_to 3762
   -5.5037   -5.1845    8.4107 LP  0  0  0  0  0  0  0  0  0  0  0  0  # atno 4320 bound_to 2467
   -4.0121   -4.8201    7.8549 LP  0  0  0  0  0  0  0  0  0  0  0  0  # atno 4321 bound_to 2467

> <Gold.Score>
     Score     S(PLP)   S(hbond)     S(cho)   S(metal)  DE(clash)   DE(tors)     intcor
     34.02     -28.02       2.00       0.00       0.00       0.00       0.00       0.00

> <Gold.PLP.Fitness>
34.0226

> <Gold.PLP.PLP>
-28.0226

> <Gold.PLP.part.hbond>
-1.0000

> <Gold.PLP.part.metal>
0.0000

> <Gold.PLP.part.buried>
-0.0584

> <Gold.PLP.part.nonpolar>
-27.2880

> <Gold.PLP.part.repulsive>
0.0000

> <Gold.PLP.ligand.clash>
0.0000

> <Gold.PLP.ligand.torsion>
0.0000

> <Gold.PLP.Chemscore.Hbond>
2.0000

> <Gold.PLP.Chemscore.CHOScore>
0.0000

> <Gold.PLP.Chemscore.Metal>
0.0000

> <Gold.Chemscore.Hbonds>
donor molecule, donor type, donor heavy atom, donor atom, acceptor molecule, acceptor atom, score
      L1  H     1    25       P1  1227  2.00

> <Gold.PLP.Chemscore.Internal.Correction>
0.0000

