#       Name:                EN300-124870_i001
#       Creating user name   fsindt
#       Creation time:       Tue Feb 28 11:59:01 2023


#       File generated by GOLD software.
#

@<TRIPOS>MOLECULE
EN300-124870_i001|amine_4|mol2|5079|dock9
    25    26     1
SMALL
USER_CHARGES


@<TRIPOS>ATOM
      1 N1           1.1675 -12.0033   6.0537 N.4            1 <1>                1.0000
      2 C2           1.1049 -13.0980   7.0312 C.3            1 <1>                0.0000
      3 C3          -0.2348 -13.8175   7.2017 C.3            1 <1>                0.0000
      4 C4           0.2704 -12.8721   8.2912 C.3            1 <1>                0.0000
      5 C5          -0.4366 -11.5224   8.4458 C.3            1 <1>                0.0000
      6 C6          -1.5678 -11.6696   9.4681 C.3            1 <1>                0.0000
      7 C7          -0.9965 -12.1876  10.7889 C.3            1 <1>                0.0000
      8 C8          -0.3993 -13.5806  10.5847 C.3            1 <1>                0.0000
      9 C9           0.7695 -13.4950   9.5983 C.3            1 <1>                0.0000
     10 H10          2.0124 -13.6941   7.1282 H              1 <1>                0.0000
     11 H11         -1.0699 -13.4785   6.5886 H              1 <1>                0.0000
     12 H12         -0.2088 -14.8869   7.4114 H              1 <1>                0.0000
     13 H13          0.2759 -10.7749   8.7948 H              1 <1>                0.0000
     14 H14         -0.8501 -11.2147   7.4854 H              1 <1>                0.0000
     15 H15         -2.0387 -10.7001   9.6311 H              1 <1>                0.0000
     16 H16         -2.3088 -12.3746   9.0912 H              1 <1>                0.0000
     17 H17         -0.2196 -11.5080  11.1388 H              1 <1>                0.0000
     18 H18         -1.7922 -12.2398  11.5320 H              1 <1>                0.0000
     19 H19         -0.0416 -13.9661  11.5394 H              1 <1>                0.0000
     20 H20         -1.1630 -14.2486  10.1862 H              1 <1>                0.0000
     21 H21          1.1555 -14.4953   9.4020 H              1 <1>                0.0000
     22 H22          1.5590 -12.8735  10.0208 H              1 <1>                0.0000
     23 H23          0.2352 -11.6659   5.8664 H              1 <1>                0.0000
     24 H24          1.7287 -11.2518   6.4258 H              1 <1>                0.0000
     25 H25          1.5815 -12.3402   5.1975 H              1 <1>                0.0000
@<TRIPOS>BOND
    1    1    2 1     
    2    1   23 1     
    3    1   24 1     
    4    1   25 1     
    5    2    3 1     
    6    2    4 1     
    7    2   10 1     
    8    3    4 1     
    9    3   11 1     
   10    3   12 1     
   11    4    5 1     
   12    4    9 1     
   13    5    6 1     
   14    5   13 1     
   15    5   14 1     
   16    6    7 1     
   17    6   15 1     
   18    6   16 1     
   19    7    8 1     
   20    7   17 1     
   21    7   18 1     
   22    8    9 1     
   23    8   19 1     
   24    8   20 1     
   25    9   21 1     
   26    9   22 1     
@<TRIPOS>SUBSTRUCTURE
      1 ****           1
@<TRIPOS>SET
DONOR_HYDROGENS      STATIC     ATOMS    <user>   **** ""
3 23 24 25
ATOM$RED        STATIC     ATOMS    COLORGROUP SYSTEM
3 23 24 25
@<TRIPOS>COMMENT
> <Gold.Version>
2022.2.0

> <Gold.Id.Protein>
3pbl|protein|mol2

> <Gold.Protein.RotatedTorsions>
[ 1303 1298 1297 1294 ] final -171.84 input  179.99 | X-H torsion
[ 2461 2456 2455 2452 ] final  150.55 input   30.03 | X-H torsion
[ 2515 2510 2509 2506 ] final  -80.64 input  -89.99 | X-H torsion
[ 3721 3712 3711 3710 ] final -148.91 input -179.91 | X-H torsion
[ 3841 3832 3831 3830 ] final -159.08 input -179.91 | X-H torsion
[ 3767 3762 3761 3758 ] final -165.39 input  -89.99 | X-H torsion
[ 2472 2467 2466 2463 ] final   48.55 input  -89.97 | X-H torsion

> <Gold.Protein.ActiveResidues>
 VAL82   VAL86   LEU89   PHE106  VAL107  ASP110  VAL111  MET112  CYS114  THR115 
 CYS181  SER182  ILE183  PHE188  VAL189  ILE190  SER192  SER193  SER196  TRP342 
 PHE345  PHE346  HIS349  VAL350  TYR365  THR369  GLY372  TYR373 

> <Gold.Protein.RotatedAtoms>
    4.8057   -8.7738    4.6075 H   0  0  0  0  0  0  0  0  0  0  0  0  # atno 1303 bound_to 1298
    1.8631   -8.9878    8.3162 H   0  0  0  0  0  0  0  0  0  0  0  0  # atno 2461 bound_to 2456
   -4.4560   -4.8031    7.6702 H   0  0  0  0  0  0  0  0  0  0  0  0  # atno 2472 bound_to 2467
    2.8335   -8.8097    4.5179 H   0  0  0  0  0  0  0  0  0  0  0  0  # atno 2515 bound_to 2510
   -3.3241  -16.5325   14.0048 H   0  0  0  0  0  0  0  0  0  0  0  0  # atno 3721 bound_to 3712
   -4.2446  -22.3579   11.6330 H   0  0  0  0  0  0  0  0  0  0  0  0  # atno 3767 bound_to 3762
    2.7408  -19.8312    8.3499 H   0  0  0  0  0  0  0  0  0  0  0  0  # atno 3841 bound_to 3832
    4.1206  -10.2529    4.7047 LP  0  0  0  0  0  0  0  0  0  0  0  0  # atno 4297 bound_to 1298
    3.4356   -9.0949    3.7793 LP  0  0  0  0  0  0  0  0  0  0  0  0  # atno 4298 bound_to 1298
    1.5229   -7.9187    7.1293 LP  0  0  0  0  0  0  0  0  0  0  0  0  # atno 4299 bound_to 2456
    0.3519   -8.9018    7.7028 LP  0  0  0  0  0  0  0  0  0  0  0  0  # atno 4300 bound_to 2456
    2.1935   -8.7808    6.0197 LP  0  0  0  0  0  0  0  0  0  0  0  0  # atno 4301 bound_to 2510
    2.2696   -7.4085    5.1379 LP  0  0  0  0  0  0  0  0  0  0  0  0  # atno 4302 bound_to 2510
   -2.9509  -17.7601   13.0397 LP  0  0  0  0  0  0  0  0  0  0  0  0  # atno 4306 bound_to 3712
   -2.7391  -17.8791   14.6545 LP  0  0  0  0  0  0  0  0  0  0  0  0  # atno 4307 bound_to 3712
    2.6734  -21.1507    9.2613 LP  0  0  0  0  0  0  0  0  0  0  0  0  # atno 4314 bound_to 3832
    1.3898  -20.1466    9.1570 LP  0  0  0  0  0  0  0  0  0  0  0  0  # atno 4315 bound_to 3832
   -4.3748  -23.3289   10.3264 LP  0  0  0  0  0  0  0  0  0  0  0  0  # atno 4318 bound_to 3762
   -5.5078  -22.1882   10.6120 LP  0  0  0  0  0  0  0  0  0  0  0  0  # atno 4319 bound_to 3762
   -3.8246   -5.2510    9.1079 LP  0  0  0  0  0  0  0  0  0  0  0  0  # atno 4320 bound_to 2467
   -5.4363   -5.3393    8.8609 LP  0  0  0  0  0  0  0  0  0  0  0  0  # atno 4321 bound_to 2467

> <Gold.Score>
     Score     S(PLP)   S(hbond)     S(cho)   S(metal)  DE(clash)   DE(tors)     intcor
     32.45     -32.45       0.00       0.00       0.00       0.00       0.00       0.00

> <Gold.PLP.Fitness>
32.4491

> <Gold.PLP.PLP>
-32.4491

> <Gold.PLP.part.hbond>
0.0000

> <Gold.PLP.part.metal>
0.0000

> <Gold.PLP.part.buried>
-2.7335

> <Gold.PLP.part.nonpolar>
-29.5825

> <Gold.PLP.part.repulsive>
0.0304

> <Gold.PLP.ligand.clash>
0.0000

> <Gold.PLP.ligand.torsion>
0.0000

> <Gold.PLP.Chemscore.Hbond>
0.0000

> <Gold.PLP.Chemscore.CHOScore>
0.0000

> <Gold.PLP.Chemscore.Metal>
0.0000

> <Gold.PLP.Chemscore.Internal.Correction>
0.0000

