#       Name:                EN300-124870_i001
#       Creating user name   fsindt
#       Creation time:       Tue Feb 28 11:59:02 2023


#       File generated by GOLD software.
#

@<TRIPOS>MOLECULE
EN300-124870_i001|amine_4|mol2|5079|dock12
    25    26     1
SMALL
USER_CHARGES


@<TRIPOS>ATOM
      1 N1           1.7872 -14.5993   9.5632 N.4            1 <1>                1.0000
      2 C2           0.3506 -14.4121   9.8061 C.3            1 <1>                0.0000
      3 C3          -0.4317 -13.5651   8.8000 C.3            1 <1>                0.0000
      4 C4          -0.1234 -13.0112  10.1907 C.3            1 <1>                0.0000
      5 C5           0.9313 -11.9060  10.2985 C.3            1 <1>                0.0000
      6 C6           0.2351 -10.5451  10.2007 C.3            1 <1>                0.0000
      7 C7          -0.8363 -10.4419  11.2873 C.3            1 <1>                0.0000
      8 C8          -1.9102 -11.5068  11.0596 C.3            1 <1>                0.0000
      9 C9          -1.2830 -12.8987  11.1849 C.3            1 <1>                0.0000
     10 H10         -0.1642 -15.2599  10.2583 H              1 <1>                0.0000
     11 H11          0.1195 -13.1466   7.9579 H              1 <1>                0.0000
     12 H12         -1.4614 -13.8554   8.5907 H              1 <1>                0.0000
     13 H13          1.4461 -11.9848  11.2561 H              1 <1>                0.0000
     14 H14          1.6507 -12.0074   9.4860 H              1 <1>                0.0000
     15 H15          0.9690  -9.7508  10.3374 H              1 <1>                0.0000
     16 H16         -0.2307 -10.4448   9.2204 H              1 <1>                0.0000
     17 H17         -0.3773 -10.5934  12.2642 H              1 <1>                0.0000
     18 H18         -1.2935  -9.4530  11.2524 H              1 <1>                0.0000
     19 H19         -2.6973 -11.3944  11.8051 H              1 <1>                0.0000
     20 H20         -2.3343 -11.3877  10.0625 H              1 <1>                0.0000
     21 H21         -2.0318 -13.6580  10.9598 H              1 <1>                0.0000
     22 H22         -0.9096 -13.0409  12.1990 H              1 <1>                0.0000
     23 H23          2.3147 -14.0804  10.2493 H              1 <1>                0.0000
     24 H24          2.0155 -15.5795   9.6345 H              1 <1>                0.0000
     25 H25          2.0183 -14.2664   8.6392 H              1 <1>                0.0000
@<TRIPOS>BOND
    1    1    2 1     
    2    1   23 1     
    3    1   24 1     
    4    1   25 1     
    5    2    3 1     
    6    2    4 1     
    7    2   10 1     
    8    3    4 1     
    9    3   11 1     
   10    3   12 1     
   11    4    5 1     
   12    4    9 1     
   13    5    6 1     
   14    5   13 1     
   15    5   14 1     
   16    6    7 1     
   17    6   15 1     
   18    6   16 1     
   19    7    8 1     
   20    7   17 1     
   21    7   18 1     
   22    8    9 1     
   23    8   19 1     
   24    8   20 1     
   25    9   21 1     
   26    9   22 1     
@<TRIPOS>SUBSTRUCTURE
      1 ****           1
@<TRIPOS>SET
DONOR_HYDROGENS      STATIC     ATOMS    <user>   **** ""
3 23 24 25
ATOM$RED        STATIC     ATOMS    COLORGROUP SYSTEM
3 23 24 25
@<TRIPOS>COMMENT
> <Gold.Version>
2022.2.0

> <Gold.Id.Protein>
3pbl|protein|mol2

> <Gold.Protein.RotatedTorsions>
[ 1303 1298 1297 1294 ] final  -10.08 input  179.99 | X-H torsion
[ 2461 2456 2455 2452 ] final   14.97 input   30.03 | X-H torsion
[ 2515 2510 2509 2506 ] final   29.53 input  -89.99 | X-H torsion
[ 3721 3712 3711 3710 ] final -137.56 input -179.91 | X-H torsion
[ 3841 3832 3831 3830 ] final -166.74 input -179.91 | X-H torsion
[ 3767 3762 3761 3758 ] final   29.28 input  -89.99 | X-H torsion
[ 2472 2467 2466 2463 ] final -158.72 input  -89.97 | X-H torsion

> <Gold.Protein.ActiveResidues>
 VAL82   VAL86   LEU89   PHE106  VAL107  ASP110  VAL111  MET112  CYS114  THR115 
 CYS181  SER182  ILE183  PHE188  VAL189  ILE190  SER192  SER193  SER196  TRP342 
 PHE345  PHE346  HIS349  VAL350  TYR365  THR369  GLY372  TYR373 

> <Gold.Protein.RotatedAtoms>
    3.3460   -9.7341    3.9657 H   0  0  0  0  0  0  0  0  0  0  0  0  # atno 1303 bound_to 1298
    1.2784   -7.9302    7.0557 H   0  0  0  0  0  0  0  0  0  0  0  0  # atno 2461 bound_to 2456
   -5.1019   -5.4470    9.2596 H   0  0  0  0  0  0  0  0  0  0  0  0  # atno 2472 bound_to 2467
    2.3352   -7.4252    4.9913 H   0  0  0  0  0  0  0  0  0  0  0  0  # atno 2515 bound_to 2510
   -3.2938  -16.5596   14.1712 H   0  0  0  0  0  0  0  0  0  0  0  0  # atno 3721 bound_to 3712
   -4.9922  -23.0497   10.0641 H   0  0  0  0  0  0  0  0  0  0  0  0  # atno 3767 bound_to 3762
    2.8279  -19.9060    8.3629 H   0  0  0  0  0  0  0  0  0  0  0  0  # atno 3841 bound_to 3832
    4.3688   -8.4810    4.1896 LP  0  0  0  0  0  0  0  0  0  0  0  0  # atno 4297 bound_to 1298
    4.6477   -9.9061    4.9364 LP  0  0  0  0  0  0  0  0  0  0  0  0  # atno 4298 bound_to 1298
    0.4375   -9.0566    7.8872 LP  0  0  0  0  0  0  0  0  0  0  0  0  # atno 4299 bound_to 2456
    2.0218   -8.8211    8.2050 LP  0  0  0  0  0  0  0  0  0  0  0  0  # atno 4300 bound_to 2456
    2.8201   -8.9382    4.6149 LP  0  0  0  0  0  0  0  0  0  0  0  0  # atno 4301 bound_to 2510
    2.1415   -8.6362    6.0692 LP  0  0  0  0  0  0  0  0  0  0  0  0  # atno 4302 bound_to 2510
   -3.0442  -17.6066   12.9799 LP  0  0  0  0  0  0  0  0  0  0  0  0  # atno 4306 bound_to 3712
   -2.6808  -18.0014   14.5222 LP  0  0  0  0  0  0  0  0  0  0  0  0  # atno 4307 bound_to 3712
    2.5680  -21.1579    9.3330 LP  0  0  0  0  0  0  0  0  0  0  0  0  # atno 4314 bound_to 3832
    1.3947  -20.0530    9.0702 LP  0  0  0  0  0  0  0  0  0  0  0  0  # atno 4315 bound_to 3832
   -5.2175  -21.9195   11.2212 LP  0  0  0  0  0  0  0  0  0  0  0  0  # atno 4318 bound_to 3762
   -3.9177  -22.9060   11.2855 LP  0  0  0  0  0  0  0  0  0  0  0  0  # atno 4319 bound_to 3762
   -4.9778   -4.8822    7.7325 LP  0  0  0  0  0  0  0  0  0  0  0  0  # atno 4320 bound_to 2467
   -3.6373   -5.0644    8.6472 LP  0  0  0  0  0  0  0  0  0  0  0  0  # atno 4321 bound_to 2467

> <Gold.Score>
     Score     S(PLP)   S(hbond)     S(cho)   S(metal)  DE(clash)   DE(tors)     intcor
     30.77     -24.77       2.00       0.00       0.00       0.00       0.00       0.00

> <Gold.PLP.Fitness>
30.7740

> <Gold.PLP.PLP>
-24.7740

> <Gold.PLP.part.hbond>
-1.0000

> <Gold.PLP.part.metal>
0.0000

> <Gold.PLP.part.buried>
-1.4426

> <Gold.PLP.part.nonpolar>
-23.2082

> <Gold.PLP.part.repulsive>
0.0593

> <Gold.PLP.ligand.clash>
0.0000

> <Gold.PLP.ligand.torsion>
0.0000

> <Gold.PLP.Chemscore.Hbond>
2.0000

> <Gold.PLP.Chemscore.CHOScore>
0.0000

> <Gold.PLP.Chemscore.Metal>
0.0000

> <Gold.Chemscore.Hbonds>
donor molecule, donor type, donor heavy atom, donor atom, acceptor molecule, acceptor atom, score
      L1  H     1    24       P1  1227  2.00

> <Gold.PLP.Chemscore.Internal.Correction>
0.0000

