#       Name:                EN300-124870_i001
#       Creating user name   fsindt
#       Creation time:       Tue Feb 28 11:59:03 2023


#       File generated by GOLD software.
#

@<TRIPOS>MOLECULE
EN300-124870_i001|amine_4|mol2|5079|dock16
    25    26     1
SMALL
USER_CHARGES


@<TRIPOS>ATOM
      1 N1           0.3980 -14.4884   9.5708 N.4            1 <1>                1.0000
      2 C2          -0.0752 -13.3139   8.8261 C.3            1 <1>                0.0000
      3 C3           0.6066 -11.9741   9.1120 C.3            1 <1>                0.0000
      4 C4          -0.8149 -12.2316   9.6111 C.3            1 <1>                0.0000
      5 C5          -1.0125 -12.4499  11.1141 C.3            1 <1>                0.0000
      6 C6          -1.3079 -11.1007  11.7764 C.3            1 <1>                0.0000
      7 C7          -2.5281 -10.4628  11.1106 C.3            1 <1>                0.0000
      8 C8          -2.2259 -10.1776   9.6387 C.3            1 <1>                0.0000
      9 C9          -1.9599 -11.4970   8.9076 C.3            1 <1>                0.0000
     10 H10         -0.4000 -13.5053   7.8033 H              1 <1>                0.0000
     11 H11          1.4061 -11.9641   9.8528 H              1 <1>                0.0000
     12 H12          0.7298 -11.2838   8.2775 H              1 <1>                0.0000
     13 H13         -1.8501 -13.1280  11.2774 H              1 <1>                0.0000
     14 H14         -0.1061 -12.8767  11.5433 H              1 <1>                0.0000
     15 H15         -1.5104 -11.2529  12.8366 H              1 <1>                0.0000
     16 H16         -0.4461 -10.4432  11.6618 H              1 <1>                0.0000
     17 H17         -3.3764 -11.1435  11.1810 H              1 <1>                0.0000
     18 H18         -2.7710  -9.5292  11.6181 H              1 <1>                0.0000
     19 H19         -3.0793  -9.6753   9.1833 H              1 <1>                0.0000
     20 H20         -1.3463  -9.5379   9.5657 H              1 <1>                0.0000
     21 H21         -1.6815 -11.2919   7.8739 H              1 <1>                0.0000
     22 H22         -2.8580 -12.1143   8.9300 H              1 <1>                0.0000
     23 H23         -0.3810 -14.9248  10.0409 H              1 <1>                0.0000
     24 H24          0.8159 -15.1468   8.9305 H              1 <1>                0.0000
     25 H25          1.0838 -14.2006  10.2525 H              1 <1>                0.0000
@<TRIPOS>BOND
    1    1    2 1     
    2    1   23 1     
    3    1   24 1     
    4    1   25 1     
    5    2    3 1     
    6    2    4 1     
    7    2   10 1     
    8    3    4 1     
    9    3   11 1     
   10    3   12 1     
   11    4    5 1     
   12    4    9 1     
   13    5    6 1     
   14    5   13 1     
   15    5   14 1     
   16    6    7 1     
   17    6   15 1     
   18    6   16 1     
   19    7    8 1     
   20    7   17 1     
   21    7   18 1     
   22    8    9 1     
   23    8   19 1     
   24    8   20 1     
   25    9   21 1     
   26    9   22 1     
@<TRIPOS>SUBSTRUCTURE
      1 ****           1
@<TRIPOS>SET
DONOR_HYDROGENS      STATIC     ATOMS    <user>   **** ""
3 23 24 25
ATOM$RED        STATIC     ATOMS    COLORGROUP SYSTEM
3 23 24 25
@<TRIPOS>COMMENT
> <Gold.Version>
2022.2.0

> <Gold.Id.Protein>
3pbl|protein|mol2

> <Gold.Protein.RotatedTorsions>
[ 1303 1298 1297 1294 ] final -172.93 input  179.99 | X-H torsion
[ 2461 2456 2455 2452 ] final   16.38 input   30.03 | X-H torsion
[ 2515 2510 2509 2506 ] final  -72.19 input  -89.99 | X-H torsion
[ 3721 3712 3711 3710 ] final -123.11 input -179.91 | X-H torsion
[ 3841 3832 3831 3830 ] final  157.07 input -179.91 | X-H torsion
[ 3767 3762 3761 3758 ] final  -33.11 input  -89.99 | X-H torsion
[ 2472 2467 2466 2463 ] final   56.31 input  -89.97 | X-H torsion

> <Gold.Protein.ActiveResidues>
 VAL82   VAL86   LEU89   PHE106  VAL107  ASP110  VAL111  MET112  CYS114  THR115 
 CYS181  SER182  ILE183  PHE188  VAL189  ILE190  SER192  SER193  SER196  TRP342 
 PHE345  PHE346  HIS349  VAL350  TYR365  THR369  GLY372  TYR373 

> <Gold.Protein.RotatedAtoms>
    4.8131   -8.7867    4.6177 H   0  0  0  0  0  0  0  0  0  0  0  0  # atno 1303 bound_to 1298
    1.3010   -7.9271    7.0604 H   0  0  0  0  0  0  0  0  0  0  0  0  # atno 2461 bound_to 2456
   -4.5827   -4.8130    7.6589 H   0  0  0  0  0  0  0  0  0  0  0  0  # atno 2472 bound_to 2467
    2.8356   -8.6881    4.4508 H   0  0  0  0  0  0  0  0  0  0  0  0  # atno 2515 bound_to 2510
   -3.2333  -16.6347   14.3667 H   0  0  0  0  0  0  0  0  0  0  0  0  # atno 3721 bound_to 3712
   -5.5053  -22.3168   10.4566 H   0  0  0  0  0  0  0  0  0  0  0  0  # atno 3767 bound_to 3762
    3.1025  -20.3219    8.5652 H   0  0  0  0  0  0  0  0  0  0  0  0  # atno 3841 bound_to 3832
    4.1055  -10.2562    4.6955 LP  0  0  0  0  0  0  0  0  0  0  0  0  # atno 4297 bound_to 1298
    3.4432   -9.0786    3.7783 LP  0  0  0  0  0  0  0  0  0  0  0  0  # atno 4298 bound_to 1298
    0.4272   -9.0438    7.8708 LP  0  0  0  0  0  0  0  0  0  0  0  0  # atno 4299 bound_to 2456
    2.0097   -8.8371    8.2167 LP  0  0  0  0  0  0  0  0  0  0  0  0  # atno 4300 bound_to 2456
    2.2439   -8.8948    5.9585 LP  0  0  0  0  0  0  0  0  0  0  0  0  # atno 4301 bound_to 2510
    2.2170   -7.4160    5.2663 LP  0  0  0  0  0  0  0  0  0  0  0  0  # atno 4302 bound_to 2510
   -3.1649  -17.3995   12.9566 LP  0  0  0  0  0  0  0  0  0  0  0  0  # atno 4306 bound_to 3712
   -2.6298  -18.1218   14.3199 LP  0  0  0  0  0  0  0  0  0  0  0  0  # atno 4307 bound_to 3712
    2.0284  -21.0129    9.5373 LP  0  0  0  0  0  0  0  0  0  0  0  0  # atno 4314 bound_to 3832
    1.6171  -19.7175    8.6322 LP  0  0  0  0  0  0  0  0  0  0  0  0  # atno 4315 bound_to 3832
   -4.3949  -22.2244   11.6505 LP  0  0  0  0  0  0  0  0  0  0  0  0  # atno 4318 bound_to 3762
   -4.2275  -23.3337   10.4639 LP  0  0  0  0  0  0  0  0  0  0  0  0  # atno 4319 bound_to 3762
   -3.7550   -5.2081    9.0099 LP  0  0  0  0  0  0  0  0  0  0  0  0  # atno 4320 bound_to 2467
   -5.3792   -5.3724    8.9701 LP  0  0  0  0  0  0  0  0  0  0  0  0  # atno 4321 bound_to 2467

> <Gold.Score>
     Score     S(PLP)   S(hbond)     S(cho)   S(metal)  DE(clash)   DE(tors)     intcor
     31.66     -31.66       0.00       0.00       0.00       0.00       0.00       0.00

> <Gold.PLP.Fitness>
31.6648

> <Gold.PLP.PLP>
-31.6648

> <Gold.PLP.part.hbond>
0.0000

> <Gold.PLP.part.metal>
0.0000

> <Gold.PLP.part.buried>
-2.2624

> <Gold.PLP.part.nonpolar>
-30.0758

> <Gold.PLP.part.repulsive>
0.0000

> <Gold.PLP.ligand.clash>
0.0000

> <Gold.PLP.ligand.torsion>
0.0000

> <Gold.PLP.Chemscore.Hbond>
0.0000

> <Gold.PLP.Chemscore.CHOScore>
0.0000

> <Gold.PLP.Chemscore.Metal>
0.0000

> <Gold.PLP.Chemscore.Internal.Correction>
0.0000

