#       Name:                EN300-124870_i001
#       Creating user name   fsindt
#       Creation time:       Tue Feb 28 11:59:02 2023


#       File generated by GOLD software.
#

@<TRIPOS>MOLECULE
EN300-124870_i001|amine_4|mol2|5079|dock13
    25    26     1
SMALL
USER_CHARGES


@<TRIPOS>ATOM
      1 N1           0.7927 -17.1736   7.7732 N.4            1 <1>                1.0000
      2 C2          -0.1048 -16.1868   8.3885 C.3            1 <1>                0.0000
      3 C3          -0.9975 -15.3652   7.4560 C.3            1 <1>                0.0000
      4 C4           0.1983 -14.7090   8.1455 C.3            1 <1>                0.0000
      5 C5           1.4154 -14.3631   7.2825 C.3            1 <1>                0.0000
      6 C6           1.2646 -12.9296   6.7645 C.3            1 <1>                0.0000
      7 C7           1.0941 -11.9757   7.9478 C.3            1 <1>                0.0000
      8 C8          -0.1923 -12.3118   8.7037 C.3            1 <1>                0.0000
      9 C9          -0.0884 -13.7256   9.2841 C.3            1 <1>                0.0000
     10 H10         -0.5127 -16.4642   9.3606 H              1 <1>                0.0000
     11 H11         -0.9187 -15.5566   6.3858 H              1 <1>                0.0000
     12 H12         -1.9924 -15.1014   7.8148 H              1 <1>                0.0000
     13 H13          2.3222 -14.4412   7.8823 H              1 <1>                0.0000
     14 H14          1.4728 -15.0519   6.4397 H              1 <1>                0.0000
     15 H15          2.1542 -12.6520   6.1992 H              1 <1>                0.0000
     16 H16          0.3891 -12.8670   6.1182 H              1 <1>                0.0000
     17 H17          1.9461 -12.0765   8.6200 H              1 <1>                0.0000
     18 H18          1.0420 -10.9503   7.5819 H              1 <1>                0.0000
     19 H19         -0.3355 -11.5962   9.5132 H              1 <1>                0.0000
     20 H20         -1.0395 -12.2611   8.0196 H              1 <1>                0.0000
     21 H21         -1.0282 -13.9914   9.7681 H              1 <1>                0.0000
     22 H22          0.7224 -13.7629  10.0116 H              1 <1>                0.0000
     23 H23          1.3981 -17.5642   8.4796 H              1 <1>                0.0000
     24 H24          0.2457 -17.9106   7.3541 H              1 <1>                0.0000
     25 H25          1.3510 -16.7237   7.0632 H              1 <1>                0.0000
@<TRIPOS>BOND
    1    1    2 1     
    2    1   23 1     
    3    1   24 1     
    4    1   25 1     
    5    2    3 1     
    6    2    4 1     
    7    2   10 1     
    8    3    4 1     
    9    3   11 1     
   10    3   12 1     
   11    4    5 1     
   12    4    9 1     
   13    5    6 1     
   14    5   13 1     
   15    5   14 1     
   16    6    7 1     
   17    6   15 1     
   18    6   16 1     
   19    7    8 1     
   20    7   17 1     
   21    7   18 1     
   22    8    9 1     
   23    8   19 1     
   24    8   20 1     
   25    9   21 1     
   26    9   22 1     
@<TRIPOS>SUBSTRUCTURE
      1 ****           1
@<TRIPOS>SET
DONOR_HYDROGENS      STATIC     ATOMS    <user>   **** ""
3 23 24 25
ATOM$RED        STATIC     ATOMS    COLORGROUP SYSTEM
3 23 24 25
@<TRIPOS>COMMENT
> <Gold.Version>
2022.2.0

> <Gold.Id.Protein>
3pbl|protein|mol2

> <Gold.Protein.RotatedTorsions>
[ 1303 1298 1297 1294 ] final -136.77 input  179.99 | X-H torsion
[ 2461 2456 2455 2452 ] final -103.60 input   30.03 | X-H torsion
[ 2515 2510 2509 2506 ] final   34.11 input  -89.99 | X-H torsion
[ 3721 3712 3711 3710 ] final  -51.62 input -179.91 | X-H torsion
[ 3841 3832 3831 3830 ] final  171.79 input -179.91 | X-H torsion
[ 3767 3762 3761 3758 ] final  121.65 input  -89.99 | X-H torsion
[ 2472 2467 2466 2463 ] final   27.22 input  -89.97 | X-H torsion

> <Gold.Protein.ActiveResidues>
 VAL82   VAL86   LEU89   PHE106  VAL107  ASP110  VAL111  MET112  CYS114  THR115 
 CYS181  SER182  ILE183  PHE188  VAL189  ILE190  SER192  SER193  SER196  TRP342 
 PHE345  PHE346  HIS349  VAL350  TYR365  THR369  GLY372  TYR373 

> <Gold.Protein.RotatedAtoms>
    4.4541   -8.4987    4.2564 H   0  0  0  0  0  0  0  0  0  0  0  0  # atno 1303 bound_to 1298
    0.4268   -9.0438    7.8707 H   0  0  0  0  0  0  0  0  0  0  0  0  # atno 2461 bound_to 2456
   -4.1254   -4.8071    7.7821 H   0  0  0  0  0  0  0  0  0  0  0  0  # atno 2472 bound_to 2467
    2.3043   -7.4142    5.0590 H   0  0  0  0  0  0  0  0  0  0  0  0  # atno 2515 bound_to 2510
   -2.7396  -17.4399   14.7301 H   0  0  0  0  0  0  0  0  0  0  0  0  # atno 3721 bound_to 3712
   -3.9473  -23.1763   10.9265 H   0  0  0  0  0  0  0  0  0  0  0  0  # atno 3767 bound_to 3762
    3.0223  -20.1456    8.4571 H   0  0  0  0  0  0  0  0  0  0  0  0  # atno 3841 bound_to 3832
    4.5753   -9.9869    4.9174 LP  0  0  0  0  0  0  0  0  0  0  0  0  # atno 4297 bound_to 1298
    3.3326   -9.6361    3.9178 LP  0  0  0  0  0  0  0  0  0  0  0  0  # atno 4298 bound_to 1298
    2.0095   -8.8372    8.2169 LP  0  0  0  0  0  0  0  0  0  0  0  0  # atno 4299 bound_to 2456
    1.3012   -7.9273    7.0606 LP  0  0  0  0  0  0  0  0  0  0  0  0  # atno 4300 bound_to 2456
    2.8278   -8.8805    4.5672 LP  0  0  0  0  0  0  0  0  0  0  0  0  # atno 4301 bound_to 2510
    2.1647   -8.7049    6.0491 LP  0  0  0  0  0  0  0  0  0  0  0  0  # atno 4302 bound_to 2510
   -3.5613  -16.6025   13.6340 LP  0  0  0  0  0  0  0  0  0  0  0  0  # atno 4306 bound_to 3712
   -2.8034  -17.9892   13.2228 LP  0  0  0  0  0  0  0  0  0  0  0  0  # atno 4307 bound_to 3712
    2.2490  -21.1063    9.4843 LP  0  0  0  0  0  0  0  0  0  0  0  0  # atno 4314 bound_to 3832
    1.4891  -19.8278    8.8101 LP  0  0  0  0  0  0  0  0  0  0  0  0  # atno 4315 bound_to 3832
   -5.3083  -22.7374   10.1379 LP  0  0  0  0  0  0  0  0  0  0  0  0  # atno 4318 bound_to 3762
   -4.8715  -21.9615   11.5067 LP  0  0  0  0  0  0  0  0  0  0  0  0  # atno 4319 bound_to 3762
   -4.0817   -5.3556    9.3195 LP  0  0  0  0  0  0  0  0  0  0  0  0  # atno 4320 bound_to 2467
   -5.5097   -5.2308    8.5374 LP  0  0  0  0  0  0  0  0  0  0  0  0  # atno 4321 bound_to 2467

> <Gold.Score>
     Score     S(PLP)   S(hbond)     S(cho)   S(metal)  DE(clash)   DE(tors)     intcor
     33.27     -27.27       2.00       0.00       0.00       0.00       0.00       0.00

> <Gold.PLP.Fitness>
33.2743

> <Gold.PLP.PLP>
-27.2743

> <Gold.PLP.part.hbond>
-1.7974

> <Gold.PLP.part.metal>
0.0000

> <Gold.PLP.part.buried>
-0.6459

> <Gold.PLP.part.nonpolar>
-25.3587

> <Gold.PLP.part.repulsive>
0.0000

> <Gold.PLP.ligand.clash>
0.0000

> <Gold.PLP.ligand.torsion>
0.0000

> <Gold.PLP.Chemscore.Hbond>
2.0000

> <Gold.PLP.Chemscore.CHOScore>
0.0000

> <Gold.PLP.Chemscore.Metal>
0.0000

> <Gold.Chemscore.Hbonds>
donor molecule, donor type, donor heavy atom, donor atom, acceptor molecule, acceptor atom, score
      L1  H     1    23       P1  1227  2.00

> <Gold.PLP.Chemscore.Internal.Correction>
0.0000

