#       Name:                EN300-124870_i001
#       Creating user name   fsindt
#       Creation time:       Tue Feb 28 11:58:59 2023


#       File generated by GOLD software.
#

@<TRIPOS>MOLECULE
EN300-124870_i001|amine_4|mol2|5079|dock4
    25    26     1
SMALL
USER_CHARGES


@<TRIPOS>ATOM
      1 N1           2.3112 -15.4061  11.1322 N.4            1 <1>                1.0000
      2 C2           1.2779 -14.3661  11.0394 C.3            1 <1>                0.0000
      3 C3          -0.0477 -14.7443  10.3749 C.3            1 <1>                0.0000
      4 C4           0.9389 -13.8302   9.6491 C.3            1 <1>                0.0000
      5 C5           1.7015 -14.4120   8.4551 C.3            1 <1>                0.0000
      6 C6           0.9081 -14.1307   7.1754 C.3            1 <1>                0.0000
      7 C7           0.6712 -12.6254   7.0435 C.3            1 <1>                0.0000
      8 C8          -0.1821 -12.1304   8.2122 C.3            1 <1>                0.0000
      9 C9           0.5762 -12.3474   9.5253 C.3            1 <1>                0.0000
     10 H10          1.2411 -13.6642  11.8726 H              1 <1>                0.0000
     11 H11         -0.1531 -15.7647  10.0065 H              1 <1>                0.0000
     12 H12         -0.9565 -14.2908  10.7706 H              1 <1>                0.0000
     13 H13          2.6836 -13.9441   8.3861 H              1 <1>                0.0000
     14 H14          1.8163 -15.4881   8.5845 H              1 <1>                0.0000
     15 H15          1.4713 -14.4869   6.3129 H              1 <1>                0.0000
     16 H16         -0.0509 -14.6468   7.2215 H              1 <1>                0.0000
     17 H17          1.6294 -12.1061   7.0490 H              1 <1>                0.0000
     18 H18          0.1548 -12.4209   6.1057 H              1 <1>                0.0000
     19 H19         -0.3917 -11.0684   8.0848 H              1 <1>                0.0000
     20 H20         -1.1199 -12.6854   8.2382 H              1 <1>                0.0000
     21 H21         -0.0552 -12.0548  10.3641 H              1 <1>                0.0000
     22 H22          1.4864 -11.7477   9.5246 H              1 <1>                0.0000
     23 H23          2.2048 -16.0552  10.3669 H              1 <1>                0.0000
     24 H24          3.2239 -14.9785  11.0860 H              1 <1>                0.0000
     25 H25          2.2145 -15.8992  12.0072 H              1 <1>                0.0000
@<TRIPOS>BOND
    1    1    2 1     
    2    1   23 1     
    3    1   24 1     
    4    1   25 1     
    5    2    3 1     
    6    2    4 1     
    7    2   10 1     
    8    3    4 1     
    9    3   11 1     
   10    3   12 1     
   11    4    5 1     
   12    4    9 1     
   13    5    6 1     
   14    5   13 1     
   15    5   14 1     
   16    6    7 1     
   17    6   15 1     
   18    6   16 1     
   19    7    8 1     
   20    7   17 1     
   21    7   18 1     
   22    8    9 1     
   23    8   19 1     
   24    8   20 1     
   25    9   21 1     
   26    9   22 1     
@<TRIPOS>SUBSTRUCTURE
      1 ****           1
@<TRIPOS>SET
DONOR_HYDROGENS      STATIC     ATOMS    <user>   **** ""
3 23 24 25
ATOM$RED        STATIC     ATOMS    COLORGROUP SYSTEM
3 23 24 25
@<TRIPOS>COMMENT
> <Gold.Version>
2022.2.0

> <Gold.Id.Protein>
3pbl|protein|mol2

> <Gold.Protein.RotatedTorsions>
[ 1303 1298 1297 1294 ] final   70.65 input  179.99 | X-H torsion
[ 2461 2456 2455 2452 ] final -161.28 input   30.03 | X-H torsion
[ 2515 2510 2509 2506 ] final  102.25 input  -89.99 | X-H torsion
[ 3721 3712 3711 3710 ] final -127.60 input -179.91 | X-H torsion
[ 3841 3832 3831 3830 ] final -146.49 input -179.91 | X-H torsion
[ 3767 3762 3761 3758 ] final  -34.33 input  -89.99 | X-H torsion
[ 2472 2467 2466 2463 ] final   80.43 input  -89.97 | X-H torsion

> <Gold.Protein.ActiveResidues>
 VAL82   VAL86   LEU89   PHE106  VAL107  ASP110  VAL111  MET112  CYS114  THR115 
 CYS181  SER182  ILE183  PHE188  VAL189  ILE190  SER192  SER193  SER196  TRP342 
 PHE345  PHE346  HIS349  VAL350  TYR365  THR369  GLY372  TYR373 

> <Gold.Protein.RotatedAtoms>
    4.1547  -10.2436    4.7255 H   0  0  0  0  0  0  0  0  0  0  0  0  # atno 1303 bound_to 1298
    1.1536   -9.2826    8.3630 H   0  0  0  0  0  0  0  0  0  0  0  0  # atno 2461 bound_to 2456
   -4.9651   -4.8796    7.7270 H   0  0  0  0  0  0  0  0  0  0  0  0  # atno 2472 bound_to 2467
    2.0295   -7.8970    5.9571 H   0  0  0  0  0  0  0  0  0  0  0  0  # atno 2515 bound_to 2510
   -3.2545  -16.6067   14.3086 H   0  0  0  0  0  0  0  0  0  0  0  0  # atno 3721 bound_to 3712
   -5.5071  -22.3033   10.4712 H   0  0  0  0  0  0  0  0  0  0  0  0  # atno 3767 bound_to 3762
    2.5829  -19.7257    8.3531 H   0  0  0  0  0  0  0  0  0  0  0  0  # atno 3841 bound_to 3832
    3.4191   -9.1320    3.7823 LP  0  0  0  0  0  0  0  0  0  0  0  0  # atno 4297 bound_to 1298
    4.7883   -8.7453    4.5837 LP  0  0  0  0  0  0  0  0  0  0  0  0  # atno 4298 bound_to 1298
    2.0807   -8.1835    7.5886 LP  0  0  0  0  0  0  0  0  0  0  0  0  # atno 4299 bound_to 2456
    0.5035   -8.3423    7.1967 LP  0  0  0  0  0  0  0  0  0  0  0  0  # atno 4300 bound_to 2456
    2.6542   -7.8451    4.4495 LP  0  0  0  0  0  0  0  0  0  0  0  0  # atno 4301 bound_to 2510
    2.6132   -9.2573    5.2683 LP  0  0  0  0  0  0  0  0  0  0  0  0  # atno 4302 bound_to 2510
   -3.1276  -17.4645   12.9574 LP  0  0  0  0  0  0  0  0  0  0  0  0  # atno 4306 bound_to 3712
   -2.6427  -18.0891   14.3861 LP  0  0  0  0  0  0  0  0  0  0  0  0  # atno 4307 bound_to 3712
    2.8301  -21.1096    9.1275 LP  0  0  0  0  0  0  0  0  0  0  0  0  # atno 4314 bound_to 3832
    1.4155  -20.3096    9.2871 LP  0  0  0  0  0  0  0  0  0  0  0  0  # atno 4315 bound_to 3832
   -4.3793  -22.2370   11.6504 LP  0  0  0  0  0  0  0  0  0  0  0  0  # atno 4318 bound_to 3762
   -4.2412  -23.3347   10.4493 LP  0  0  0  0  0  0  0  0  0  0  0  0  # atno 4319 bound_to 3762
   -3.6385   -5.0692    8.6601 LP  0  0  0  0  0  0  0  0  0  0  0  0  # atno 4320 bound_to 2467
   -5.1134   -5.4447    9.2519 LP  0  0  0  0  0  0  0  0  0  0  0  0  # atno 4321 bound_to 2467

> <Gold.Score>
     Score     S(PLP)   S(hbond)     S(cho)   S(metal)  DE(clash)   DE(tors)     intcor
     34.22     -28.27       1.98       0.00       0.00       0.00       0.00       0.00

> <Gold.PLP.Fitness>
34.2212

> <Gold.PLP.PLP>
-28.2692

> <Gold.PLP.part.hbond>
-1.0000

> <Gold.PLP.part.metal>
0.0000

> <Gold.PLP.part.buried>
-2.9237

> <Gold.PLP.part.nonpolar>
-24.2271

> <Gold.PLP.part.repulsive>
0.0293

> <Gold.PLP.ligand.clash>
0.0000

> <Gold.PLP.ligand.torsion>
0.0000

> <Gold.PLP.Chemscore.Hbond>
1.9840

> <Gold.PLP.Chemscore.CHOScore>
0.0000

> <Gold.PLP.Chemscore.Metal>
0.0000

> <Gold.Chemscore.Hbonds>
donor molecule, donor type, donor heavy atom, donor atom, acceptor molecule, acceptor atom, score
      L1  H     1    23       P1  1227  1.98

> <Gold.PLP.Chemscore.Internal.Correction>
0.0000

