#       Name:                EN300-124870_i001
#       Creating user name   fsindt
#       Creation time:       Tue Feb 28 11:58:59 2023


#       File generated by GOLD software.
#

@<TRIPOS>MOLECULE
EN300-124870_i001|amine_4|mol2|5079|dock2
    25    26     1
SMALL
USER_CHARGES


@<TRIPOS>ATOM
      1 N1           0.2028 -15.9522  10.2833 N.4            1 <1>                1.0000
      2 C2           0.4075 -14.8358   9.3507 C.3            1 <1>                0.0000
      3 C3           1.3310 -13.7010   9.7987 C.3            1 <1>                0.0000
      4 C4          -0.1797 -13.4785   9.7352 C.3            1 <1>                0.0000
      5 C5          -0.9408 -13.3803  11.0606 C.3            1 <1>                0.0000
      6 C6          -1.0090 -11.9102  11.4853 C.3            1 <1>                0.0000
      7 C7          -1.6605 -11.0882  10.3721 C.3            1 <1>                0.0000
      8 C8          -0.7968 -11.1460   9.1114 C.3            1 <1>                0.0000
      9 C9          -0.7216 -12.5915   8.6103 C.3            1 <1>                0.0000
     10 H10          0.4125 -15.1013   8.2935 H              1 <1>                0.0000
     11 H11          1.7867 -13.7826  10.7855 H              1 <1>                0.0000
     12 H12          1.9433 -13.2194   9.0362 H              1 <1>                0.0000
     13 H13         -1.9504 -13.7703  10.9316 H              1 <1>                0.0000
     14 H14         -0.4195 -13.9572  11.8244 H              1 <1>                0.0000
     15 H15         -1.6011 -11.8222  12.3962 H              1 <1>                0.0000
     16 H16         -0.0012 -11.5380  11.6696 H              1 <1>                0.0000
     17 H17         -2.6484 -11.4934  10.1534 H              1 <1>                0.0000
     18 H18         -1.7588 -10.0523  10.6969 H              1 <1>                0.0000
     19 H19         -1.2385 -10.5161   8.3392 H              1 <1>                0.0000
     20 H20          0.2069 -10.7885   9.3418 H              1 <1>                0.0000
     21 H21         -0.0549 -12.6453   7.7497 H              1 <1>                0.0000
     22 H22         -1.7172 -12.9312   8.3249 H              1 <1>                0.0000
     23 H23         -0.6808 -16.3977  10.0859 H              1 <1>                0.0000
     24 H24          0.9492 -16.6225  10.1745 H              1 <1>                0.0000
     25 H25          0.1995 -15.6033  11.2300 H              1 <1>                0.0000
@<TRIPOS>BOND
    1    1    2 1     
    2    1   23 1     
    3    1   24 1     
    4    1   25 1     
    5    2    3 1     
    6    2    4 1     
    7    2   10 1     
    8    3    4 1     
    9    3   11 1     
   10    3   12 1     
   11    4    5 1     
   12    4    9 1     
   13    5    6 1     
   14    5   13 1     
   15    5   14 1     
   16    6    7 1     
   17    6   15 1     
   18    6   16 1     
   19    7    8 1     
   20    7   17 1     
   21    7   18 1     
   22    8    9 1     
   23    8   19 1     
   24    8   20 1     
   25    9   21 1     
   26    9   22 1     
@<TRIPOS>SUBSTRUCTURE
      1 ****           1
@<TRIPOS>SET
DONOR_HYDROGENS      STATIC     ATOMS    <user>   **** ""
3 23 24 25
ATOM$RED        STATIC     ATOMS    COLORGROUP SYSTEM
3 23 24 25
@<TRIPOS>COMMENT
> <Gold.Version>
2022.2.0

> <Gold.Id.Protein>
3pbl|protein|mol2

> <Gold.Protein.RotatedTorsions>
[ 1303 1298 1297 1294 ] final  -96.82 input  179.99 | X-H torsion
[ 2461 2456 2455 2452 ] final   40.75 input   30.03 | X-H torsion
[ 2515 2510 2509 2506 ] final  -81.44 input  -89.99 | X-H torsion
[ 3721 3712 3711 3710 ] final  -21.96 input -179.91 | X-H torsion
[ 3841 3832 3831 3830 ] final   80.91 input -179.91 | X-H torsion
[ 3767 3762 3761 3758 ] final -169.69 input  -89.99 | X-H torsion
[ 2472 2467 2466 2463 ] final  152.32 input  -89.97 | X-H torsion

> <Gold.Protein.ActiveResidues>
 VAL82   VAL86   LEU89   PHE106  VAL107  ASP110  VAL111  MET112  CYS114  THR115 
 CYS181  SER182  ILE183  PHE188  VAL189  ILE190  SER192  SER193  SER196  TRP342 
 PHE345  PHE346  HIS349  VAL350  TYR365  THR369  GLY372  TYR373 

> <Gold.Protein.RotatedAtoms>
    3.9156   -8.5729    3.9110 H   0  0  0  0  0  0  0  0  0  0  0  0  # atno 1303 bound_to 1298
    1.6731   -7.9380    7.2012 H   0  0  0  0  0  0  0  0  0  0  0  0  # atno 2461 bound_to 2456
   -5.5037   -5.2594    8.6163 H   0  0  0  0  0  0  0  0  0  0  0  0  # atno 2472 bound_to 2467
    2.8328   -8.8207    4.5251 H   0  0  0  0  0  0  0  0  0  0  0  0  # atno 2515 bound_to 2510
   -2.5623  -17.7832   14.5127 H   0  0  0  0  0  0  0  0  0  0  0  0  # atno 3721 bound_to 3712
   -4.1969  -22.4080   11.6184 H   0  0  0  0  0  0  0  0  0  0  0  0  # atno 3767 bound_to 3762
    2.7397  -20.9479    9.3504 H   0  0  0  0  0  0  0  0  0  0  0  0  # atno 3841 bound_to 3832
    4.8852   -9.4221    4.9136 LP  0  0  0  0  0  0  0  0  0  0  0  0  # atno 4297 bound_to 1298
    3.5614  -10.1266    4.2671 LP  0  0  0  0  0  0  0  0  0  0  0  0  # atno 4298 bound_to 1298
    0.3313   -8.7878    7.5816 LP  0  0  0  0  0  0  0  0  0  0  0  0  # atno 4299 bound_to 2456
    1.7335   -9.0821    8.3651 LP  0  0  0  0  0  0  0  0  0  0  0  0  # atno 4300 bound_to 2456
    2.1890   -8.7694    6.0246 LP  0  0  0  0  0  0  0  0  0  0  0  0  # atno 4301 bound_to 2510
    2.2748   -7.4088    5.1258 LP  0  0  0  0  0  0  0  0  0  0  0  0  # atno 4302 bound_to 2510
   -3.5372  -16.5687   14.1225 LP  0  0  0  0  0  0  0  0  0  0  0  0  # atno 4306 bound_to 3712
   -3.0323  -17.6265   12.9855 LP  0  0  0  0  0  0  0  0  0  0  0  0  # atno 4307 bound_to 3712
    1.3899  -20.1096    9.1239 LP  0  0  0  0  0  0  0  0  0  0  0  0  # atno 4314 bound_to 3832
    2.6747  -19.8976    8.1385 LP  0  0  0  0  0  0  0  0  0  0  0  0  # atno 4315 bound_to 3832
   -4.4303  -23.3195   10.2837 LP  0  0  0  0  0  0  0  0  0  0  0  0  # atno 4318 bound_to 3762
   -5.5000  -22.1474   10.6692 LP  0  0  0  0  0  0  0  0  0  0  0  0  # atno 4319 bound_to 3762
   -4.2008   -4.8013    7.7452 LP  0  0  0  0  0  0  0  0  0  0  0  0  # atno 4320 bound_to 2467
   -4.0126   -5.3329    9.2777 LP  0  0  0  0  0  0  0  0  0  0  0  0  # atno 4321 bound_to 2467

> <Gold.Score>
     Score     S(PLP)   S(hbond)     S(cho)   S(metal)  DE(clash)   DE(tors)     intcor
     33.66     -27.66       2.00       0.00       0.00       0.00       0.00       0.00

> <Gold.PLP.Fitness>
33.6630

> <Gold.PLP.PLP>
-27.6630

> <Gold.PLP.part.hbond>
-1.0000

> <Gold.PLP.part.metal>
0.0000

> <Gold.PLP.part.buried>
-1.9991

> <Gold.PLP.part.nonpolar>
-25.6153

> <Gold.PLP.part.repulsive>
0.0000

> <Gold.PLP.ligand.clash>
0.0000

> <Gold.PLP.ligand.torsion>
0.0000

> <Gold.PLP.Chemscore.Hbond>
2.0000

> <Gold.PLP.Chemscore.CHOScore>
0.0000

> <Gold.PLP.Chemscore.Metal>
0.0000

> <Gold.Chemscore.Hbonds>
donor molecule, donor type, donor heavy atom, donor atom, acceptor molecule, acceptor atom, score
      L1  H     1    24       P1  1227  2.00

> <Gold.PLP.Chemscore.Internal.Correction>
0.0000

