#       Name:                EN300-124870_i001
#       Creating user name   fsindt
#       Creation time:       Tue Feb 28 11:59:04 2023


#       File generated by GOLD software.
#

@<TRIPOS>MOLECULE
EN300-124870_i001|amine_4|mol2|5079|dock19
    25    26     1
SMALL
USER_CHARGES


@<TRIPOS>ATOM
      1 N1           1.8700 -19.8136  11.3043 N.4            1 <1>                1.0000
      2 C2           0.4749 -20.0501  11.6990 C.3            1 <1>                0.0000
      3 C3           0.0865 -19.7344  13.1451 C.3            1 <1>                0.0000
      4 C4           0.2032 -21.1867  12.6835 C.3            1 <1>                0.0000
      5 C5           1.4017 -21.9982  13.1844 C.3            1 <1>                0.0000
      6 C6           1.0072 -22.7184  14.4774 C.3            1 <1>                0.0000
      7 C7          -0.2244 -23.5882  14.2205 C.3            1 <1>                0.0000
      8 C8          -1.4092 -22.7057  13.8252 C.3            1 <1>                0.0000
      9 C9          -1.0925 -21.9849  12.5113 C.3            1 <1>                0.0000
     10 H10         -0.2704 -19.8646  10.9256 H              1 <1>                0.0000
     11 H11          0.8660 -19.3513  13.8036 H              1 <1>                0.0000
     12 H12         -0.9147 -19.3417  13.3231 H              1 <1>                0.0000
     13 H13          1.6867 -22.7318  12.4302 H              1 <1>                0.0000
     14 H14          2.2395 -21.3290  13.3801 H              1 <1>                0.0000
     15 H15          1.8332 -23.3472  14.8097 H              1 <1>                0.0000
     16 H16          0.7780 -21.9824  15.2480 H              1 <1>                0.0000
     17 H17         -0.0105 -24.2899  13.4145 H              1 <1>                0.0000
     18 H18         -0.4716 -24.1425  15.1260 H              1 <1>                0.0000
     19 H19         -2.2964 -23.3254  13.6952 H              1 <1>                0.0000
     20 H20         -1.5916 -21.9698  14.6086 H              1 <1>                0.0000
     21 H21         -1.9084 -21.3069  12.2610 H              1 <1>                0.0000
     22 H22         -0.9667 -22.7176  11.7141 H              1 <1>                0.0000
     23 H23          2.1300 -20.4665  10.5802 H              1 <1>                0.0000
     24 H24          1.9662 -18.8709  10.9575 H              1 <1>                0.0000
     25 H25          2.4720 -19.9409  12.1039 H              1 <1>                0.0000
@<TRIPOS>BOND
    1    1    2 1     
    2    1   23 1     
    3    1   24 1     
    4    1   25 1     
    5    2    3 1     
    6    2    4 1     
    7    2   10 1     
    8    3    4 1     
    9    3   11 1     
   10    3   12 1     
   11    4    5 1     
   12    4    9 1     
   13    5    6 1     
   14    5   13 1     
   15    5   14 1     
   16    6    7 1     
   17    6   15 1     
   18    6   16 1     
   19    7    8 1     
   20    7   17 1     
   21    7   18 1     
   22    8    9 1     
   23    8   19 1     
   24    8   20 1     
   25    9   21 1     
   26    9   22 1     
@<TRIPOS>SUBSTRUCTURE
      1 ****           1
@<TRIPOS>SET
DONOR_HYDROGENS      STATIC     ATOMS    <user>   **** ""
3 23 24 25
ATOM$RED        STATIC     ATOMS    COLORGROUP SYSTEM
3 23 24 25
@<TRIPOS>COMMENT
> <Gold.Version>
2022.2.0

> <Gold.Id.Protein>
3pbl|protein|mol2

> <Gold.Protein.RotatedTorsions>
[ 1303 1298 1297 1294 ] final -134.75 input  179.99 | X-H torsion
[ 2461 2456 2455 2452 ] final -179.69 input   30.03 | X-H torsion
[ 2515 2510 2509 2506 ] final  133.72 input  -89.99 | X-H torsion
[ 3721 3712 3711 3710 ] final -133.84 input -179.91 | X-H torsion
[ 3841 3832 3831 3830 ] final  172.81 input -179.91 | X-H torsion
[ 3767 3762 3761 3758 ] final -129.08 input  -89.99 | X-H torsion
[ 2472 2467 2466 2463 ] final   66.98 input  -89.97 | X-H torsion

> <Gold.Protein.ActiveResidues>
 VAL82   VAL86   LEU89   PHE106  VAL107  ASP110  VAL111  MET112  CYS114  THR115 
 CYS181  SER182  ILE183  PHE188  VAL189  ILE190  SER192  SER193  SER196  TRP342 
 PHE345  PHE346  HIS349  VAL350  TYR365  THR369  GLY372  TYR373 

> <Gold.Protein.RotatedAtoms>
    4.4287   -8.4921    4.2362 H   0  0  0  0  0  0  0  0  0  0  0  0  # atno 1303 bound_to 1298
    1.4461   -9.2188    8.4014 H   0  0  0  0  0  0  0  0  0  0  0  0  # atno 2461 bound_to 2456
   -4.7561   -4.8361    7.6700 H   0  0  0  0  0  0  0  0  0  0  0  0  # atno 2472 bound_to 2467
    2.0764   -8.3866    6.0961 H   0  0  0  0  0  0  0  0  0  0  0  0  # atno 2515 bound_to 2510
   -3.2804  -16.5747   14.2237 H   0  0  0  0  0  0  0  0  0  0  0  0  # atno 3721 bound_to 3712
   -4.7221  -22.0197   11.5799 H   0  0  0  0  0  0  0  0  0  0  0  0  # atno 3767 bound_to 3762
    3.0150  -20.1335    8.4508 H   0  0  0  0  0  0  0  0  0  0  0  0  # atno 3841 bound_to 3832
    4.5978   -9.9634    4.9240 LP  0  0  0  0  0  0  0  0  0  0  0  0  # atno 4297 bound_to 1298
    3.3355   -9.6662    3.9315 LP  0  0  0  0  0  0  0  0  0  0  0  0  # atno 4298 bound_to 1298
    1.9194   -8.0335    7.3825 LP  0  0  0  0  0  0  0  0  0  0  0  0  # atno 4299 bound_to 2456
    0.3724   -8.5560    7.3645 LP  0  0  0  0  0  0  0  0  0  0  0  0  # atno 4300 bound_to 2456
    2.4455   -7.5068    4.7712 LP  0  0  0  0  0  0  0  0  0  0  0  0  # atno 4301 bound_to 2510
    2.7750   -9.1057    4.8075 LP  0  0  0  0  0  0  0  0  0  0  0  0  # atno 4302 bound_to 2510
   -3.0753  -17.5541   12.9682 LP  0  0  0  0  0  0  0  0  0  0  0  0  # atno 4306 bound_to 3712
   -2.6651  -18.0365   14.4734 LP  0  0  0  0  0  0  0  0  0  0  0  0  # atno 4307 bound_to 3712
    2.2646  -21.1111    9.4790 LP  0  0  0  0  0  0  0  0  0  0  0  0  # atno 4314 bound_to 3832
    1.4820  -19.8369    8.8227 LP  0  0  0  0  0  0  0  0  0  0  0  0  # atno 4315 bound_to 3832
   -4.0081  -23.2504   10.7786 LP  0  0  0  0  0  0  0  0  0  0  0  0  # atno 4318 bound_to 3762
   -5.3972  -22.6047   10.2129 LP  0  0  0  0  0  0  0  0  0  0  0  0  # atno 4319 bound_to 3762
   -3.6840   -5.1469    8.8618 LP  0  0  0  0  0  0  0  0  0  0  0  0  # atno 4320 bound_to 2467
   -5.2768   -5.4105    9.1072 LP  0  0  0  0  0  0  0  0  0  0  0  0  # atno 4321 bound_to 2467

> <Gold.Score>
     Score     S(PLP)   S(hbond)     S(cho)   S(metal)  DE(clash)   DE(tors)     intcor
     32.17     -23.81       2.78       0.00       0.00       0.00       0.00       0.00

> <Gold.PLP.Fitness>
32.1663

> <Gold.PLP.PLP>
-23.8143

> <Gold.PLP.part.hbond>
-2.0000

> <Gold.PLP.part.metal>
0.0000

> <Gold.PLP.part.buried>
-2.4186

> <Gold.PLP.part.nonpolar>
-19.6015

> <Gold.PLP.part.repulsive>
0.0000

> <Gold.PLP.ligand.clash>
0.0000

> <Gold.PLP.ligand.torsion>
0.0000

> <Gold.PLP.Chemscore.Hbond>
2.7840

> <Gold.PLP.Chemscore.CHOScore>
0.0000

> <Gold.PLP.Chemscore.Metal>
0.0000

> <Gold.Chemscore.Hbonds>
donor molecule, donor type, donor heavy atom, donor atom, acceptor molecule, acceptor atom, score
      L1  H     1    23       P1  3832  0.78
      L1  H     1    24       P1  1227  2.00

> <Gold.PLP.Chemscore.Internal.Correction>
0.0000

