#       Name:                EN300-124870_i001
#       Creating user name   fsindt
#       Creation time:       Tue Feb 28 11:58:59 2023


#       File generated by GOLD software.
#

@<TRIPOS>MOLECULE
EN300-124870_i001|amine_4|mol2|5079|dock3
    25    26     1
SMALL
USER_CHARGES


@<TRIPOS>ATOM
      1 N1          -2.6626  -9.0046   9.9013 N.4            1 <1>                1.0000
      2 C2          -2.1483 -10.0198  10.8302 C.3            1 <1>                0.0000
      3 C3          -0.6417 -10.0342  11.0979 C.3            1 <1>                0.0000
      4 C4          -1.2786 -11.1331  10.2478 C.3            1 <1>                0.0000
      5 C5          -1.0089 -11.1128   8.7404 C.3            1 <1>                0.0000
      6 C6           0.2270 -11.9684   8.4463 C.3            1 <1>                0.0000
      7 C7           0.0067 -13.3832   8.9841 C.3            1 <1>                0.0000
      8 C8          -0.1521 -13.3412  10.5046 C.3            1 <1>                0.0000
      9 C9          -1.4002 -12.5296  10.8649 C.3            1 <1>                0.0000
     10 H10         -2.8092 -10.2775  11.6578 H              1 <1>                0.0000
     11 H11         -0.0321  -9.2905  10.5847 H              1 <1>                0.0000
     12 H12         -0.3114 -10.3020  12.1016 H              1 <1>                0.0000
     13 H13         -1.8696 -11.5201   8.2100 H              1 <1>                0.0000
     14 H14         -0.8293 -10.0880   8.4155 H              1 <1>                0.0000
     15 H15          0.3922 -12.0105   7.3697 H              1 <1>                0.0000
     16 H16          1.0982 -11.5272   8.9306 H              1 <1>                0.0000
     17 H17         -0.8938 -13.8044   8.5372 H              1 <1>                0.0000
     18 H18          0.8632 -14.0062   8.7262 H              1 <1>                0.0000
     19 H19         -0.2557 -14.3565  10.8873 H              1 <1>                0.0000
     20 H20          0.7265 -12.8733  10.9489 H              1 <1>                0.0000
     21 H21         -1.4797 -12.4441  11.9486 H              1 <1>                0.0000
     22 H22         -2.2859 -13.0274  10.4702 H              1 <1>                0.0000
     23 H23         -3.6473  -9.1597   9.7450 H              1 <1>                0.0000
     24 H24         -2.5253  -8.0865  10.2968 H              1 <1>                0.0000
     25 H25         -2.1684  -9.0703   9.0240 H              1 <1>                0.0000
@<TRIPOS>BOND
    1    1    2 1     
    2    1   23 1     
    3    1   24 1     
    4    1   25 1     
    5    2    3 1     
    6    2    4 1     
    7    2   10 1     
    8    3    4 1     
    9    3   11 1     
   10    3   12 1     
   11    4    5 1     
   12    4    9 1     
   13    5    6 1     
   14    5   13 1     
   15    5   14 1     
   16    6    7 1     
   17    6   15 1     
   18    6   16 1     
   19    7    8 1     
   20    7   17 1     
   21    7   18 1     
   22    8    9 1     
   23    8   19 1     
   24    8   20 1     
   25    9   21 1     
   26    9   22 1     
@<TRIPOS>SUBSTRUCTURE
      1 ****           1
@<TRIPOS>SET
DONOR_HYDROGENS      STATIC     ATOMS    <user>   **** ""
3 23 24 25
ATOM$RED        STATIC     ATOMS    COLORGROUP SYSTEM
3 23 24 25
@<TRIPOS>COMMENT
> <Gold.Version>
2022.2.0

> <Gold.Id.Protein>
3pbl|protein|mol2

> <Gold.Protein.RotatedTorsions>
[ 1303 1298 1297 1294 ] final  -41.37 input  179.99 | X-H torsion
[ 2461 2456 2455 2452 ] final   52.68 input   30.03 | X-H torsion
[ 2515 2510 2509 2506 ] final  101.02 input  -89.99 | X-H torsion
[ 3721 3712 3711 3710 ] final   97.93 input -179.91 | X-H torsion
[ 3841 3832 3831 3830 ] final -170.15 input -179.91 | X-H torsion
[ 3767 3762 3761 3758 ] final -146.50 input  -89.99 | X-H torsion
[ 2472 2467 2466 2463 ] final   -7.38 input  -89.97 | X-H torsion

> <Gold.Protein.ActiveResidues>
 VAL82   VAL86   LEU89   PHE106  VAL107  ASP110  VAL111  MET112  CYS114  THR115 
 CYS181  SER182  ILE183  PHE188  VAL189  ILE190  SER192  SER193  SER196  TRP342 
 PHE345  PHE346  HIS349  VAL350  TYR365  THR369  GLY372  TYR373 

> <Gold.Protein.RotatedAtoms>
    3.3750   -9.2545    3.7998 H   0  0  0  0  0  0  0  0  0  0  0  0  # atno 1303 bound_to 1298
    1.8313   -7.9875    7.3058 H   0  0  0  0  0  0  0  0  0  0  0  0  # atno 2461 bound_to 2456
   -3.7363   -4.9054    8.1735 H   0  0  0  0  0  0  0  0  0  0  0  0  # atno 2472 bound_to 2467
    2.0301   -7.8795    5.9468 H   0  0  0  0  0  0  0  0  0  0  0  0  # atno 2515 bound_to 2510
   -2.8426  -17.5189   13.0636 H   0  0  0  0  0  0  0  0  0  0  0  0  # atno 3721 bound_to 3712
   -4.4815  -22.1590   11.6445 H   0  0  0  0  0  0  0  0  0  0  0  0  # atno 3767 bound_to 3762
    2.8641  -19.9415    8.3723 H   0  0  0  0  0  0  0  0  0  0  0  0  # atno 3841 bound_to 3832
    4.7229   -8.6624    4.5061 LP  0  0  0  0  0  0  0  0  0  0  0  0  # atno 4297 bound_to 1298
    4.2645  -10.2045    4.7859 LP  0  0  0  0  0  0  0  0  0  0  0  0  # atno 4298 bound_to 1298
    0.3438   -8.6473    7.4457 LP  0  0  0  0  0  0  0  0  0  0  0  0  # atno 4299 bound_to 2456
    1.5629   -9.1731    8.3965 LP  0  0  0  0  0  0  0  0  0  0  0  0  # atno 4300 bound_to 2456
    2.6614   -7.8621    4.4411 LP  0  0  0  0  0  0  0  0  0  0  0  0  # atno 4301 bound_to 2510
    2.6054   -9.2578    5.2870 LP  0  0  0  0  0  0  0  0  0  0  0  0  # atno 4302 bound_to 2510
   -2.7175  -17.9233   14.6124 LP  0  0  0  0  0  0  0  0  0  0  0  0  # atno 4306 bound_to 3712
   -3.5283  -16.5771   14.1685 LP  0  0  0  0  0  0  0  0  0  0  0  0  # atno 4307 bound_to 3712
    2.5191  -21.1568    9.3623 LP  0  0  0  0  0  0  0  0  0  0  0  0  # atno 4314 bound_to 3832
    1.4018  -20.0131    9.0301 LP  0  0  0  0  0  0  0  0  0  0  0  0  # atno 4315 bound_to 3832
   -4.1567  -23.3228   10.5459 LP  0  0  0  0  0  0  0  0  0  0  0  0  # atno 4318 bound_to 3762
   -5.4891  -22.3931   10.3809 LP  0  0  0  0  0  0  0  0  0  0  0  0  # atno 4319 bound_to 3762
   -4.6221   -5.4550    9.4304 LP  0  0  0  0  0  0  0  0  0  0  0  0  # atno 4320 bound_to 2467
   -5.3583   -5.0332    8.0352 LP  0  0  0  0  0  0  0  0  0  0  0  0  # atno 4321 bound_to 2467

> <Gold.Score>
     Score     S(PLP)   S(hbond)     S(cho)   S(metal)  DE(clash)   DE(tors)     intcor
     36.36     -33.36       1.00       0.00       0.00       0.00       0.00       0.00

> <Gold.PLP.Fitness>
36.3570

> <Gold.PLP.PLP>
-33.3570

> <Gold.PLP.part.hbond>
-0.9443

> <Gold.PLP.part.metal>
0.0000

> <Gold.PLP.part.buried>
-3.1383

> <Gold.PLP.part.nonpolar>
-30.0557

> <Gold.PLP.part.repulsive>
0.1211

> <Gold.PLP.ligand.clash>
0.0000

> <Gold.PLP.ligand.torsion>
0.0000

> <Gold.PLP.Chemscore.Hbond>
1.0000

> <Gold.PLP.Chemscore.CHOScore>
0.0000

> <Gold.PLP.Chemscore.Metal>
0.0000

> <Gold.Chemscore.Hbonds>
donor molecule, donor type, donor heavy atom, donor atom, acceptor molecule, acceptor atom, score
      L1  H     1    24       P1  2398  1.00

> <Gold.PLP.Chemscore.Internal.Correction>
0.0000

