#       Name:                EN300-124870_i001
#       Creating user name   fsindt
#       Creation time:       Tue Feb 28 11:59:04 2023


#       File generated by GOLD software.
#

@<TRIPOS>MOLECULE
EN300-124870_i001|amine_4|mol2|5079|dock18
    25    26     1
SMALL
USER_CHARGES


@<TRIPOS>ATOM
      1 N1           2.2783 -14.7005  10.1053 N.4            1 <1>                1.0000
      2 C2           0.8644 -14.6503  10.5009 C.3            1 <1>                0.0000
      3 C3          -0.1835 -14.7148   9.3876 C.3            1 <1>                0.0000
      4 C4           0.0703 -13.4002  10.1246 C.3            1 <1>                0.0000
      5 C5           0.8046 -12.2901   9.3668 C.3            1 <1>                0.0000
      6 C6          -0.2282 -11.3958   8.6742 C.3            1 <1>                0.0000
      7 C7          -1.2068 -10.8482   9.7143 C.3            1 <1>                0.0000
      8 C8          -1.9788 -12.0011  10.3575 C.3            1 <1>                0.0000
      9 C9          -1.0024 -12.9150  11.1042 C.3            1 <1>                0.0000
     10 H10          0.6236 -15.1341  11.4475 H              1 <1>                0.0000
     11 H11          0.1761 -14.7944   8.3617 H              1 <1>                0.0000
     12 H12         -1.1140 -15.2406   9.6021 H              1 <1>                0.0000
     13 H13          1.3908 -11.6957  10.0677 H              1 <1>                0.0000
     14 H14          1.4640 -12.7324   8.6201 H              1 <1>                0.0000
     15 H15          0.2806 -10.5669   8.1821 H              1 <1>                0.0000
     16 H16         -0.7745 -11.9786   7.9326 H              1 <1>                0.0000
     17 H17         -0.6539 -10.3088  10.4832 H              1 <1>                0.0000
     18 H18         -1.9078 -10.1686   9.2296 H              1 <1>                0.0000
     19 H19         -2.7112 -11.6014  11.0589 H              1 <1>                0.0000
     20 H20         -2.4912 -12.5721   9.5831 H              1 <1>                0.0000
     21 H21         -1.5412 -13.7716  11.5092 H              1 <1>                0.0000
     22 H22         -0.5315 -12.3606  11.9160 H              1 <1>                0.0000
     23 H23          2.6058 -15.6539  10.1479 H              1 <1>                0.0000
     24 H24          2.3765 -14.3528   9.1632 H              1 <1>                0.0000
     25 H25          2.8236 -14.1292  10.7332 H              1 <1>                0.0000
@<TRIPOS>BOND
    1    1    2 1     
    2    1   23 1     
    3    1   24 1     
    4    1   25 1     
    5    2    3 1     
    6    2    4 1     
    7    2   10 1     
    8    3    4 1     
    9    3   11 1     
   10    3   12 1     
   11    4    5 1     
   12    4    9 1     
   13    5    6 1     
   14    5   13 1     
   15    5   14 1     
   16    6    7 1     
   17    6   15 1     
   18    6   16 1     
   19    7    8 1     
   20    7   17 1     
   21    7   18 1     
   22    8    9 1     
   23    8   19 1     
   24    8   20 1     
   25    9   21 1     
   26    9   22 1     
@<TRIPOS>SUBSTRUCTURE
      1 ****           1
@<TRIPOS>SET
DONOR_HYDROGENS      STATIC     ATOMS    <user>   **** ""
3 23 24 25
ATOM$RED        STATIC     ATOMS    COLORGROUP SYSTEM
3 23 24 25
@<TRIPOS>COMMENT
> <Gold.Version>
2022.2.0

> <Gold.Id.Protein>
3pbl|protein|mol2

> <Gold.Protein.RotatedTorsions>
[ 1303 1298 1297 1294 ] final -173.22 input  179.99 | X-H torsion
[ 2461 2456 2455 2452 ] final   46.10 input   30.03 | X-H torsion
[ 2515 2510 2509 2506 ] final -146.67 input  -89.99 | X-H torsion
[ 3721 3712 3711 3710 ] final   56.20 input -179.91 | X-H torsion
[ 3841 3832 3831 3830 ] final   -4.16 input -179.91 | X-H torsion
[ 3767 3762 3761 3758 ] final  -31.46 input  -89.99 | X-H torsion
[ 2472 2467 2466 2463 ] final  155.81 input  -89.97 | X-H torsion

> <Gold.Protein.ActiveResidues>
 VAL82   VAL86   LEU89   PHE106  VAL107  ASP110  VAL111  MET112  CYS114  THR115 
 CYS181  SER182  ILE183  PHE188  VAL189  ILE190  SER192  SER193  SER196  TRP342 
 PHE345  PHE346  HIS349  VAL350  TYR365  THR369  GLY372  TYR373 

> <Gold.Protein.RotatedAtoms>
    4.8151   -8.7902    4.6203 H   0  0  0  0  0  0  0  0  0  0  0  0  # atno 1303 bound_to 1298
    1.7468   -7.9568    7.2457 H   0  0  0  0  0  0  0  0  0  0  0  0  # atno 2461 bound_to 2456
   -5.4954   -5.2778    8.6699 H   0  0  0  0  0  0  0  0  0  0  0  0  # atno 2472 bound_to 2467
    2.5552   -9.2504    5.4029 H   0  0  0  0  0  0  0  0  0  0  0  0  # atno 2515 bound_to 2510
   -2.5720  -17.9341   13.4312 H   0  0  0  0  0  0  0  0  0  0  0  0  # atno 3721 bound_to 3712
   -5.5022  -22.3354   10.4370 H   0  0  0  0  0  0  0  0  0  0  0  0  # atno 3767 bound_to 3762
    1.7024  -20.4388    9.5368 H   0  0  0  0  0  0  0  0  0  0  0  0  # atno 3841 bound_to 3832
    4.1015  -10.2571    4.6930 LP  0  0  0  0  0  0  0  0  0  0  0  0  # atno 4297 bound_to 1298
    3.4453   -9.0743    3.7781 LP  0  0  0  0  0  0  0  0  0  0  0  0  # atno 4298 bound_to 1298
    0.3320   -8.7254    7.5195 LP  0  0  0  0  0  0  0  0  0  0  0  0  # atno 4299 bound_to 2456
    1.6591   -9.1258    8.3828 LP  0  0  0  0  0  0  0  0  0  0  0  0  # atno 4300 bound_to 2456
    2.0377   -7.7756    5.8751 LP  0  0  0  0  0  0  0  0  0  0  0  0  # atno 4301 bound_to 2510
    2.7038   -7.9728    4.3972 LP  0  0  0  0  0  0  0  0  0  0  0  0  # atno 4302 bound_to 2510
   -3.0154  -17.3642   14.8652 LP  0  0  0  0  0  0  0  0  0  0  0  0  # atno 4306 bound_to 3712
   -3.5429  -16.6568   13.4913 LP  0  0  0  0  0  0  0  0  0  0  0  0  # atno 4307 bound_to 3712
    2.2074  -19.6682    8.2225 LP  0  0  0  0  0  0  0  0  0  0  0  0  # atno 4314 bound_to 3832
    3.0554  -20.9272    8.8247 LP  0  0  0  0  0  0  0  0  0  0  0  0  # atno 4315 bound_to 3832
   -4.4163  -22.2077   11.6500 LP  0  0  0  0  0  0  0  0  0  0  0  0  # atno 4318 bound_to 3762
   -4.2092  -23.3319   10.4838 LP  0  0  0  0  0  0  0  0  0  0  0  0  # atno 4319 bound_to 3762
   -4.2538   -4.7993    7.7235 LP  0  0  0  0  0  0  0  0  0  0  0  0  # atno 4320 bound_to 2467
   -3.9679   -5.3165    9.2458 LP  0  0  0  0  0  0  0  0  0  0  0  0  # atno 4321 bound_to 2467

> <Gold.Score>
     Score     S(PLP)   S(hbond)     S(cho)   S(metal)  DE(clash)   DE(tors)     intcor
     31.21     -25.21       2.00       0.00       0.00       0.00       0.00       0.00

> <Gold.PLP.Fitness>
31.2082

> <Gold.PLP.PLP>
-25.2082

> <Gold.PLP.part.hbond>
-1.0000

> <Gold.PLP.part.metal>
0.0000

> <Gold.PLP.part.buried>
-1.4634

> <Gold.PLP.part.nonpolar>
-22.7972

> <Gold.PLP.part.repulsive>
0.0697

> <Gold.PLP.ligand.clash>
0.0000

> <Gold.PLP.ligand.torsion>
0.0000

> <Gold.PLP.Chemscore.Hbond>
2.0000

> <Gold.PLP.Chemscore.CHOScore>
0.0000

> <Gold.PLP.Chemscore.Metal>
0.0000

> <Gold.Chemscore.Hbonds>
donor molecule, donor type, donor heavy atom, donor atom, acceptor molecule, acceptor atom, score
      L1  H     1    23       P1  1227  2.00

> <Gold.PLP.Chemscore.Internal.Correction>
0.0000

