#       Name:                EN300-124870_i001
#       Creating user name   fsindt
#       Creation time:       Tue Feb 28 11:59:03 2023


#       File generated by GOLD software.
#

@<TRIPOS>MOLECULE
EN300-124870_i001|amine_4|mol2|5079|dock15
    25    26     1
SMALL
USER_CHARGES


@<TRIPOS>ATOM
      1 N1           1.0175 -11.1572   6.9237 N.4            1 <1>                1.0000
      2 C2           0.8565 -12.1792   7.9665 C.3            1 <1>                0.0000
      3 C3          -0.3935 -13.0598   7.9058 C.3            1 <1>                0.0000
      4 C4          -0.2689 -11.9808   8.9811 C.3            1 <1>                0.0000
      5 C5          -1.1440 -10.7318   8.8404 C.3            1 <1>                0.0000
      6 C6          -2.4572 -10.9590   9.5955 C.3            1 <1>                0.0000
      7 C7          -2.1529 -11.3011  11.0548 C.3            1 <1>                0.0000
      8 C8          -1.3672 -12.6112  11.1274 C.3            1 <1>                0.0000
      9 C9          -0.0190 -12.4373  10.4215 C.3            1 <1>                0.0000
     10 H10          1.7792 -12.6385   8.3211 H              1 <1>                0.0000
     11 H11         -1.0964 -12.8808   7.0922 H              1 <1>                0.0000
     12 H12         -0.2932 -14.0985   8.2210 H              1 <1>                0.0000
     13 H13         -0.6239  -9.8721   9.2629 H              1 <1>                0.0000
     14 H14         -1.3553 -10.5510   7.7865 H              1 <1>                0.0000
     15 H15         -3.0622 -10.0533   9.5531 H              1 <1>                0.0000
     16 H16         -3.0032 -11.7826   9.1354 H              1 <1>                0.0000
     17 H17         -1.5629 -10.4997  11.4993 H              1 <1>                0.0000
     18 H18         -3.0882 -11.4085  11.6043 H              1 <1>                0.0000
     19 H19         -1.1994 -12.8769  12.1711 H              1 <1>                0.0000
     20 H20         -1.9345 -13.4028  10.6376 H              1 <1>                0.0000
     21 H21          0.5154 -13.3873  10.4159 H              1 <1>                0.0000
     22 H22          0.5730 -11.6865  10.9450 H              1 <1>                0.0000
     23 H23          0.1573 -11.0686   6.4038 H              1 <1>                0.0000
     24 H24          1.2442 -10.2722   7.3522 H              1 <1>                0.0000
     25 H25          1.7616 -11.4287   6.2987 H              1 <1>                0.0000
@<TRIPOS>BOND
    1    1    2 1     
    2    1   23 1     
    3    1   24 1     
    4    1   25 1     
    5    2    3 1     
    6    2    4 1     
    7    2   10 1     
    8    3    4 1     
    9    3   11 1     
   10    3   12 1     
   11    4    5 1     
   12    4    9 1     
   13    5    6 1     
   14    5   13 1     
   15    5   14 1     
   16    6    7 1     
   17    6   15 1     
   18    6   16 1     
   19    7    8 1     
   20    7   17 1     
   21    7   18 1     
   22    8    9 1     
   23    8   19 1     
   24    8   20 1     
   25    9   21 1     
   26    9   22 1     
@<TRIPOS>SUBSTRUCTURE
      1 ****           1
@<TRIPOS>SET
DONOR_HYDROGENS      STATIC     ATOMS    <user>   **** ""
3 23 24 25
ATOM$RED        STATIC     ATOMS    COLORGROUP SYSTEM
3 23 24 25
@<TRIPOS>COMMENT
> <Gold.Version>
2022.2.0

> <Gold.Id.Protein>
3pbl|protein|mol2

> <Gold.Protein.RotatedTorsions>
[ 1303 1298 1297 1294 ] final   34.93 input  179.99 | X-H torsion
[ 2461 2456 2455 2452 ] final   35.04 input   30.03 | X-H torsion
[ 2515 2510 2509 2506 ] final  155.02 input  -89.99 | X-H torsion
[ 3721 3712 3711 3710 ] final   -9.87 input -179.91 | X-H torsion
[ 3841 3832 3831 3830 ] final  130.93 input -179.91 | X-H torsion
[ 3767 3762 3761 3758 ] final  -18.56 input  -89.99 | X-H torsion
[ 2472 2467 2466 2463 ] final -165.23 input  -89.97 | X-H torsion

> <Gold.Protein.ActiveResidues>
 VAL82   VAL86   LEU89   PHE106  VAL107  ASP110  VAL111  MET112  CYS114  THR115 
 CYS181  SER182  ILE183  PHE188  VAL189  ILE190  SER192  SER193  SER196  TRP342 
 PHE345  PHE346  HIS349  VAL350  TYR365  THR369  GLY372  TYR373 

> <Gold.Protein.RotatedAtoms>
    3.6868  -10.2103    4.3874 H   0  0  0  0  0  0  0  0  0  0  0  0  # atno 1303 bound_to 1298
    1.5904   -7.9244    7.1587 H   0  0  0  0  0  0  0  0  0  0  0  0  # atno 2461 bound_to 2456
   -5.1863   -5.4330    9.1950 H   0  0  0  0  0  0  0  0  0  0  0  0  # atno 2472 bound_to 2467
    2.1698   -8.7181    6.0443 H   0  0  0  0  0  0  0  0  0  0  0  0  # atno 2515 bound_to 2510
   -2.5138  -17.8896   14.3728 H   0  0  0  0  0  0  0  0  0  0  0  0  # atno 3721 bound_to 3712
   -5.4555  -22.4876   10.2973 H   0  0  0  0  0  0  0  0  0  0  0  0  # atno 3767 bound_to 3762
    3.1213  -20.6189    8.8195 H   0  0  0  0  0  0  0  0  0  0  0  0  # atno 3841 bound_to 3832
    3.7646   -8.6724    3.8440 LP  0  0  0  0  0  0  0  0  0  0  0  0  # atno 4297 bound_to 1298
    4.9108   -9.2384    4.8602 LP  0  0  0  0  0  0  0  0  0  0  0  0  # atno 4298 bound_to 1298
    0.3393   -8.8526    7.6492 LP  0  0  0  0  0  0  0  0  0  0  0  0  # atno 4299 bound_to 2456
    1.8081   -9.0309    8.3401 LP  0  0  0  0  0  0  0  0  0  0  0  0  # atno 4300 bound_to 2456
    2.2980   -7.4124    5.0725 LP  0  0  0  0  0  0  0  0  0  0  0  0  # atno 4301 bound_to 2510
    2.8290   -8.8685    4.5581 LP  0  0  0  0  0  0  0  0  0  0  0  0  # atno 4302 bound_to 2510
   -3.4921  -16.6179   14.3126 LP  0  0  0  0  0  0  0  0  0  0  0  0  # atno 4306 bound_to 3712
   -3.1333  -17.4546   12.9569 LP  0  0  0  0  0  0  0  0  0  0  0  0  # atno 4307 bound_to 3712
    1.6828  -20.7530    9.5186 LP  0  0  0  0  0  0  0  0  0  0  0  0  # atno 4314 bound_to 3832
    1.9409  -19.6344    8.3572 LP  0  0  0  0  0  0  0  0  0  0  0  0  # atno 4315 bound_to 3832
   -4.5903  -22.0899   11.6241 LP  0  0  0  0  0  0  0  0  0  0  0  0  # atno 4318 bound_to 3762
   -4.0819  -23.2975   10.6495 LP  0  0  0  0  0  0  0  0  0  0  0  0  # atno 4319 bound_to 3762
   -4.8792   -4.8588    7.6976 LP  0  0  0  0  0  0  0  0  0  0  0  0  # atno 4320 bound_to 2467
   -3.6515   -5.1018    8.7466 LP  0  0  0  0  0  0  0  0  0  0  0  0  # atno 4321 bound_to 2467

> <Gold.Score>
     Score     S(PLP)   S(hbond)     S(cho)   S(metal)  DE(clash)   DE(tors)     intcor
     34.26     -31.26       1.00       0.00       0.00       0.00       0.00       0.00

> <Gold.PLP.Fitness>
34.2589

> <Gold.PLP.PLP>
-31.2589

> <Gold.PLP.part.hbond>
-1.0000

> <Gold.PLP.part.metal>
0.0000

> <Gold.PLP.part.buried>
-2.6062

> <Gold.PLP.part.nonpolar>
-28.4618

> <Gold.PLP.part.repulsive>
0.0000

> <Gold.PLP.ligand.clash>
0.0000

> <Gold.PLP.ligand.torsion>
0.0000

> <Gold.PLP.Chemscore.Hbond>
1.0000

> <Gold.PLP.Chemscore.CHOScore>
0.0000

> <Gold.PLP.Chemscore.Metal>
0.0000

> <Gold.Chemscore.Hbonds>
donor molecule, donor type, donor heavy atom, donor atom, acceptor molecule, acceptor atom, score
      L1  H     1    24       P1  2456  1.00

> <Gold.PLP.Chemscore.Internal.Correction>
0.0000

