#       Name:                EN300-124870_i001
#       Creating user name   fsindt
#       Creation time:       Tue Feb 28 11:59:03 2023


#       File generated by GOLD software.
#

@<TRIPOS>MOLECULE
EN300-124870_i001|amine_4|mol2|5079|dock17
    25    26     1
SMALL
USER_CHARGES


@<TRIPOS>ATOM
      1 N1           1.2104 -10.5003   9.8681 N.4            1 <1>                1.0000
      2 C2           0.2384 -11.6015   9.8914 C.3            1 <1>                0.0000
      3 C3          -0.6048 -11.8265   8.6345 C.3            1 <1>                0.0000
      4 C4          -1.2447 -11.2337   9.8895 C.3            1 <1>                0.0000
      5 C5          -1.6108  -9.7467   9.8668 C.3            1 <1>                0.0000
      6 C6          -3.0560  -9.5993   9.3814 C.3            1 <1>                0.0000
      7 C7          -3.9819 -10.4180  10.2824 C.3            1 <1>                0.0000
      8 C8          -3.6281 -11.9022  10.1778 C.3            1 <1>                0.0000
      9 C9          -2.2012 -12.1237  10.6887 C.3            1 <1>                0.0000
     10 H10          0.5385 -12.4814  10.4605 H              1 <1>                0.0000
     11 H11         -0.4385 -11.1575   7.7902 H              1 <1>                0.0000
     12 H12         -0.8600 -12.8545   8.3769 H              1 <1>                0.0000
     13 H13         -1.5188  -9.3328  10.8709 H              1 <1>                0.0000
     14 H14         -0.9420  -9.2165   9.1889 H              1 <1>                0.0000
     15 H15         -3.3469  -8.5495   9.4195 H              1 <1>                0.0000
     16 H16         -3.1337  -9.9610   8.3561 H              1 <1>                0.0000
     17 H17         -3.8654 -10.0897  11.3152 H              1 <1>                0.0000
     18 H18         -5.0156 -10.2690   9.9704 H              1 <1>                0.0000
     19 H19         -4.3246 -12.4851  10.7804 H              1 <1>                0.0000
     20 H20         -3.6948 -12.2191   9.1369 H              1 <1>                0.0000
     21 H21         -1.9240 -13.1694  10.5554 H              1 <1>                0.0000
     22 H22         -2.1469 -11.8616  11.7453 H              1 <1>                0.0000
     23 H23          0.9999  -9.8500  10.6104 H              1 <1>                0.0000
     24 H24          2.1404 -10.8696   9.9982 H              1 <1>                0.0000
     25 H25          1.1586 -10.0248   8.9797 H              1 <1>                0.0000
@<TRIPOS>BOND
    1    1    2 1     
    2    1   23 1     
    3    1   24 1     
    4    1   25 1     
    5    2    3 1     
    6    2    4 1     
    7    2   10 1     
    8    3    4 1     
    9    3   11 1     
   10    3   12 1     
   11    4    5 1     
   12    4    9 1     
   13    5    6 1     
   14    5   13 1     
   15    5   14 1     
   16    6    7 1     
   17    6   15 1     
   18    6   16 1     
   19    7    8 1     
   20    7   17 1     
   21    7   18 1     
   22    8    9 1     
   23    8   19 1     
   24    8   20 1     
   25    9   21 1     
   26    9   22 1     
@<TRIPOS>SUBSTRUCTURE
      1 ****           1
@<TRIPOS>SET
DONOR_HYDROGENS      STATIC     ATOMS    <user>   **** ""
3 23 24 25
ATOM$RED        STATIC     ATOMS    COLORGROUP SYSTEM
3 23 24 25
@<TRIPOS>COMMENT
> <Gold.Version>
2022.2.0

> <Gold.Id.Protein>
3pbl|protein|mol2

> <Gold.Protein.RotatedTorsions>
[ 1303 1298 1297 1294 ] final -160.36 input  179.99 | X-H torsion
[ 2461 2456 2455 2452 ] final   46.06 input   30.03 | X-H torsion
[ 2515 2510 2509 2506 ] final   -0.75 input  -89.99 | X-H torsion
[ 3721 3712 3711 3710 ] final   93.56 input -179.91 | X-H torsion
[ 3841 3832 3831 3830 ] final  -54.21 input -179.91 | X-H torsion
[ 3767 3762 3761 3758 ] final  -22.27 input  -89.99 | X-H torsion
[ 2472 2467 2466 2463 ] final  123.17 input  -89.97 | X-H torsion

> <Gold.Protein.ActiveResidues>
 VAL82   VAL86   LEU89   PHE106  VAL107  ASP110  VAL111  MET112  CYS114  THR115 
 CYS181  SER182  ILE183  PHE188  VAL189  ILE190  SER192  SER193  SER196  TRP342 
 PHE345  PHE346  HIS349  VAL350  TYR365  THR369  GLY372  TYR373 

> <Gold.Protein.RotatedAtoms>
    4.7134   -8.6529    4.4964 H   0  0  0  0  0  0  0  0  0  0  0  0  # atno 1303 bound_to 1298
    1.7463   -7.9566    7.2453 H   0  0  0  0  0  0  0  0  0  0  0  0  # atno 2461 bound_to 2456
   -5.4386   -5.0937    8.1763 H   0  0  0  0  0  0  0  0  0  0  0  0  # atno 2472 bound_to 2467
    2.5460   -7.6370    4.6000 H   0  0  0  0  0  0  0  0  0  0  0  0  # atno 2515 bound_to 2510
   -2.8100  -17.5726   13.0840 H   0  0  0  0  0  0  0  0  0  0  0  0  # atno 3721 bound_to 3712
   -5.4729  -22.4427   10.3349 H   0  0  0  0  0  0  0  0  0  0  0  0  # atno 3767 bound_to 3762
    1.5886  -19.8662    9.0946 H   0  0  0  0  0  0  0  0  0  0  0  0  # atno 3841 bound_to 3832
    4.2780  -10.1984    4.7930 LP  0  0  0  0  0  0  0  0  0  0  0  0  # atno 4297 bound_to 1298
    3.3705   -9.2703    3.8022 LP  0  0  0  0  0  0  0  0  0  0  0  0  # atno 4298 bound_to 1298
    0.3320   -8.7259    7.5200 LP  0  0  0  0  0  0  0  0  0  0  0  0  # atno 4299 bound_to 2456
    1.6597   -9.1255    8.3827 LP  0  0  0  0  0  0  0  0  0  0  0  0  # atno 4300 bound_to 2456
    2.7108   -9.2082    5.0120 LP  0  0  0  0  0  0  0  0  0  0  0  0  # atno 4301 bound_to 2510
    2.0399   -8.1543    6.0636 LP  0  0  0  0  0  0  0  0  0  0  0  0  # atno 4302 bound_to 2510
   -2.7420  -17.8733   14.6597 LP  0  0  0  0  0  0  0  0  0  0  0  0  # atno 4306 bound_to 3712
   -3.5415  -16.5651   14.0977 LP  0  0  0  0  0  0  0  0  0  0  0  0  # atno 4307 bound_to 3712
    2.8912  -20.1011    8.1867 LP  0  0  0  0  0  0  0  0  0  0  0  0  # atno 4314 bound_to 3832
    2.5031  -21.1558    9.3714 LP  0  0  0  0  0  0  0  0  0  0  0  0  # atno 4315 bound_to 3832
   -4.5392  -22.1213   11.6356 LP  0  0  0  0  0  0  0  0  0  0  0  0  # atno 4318 bound_to 3762
   -4.1155  -23.3110   10.6004 LP  0  0  0  0  0  0  0  0  0  0  0  0  # atno 4319 bound_to 3762
   -3.8284   -4.8639    8.0326 LP  0  0  0  0  0  0  0  0  0  0  0  0  # atno 4320 bound_to 2467
   -4.4501   -5.4360    9.4301 LP  0  0  0  0  0  0  0  0  0  0  0  0  # atno 4321 bound_to 2467

> <Gold.Score>
     Score     S(PLP)   S(hbond)     S(cho)   S(metal)  DE(clash)   DE(tors)     intcor
     36.92     -33.92       1.00       0.00       0.00       0.00       0.00       0.00

> <Gold.PLP.Fitness>
36.9198

> <Gold.PLP.PLP>
-33.9198

> <Gold.PLP.part.hbond>
-1.0000

> <Gold.PLP.part.metal>
0.0000

> <Gold.PLP.part.buried>
-1.9662

> <Gold.PLP.part.nonpolar>
-31.9307

> <Gold.PLP.part.repulsive>
0.0000

> <Gold.PLP.ligand.clash>
0.0000

> <Gold.PLP.ligand.torsion>
0.0000

> <Gold.PLP.Chemscore.Hbond>
1.0000

> <Gold.PLP.Chemscore.CHOScore>
0.0000

> <Gold.PLP.Chemscore.Metal>
0.0000

> <Gold.Chemscore.Hbonds>
donor molecule, donor type, donor heavy atom, donor atom, acceptor molecule, acceptor atom, score
      L1  H     1    25       P1  2456  1.00

> <Gold.PLP.Chemscore.Internal.Correction>
0.0000

