#       Name:                EN300-124870_i001
#       Creating user name   fsindt
#       Creation time:       Tue Feb 28 11:59:00 2023


#       File generated by GOLD software.
#

@<TRIPOS>MOLECULE
EN300-124870_i001|amine_4|mol2|5079|dock8
    25    26     1
SMALL
USER_CHARGES


@<TRIPOS>ATOM
      1 N1          -5.4178  -9.8959   8.7058 N.4            1 <1>                1.0000
      2 C2          -4.8999 -10.8292   9.7152 C.3            1 <1>                0.0000
      3 C3          -4.5271 -10.2547  11.0836 C.3            1 <1>                0.0000
      4 C4          -3.4308 -10.6938  10.1134 C.3            1 <1>                0.0000
      5 C5          -2.6047  -9.5997   9.4309 C.3            1 <1>                0.0000
      6 C6          -1.3660  -9.3091  10.2837 C.3            1 <1>                0.0000
      7 C7          -0.5737 -10.6013  10.4879 C.3            1 <1>                0.0000
      8 C8          -1.4198 -11.6112  11.2646 C.3            1 <1>                0.0000
      9 C9          -2.6604 -11.9758  10.4434 C.3            1 <1>                0.0000
     10 H10         -5.3244 -11.8328   9.6892 H              1 <1>                0.0000
     11 H11         -4.6661  -9.1842  11.2350 H              1 <1>                0.0000
     12 H12         -4.7059 -10.8806  11.9579 H              1 <1>                0.0000
     13 H13         -2.2959  -9.9386   8.4420 H              1 <1>                0.0000
     14 H14         -3.2044  -8.6942   9.3375 H              1 <1>                0.0000
     15 H15         -0.7397  -8.5751   9.7766 H              1 <1>                0.0000
     16 H16         -1.6754  -8.9157  11.2520 H              1 <1>                0.0000
     17 H17         -0.3087 -11.0209   9.5175 H              1 <1>                0.0000
     18 H18          0.3358 -10.3839  11.0480 H              1 <1>                0.0000
     19 H19         -0.8317 -12.5094  11.4529 H              1 <1>                0.0000
     20 H20         -1.7282 -11.1730  12.2139 H              1 <1>                0.0000
     21 H21         -3.2969 -12.6456  11.0215 H              1 <1>                0.0000
     22 H22         -2.3552 -12.4664   9.5192 H              1 <1>                0.0000
     23 H23         -6.3810 -10.1189   8.5044 H              1 <1>                0.0000
     24 H24         -5.3576  -8.9522   9.0580 H              1 <1>                0.0000
     25 H25         -4.8706  -9.9755   7.8619 H              1 <1>                0.0000
@<TRIPOS>BOND
    1    1    2 1     
    2    1   23 1     
    3    1   24 1     
    4    1   25 1     
    5    2    3 1     
    6    2    4 1     
    7    2   10 1     
    8    3    4 1     
    9    3   11 1     
   10    3   12 1     
   11    4    5 1     
   12    4    9 1     
   13    5    6 1     
   14    5   13 1     
   15    5   14 1     
   16    6    7 1     
   17    6   15 1     
   18    6   16 1     
   19    7    8 1     
   20    7   17 1     
   21    7   18 1     
   22    8    9 1     
   23    8   19 1     
   24    8   20 1     
   25    9   21 1     
   26    9   22 1     
@<TRIPOS>SUBSTRUCTURE
      1 ****           1
@<TRIPOS>SET
DONOR_HYDROGENS      STATIC     ATOMS    <user>   **** ""
3 23 24 25
ATOM$RED        STATIC     ATOMS    COLORGROUP SYSTEM
3 23 24 25
@<TRIPOS>COMMENT
> <Gold.Version>
2022.2.0

> <Gold.Id.Protein>
3pbl|protein|mol2

> <Gold.Protein.RotatedTorsions>
[ 1303 1298 1297 1294 ] final   69.06 input  179.99 | X-H torsion
[ 2461 2456 2455 2452 ] final -149.41 input   30.03 | X-H torsion
[ 2515 2510 2509 2506 ] final   88.86 input  -89.99 | X-H torsion
[ 3721 3712 3711 3710 ] final -175.91 input -179.91 | X-H torsion
[ 3841 3832 3831 3830 ] final   35.48 input -179.91 | X-H torsion
[ 3767 3762 3761 3758 ] final  -83.59 input  -89.99 | X-H torsion
[ 2472 2467 2466 2463 ] final  147.16 input  -89.97 | X-H torsion

> <Gold.Protein.ActiveResidues>
 VAL82   VAL86   LEU89   PHE106  VAL107  ASP110  VAL111  MET112  CYS114  THR115 
 CYS181  SER182  ILE183  PHE188  VAL189  ILE190  SER192  SER193  SER196  TRP342 
 PHE345  PHE346  HIS349  VAL350  TYR365  THR369  GLY372  TYR373 

> <Gold.Protein.RotatedAtoms>
    4.1328  -10.2495    4.7125 H   0  0  0  0  0  0  0  0  0  0  0  0  # atno 1303 bound_to 1298
    0.9682   -9.2869    8.3027 H   0  0  0  0  0  0  0  0  0  0  0  0  # atno 2461 bound_to 2456
   -5.5097   -5.2312    8.5364 H   0  0  0  0  0  0  0  0  0  0  0  0  # atno 2472 bound_to 2467
    2.0459   -7.7200    5.8277 H   0  0  0  0  0  0  0  0  0  0  0  0  # atno 2515 bound_to 2510
   -3.3293  -16.5855   13.6039 H   0  0  0  0  0  0  0  0  0  0  0  0  # atno 3721 bound_to 3712
   -5.2902  -21.9347   11.1307 H   0  0  0  0  0  0  0  0  0  0  0  0  # atno 3767 bound_to 3762
    2.1375  -20.8253    9.6136 H   0  0  0  0  0  0  0  0  0  0  0  0  # atno 3841 bound_to 3832
    3.4295   -9.1082    3.7802 LP  0  0  0  0  0  0  0  0  0  0  0  0  # atno 4297 bound_to 1298
    4.7998   -8.7634    4.5987 LP  0  0  0  0  0  0  0  0  0  0  0  0  # atno 4298 bound_to 1298
    2.1401   -8.3041    7.7298 LP  0  0  0  0  0  0  0  0  0  0  0  0  # atno 4299 bound_to 2456
    0.6294   -8.2174    7.1158 LP  0  0  0  0  0  0  0  0  0  0  0  0  # atno 4300 bound_to 2456
    2.7262   -8.0403    4.3785 LP  0  0  0  0  0  0  0  0  0  0  0  0  # atno 4301 bound_to 2510
    2.5247   -9.2391    5.4688 LP  0  0  0  0  0  0  0  0  0  0  0  0  # atno 4302 bound_to 2510
   -2.7567  -18.0568   13.3119 LP  0  0  0  0  0  0  0  0  0  0  0  0  # atno 4306 bound_to 3712
   -2.9272  -17.5212   14.8451 LP  0  0  0  0  0  0  0  0  0  0  0  0  # atno 4307 bound_to 3712
    1.6656  -19.6922    8.5794 LP  0  0  0  0  0  0  0  0  0  0  0  0  # atno 4314 bound_to 3832
    3.0946  -20.4567    8.3791 LP  0  0  0  0  0  0  0  0  0  0  0  0  # atno 4315 bound_to 3832
   -3.9400  -22.8228   11.3651 LP  0  0  0  0  0  0  0  0  0  0  0  0  # atno 4318 bound_to 3762
   -4.8974  -23.1174   10.0754 LP  0  0  0  0  0  0  0  0  0  0  0  0  # atno 4319 bound_to 3762
   -4.1248   -4.8065    7.7828 LP  0  0  0  0  0  0  0  0  0  0  0  0  # atno 4320 bound_to 2467
   -4.0825   -5.3558    9.3200 LP  0  0  0  0  0  0  0  0  0  0  0  0  # atno 4321 bound_to 2467

> <Gold.Score>
     Score     S(PLP)   S(hbond)     S(cho)   S(metal)  DE(clash)   DE(tors)     intcor
     36.41     -33.41       1.00       0.00       0.00       0.00       0.00       0.00

> <Gold.PLP.Fitness>
36.4135

> <Gold.PLP.PLP>
-33.4135

> <Gold.PLP.part.hbond>
-1.0000

> <Gold.PLP.part.metal>
0.0000

> <Gold.PLP.part.buried>
4.4203

> <Gold.PLP.part.nonpolar>
-37.8279

> <Gold.PLP.part.repulsive>
0.0675

> <Gold.PLP.ligand.clash>
0.0000

> <Gold.PLP.ligand.torsion>
0.0000

> <Gold.PLP.Chemscore.Hbond>
1.0000

> <Gold.PLP.Chemscore.CHOScore>
0.0000

> <Gold.PLP.Chemscore.Metal>
0.0000

> <Gold.Chemscore.Hbonds>
donor molecule, donor type, donor heavy atom, donor atom, acceptor molecule, acceptor atom, score
      L1  H     1    23       P1  3417  1.00

> <Gold.PLP.Chemscore.Internal.Correction>
0.0000

