#       Name:                EN300-124870_i001
#       Creating user name   fsindt
#       Creation time:       Tue Feb 28 11:59:04 2023


#       File generated by GOLD software.
#

@<TRIPOS>MOLECULE
EN300-124870_i001|amine_4|mol2|5079|dock20
    25    26     1
SMALL
USER_CHARGES


@<TRIPOS>ATOM
      1 N1          -4.9060 -11.6664   9.5745 N.4            1 <1>                1.0000
      2 C2          -4.1023 -10.7190  10.3583 C.3            1 <1>                0.0000
      3 C3          -3.3900  -9.5983   9.5978 C.3            1 <1>                0.0000
      4 C4          -2.5856 -10.7616  10.1771 C.3            1 <1>                0.0000
      5 C5          -2.0131 -11.7890   9.1961 C.3            1 <1>                0.0000
      6 C6          -0.5992 -11.3574   8.7953 C.3            1 <1>                0.0000
      7 C7           0.2608 -11.2018  10.0505 C.3            1 <1>                0.0000
      8 C8          -0.3081 -10.0910  10.9345 C.3            1 <1>                0.0000
      9 C9          -1.7127 -10.4818  11.4041 C.3            1 <1>                0.0000
     10 H10         -4.4846 -10.4885  11.3528 H              1 <1>                0.0000
     11 H11         -3.5176  -9.5641   8.5158 H              1 <1>                0.0000
     12 H12         -3.3032  -8.6307  10.0922 H              1 <1>                0.0000
     13 H13         -1.9744 -12.7679   9.6740 H              1 <1>                0.0000
     14 H14         -2.6450 -11.8385   8.3093 H              1 <1>                0.0000
     15 H15         -0.1592 -12.1132   8.1447 H              1 <1>                0.0000
     16 H16         -0.6460 -10.4054   8.2665 H              1 <1>                0.0000
     17 H17          0.2651 -12.1400  10.6052 H              1 <1>                0.0000
     18 H18          1.2808 -10.9483   9.7615 H              1 <1>                0.0000
     19 H19          0.3383  -9.9490  11.8006 H              1 <1>                0.0000
     20 H20         -0.3604  -9.1635  10.3641 H              1 <1>                0.0000
     21 H21         -2.1453  -9.6644  11.9811 H              1 <1>                0.0000
     22 H22         -1.6549 -11.3772  12.0229 H              1 <1>                0.0000
     23 H23         -5.3959 -12.2892  10.1992 H              1 <1>                0.0000
     24 H24         -5.5739 -11.1580   9.0144 H              1 <1>                0.0000
     25 H25         -4.3004 -12.2027   8.9715 H              1 <1>                0.0000
@<TRIPOS>BOND
    1    1    2 1     
    2    1   23 1     
    3    1   24 1     
    4    1   25 1     
    5    2    3 1     
    6    2    4 1     
    7    2   10 1     
    8    3    4 1     
    9    3   11 1     
   10    3   12 1     
   11    4    5 1     
   12    4    9 1     
   13    5    6 1     
   14    5   13 1     
   15    5   14 1     
   16    6    7 1     
   17    6   15 1     
   18    6   16 1     
   19    7    8 1     
   20    7   17 1     
   21    7   18 1     
   22    8    9 1     
   23    8   19 1     
   24    8   20 1     
   25    9   21 1     
   26    9   22 1     
@<TRIPOS>SUBSTRUCTURE
      1 ****           1
@<TRIPOS>SET
DONOR_HYDROGENS      STATIC     ATOMS    <user>   **** ""
3 23 24 25
ATOM$RED        STATIC     ATOMS    COLORGROUP SYSTEM
3 23 24 25
@<TRIPOS>COMMENT
> <Gold.Version>
2022.2.0

> <Gold.Id.Protein>
3pbl|protein|mol2

> <Gold.Protein.RotatedTorsions>
[ 1303 1298 1297 1294 ] final -178.02 input  179.99 | X-H torsion
[ 2461 2456 2455 2452 ] final  -77.30 input   30.03 | X-H torsion
[ 2515 2510 2509 2506 ] final -111.39 input  -89.99 | X-H torsion
[ 3721 3712 3711 3710 ] final   49.30 input -179.91 | X-H torsion
[ 3841 3832 3831 3830 ] final -115.54 input -179.91 | X-H torsion
[ 3767 3762 3761 3758 ] final  -90.36 input  -89.99 | X-H torsion
[ 2472 2467 2466 2463 ] final -110.39 input  -89.97 | X-H torsion

> <Gold.Protein.ActiveResidues>
 VAL82   VAL86   LEU89   PHE106  VAL107  ASP110  VAL111  MET112  CYS114  THR115 
 CYS181  SER182  ILE183  PHE188  VAL189  ILE190  SER192  SER193  SER196  TRP342 
 PHE345  PHE346  HIS349  VAL350  TYR365  THR369  GLY372  TYR373 

> <Gold.Protein.RotatedAtoms>
    4.8443   -8.8493    4.6636 H   0  0  0  0  0  0  0  0  0  0  0  0  # atno 1303 bound_to 1298
    0.3304   -8.7653    7.5589 H   0  0  0  0  0  0  0  0  0  0  0  0  # atno 2461 bound_to 2456
   -4.3464   -5.4199    9.4150 H   0  0  0  0  0  0  0  0  0  0  0  0  # atno 2472 bound_to 2467
    2.7546   -9.1476    4.8776 H   0  0  0  0  0  0  0  0  0  0  0  0  # atno 2515 bound_to 2510
   -2.5408  -17.9744   13.5220 H   0  0  0  0  0  0  0  0  0  0  0  0  # atno 3721 bound_to 3712
   -5.2211  -21.9194   11.2165 H   0  0  0  0  0  0  0  0  0  0  0  0  # atno 3767 bound_to 3762
    2.1637  -19.5848    8.4866 H   0  0  0  0  0  0  0  0  0  0  0  0  # atno 3841 bound_to 3832
    4.0354  -10.2677    4.6512 LP  0  0  0  0  0  0  0  0  0  0  0  0  # atno 4297 bound_to 1298
    3.4822   -9.0045    3.7766 LP  0  0  0  0  0  0  0  0  0  0  0  0  # atno 4298 bound_to 1298
    1.7068   -9.0985    8.3722 LP  0  0  0  0  0  0  0  0  0  0  0  0  # atno 4299 bound_to 2456
    1.7003   -7.9444    7.2170 LP  0  0  0  0  0  0  0  0  0  0  0  0  # atno 4300 bound_to 2456
    2.0606   -8.3041    6.0911 LP  0  0  0  0  0  0  0  0  0  0  0  0  # atno 4301 bound_to 2510
    2.4814   -7.5470    4.7067 LP  0  0  0  0  0  0  0  0  0  0  0  0  # atno 4302 bound_to 2510
   -3.0729  -17.2646   14.8603 LP  0  0  0  0  0  0  0  0  0  0  0  0  # atno 4306 bound_to 3712
   -3.5214  -16.7099   13.3914 LP  0  0  0  0  0  0  0  0  0  0  0  0  # atno 4307 bound_to 3712
    3.0859  -20.8707    8.7553 LP  0  0  0  0  0  0  0  0  0  0  0  0  # atno 4314 bound_to 3832
    1.6440  -20.7111    9.5051 LP  0  0  0  0  0  0  0  0  0  0  0  0  # atno 4315 bound_to 3832
   -3.9186  -22.9018   11.2897 LP  0  0  0  0  0  0  0  0  0  0  0  0  # atno 4318 bound_to 3762
   -4.9879  -23.0536   10.0649 LP  0  0  0  0  0  0  0  0  0  0  0  0  # atno 4319 bound_to 3762
   -5.4735   -5.1303    8.2695 LP  0  0  0  0  0  0  0  0  0  0  0  0  # atno 4320 bound_to 2467
   -3.8970   -4.8434    7.9548 LP  0  0  0  0  0  0  0  0  0  0  0  0  # atno 4321 bound_to 2467

> <Gold.Score>
     Score     S(PLP)   S(hbond)     S(cho)   S(metal)  DE(clash)   DE(tors)     intcor
     37.20     -37.20       0.00       0.00       0.00       0.00       0.00       0.00

> <Gold.PLP.Fitness>
37.1989

> <Gold.PLP.PLP>
-37.1989

> <Gold.PLP.part.hbond>
0.0000

> <Gold.PLP.part.metal>
0.0000

> <Gold.PLP.part.buried>
-1.0681

> <Gold.PLP.part.nonpolar>
-36.8968

> <Gold.PLP.part.repulsive>
0.1331

> <Gold.PLP.ligand.clash>
0.0000

> <Gold.PLP.ligand.torsion>
0.0000

> <Gold.PLP.Chemscore.Hbond>
0.0000

> <Gold.PLP.Chemscore.CHOScore>
0.0000

> <Gold.PLP.Chemscore.Metal>
0.0000

> <Gold.PLP.Chemscore.Internal.Correction>
0.0000

