#       Name:                EN300-124870_i001
#       Creating user name   fsindt
#       Creation time:       Tue Feb 28 11:59:02 2023


#       File generated by GOLD software.
#

@<TRIPOS>MOLECULE
EN300-124870_i001|amine_4|mol2|5079|dock14
    25    26     1
SMALL
USER_CHARGES


@<TRIPOS>ATOM
      1 N1          -3.6736  -9.3003  10.8065 N.4            1 <1>                1.0000
      2 C2          -3.1721  -9.9636   9.5955 C.3            1 <1>                0.0000
      3 C3          -3.5460 -11.4329   9.3883 C.3            1 <1>                0.0000
      4 C4          -2.1165 -11.0540   9.7739 C.3            1 <1>                0.0000
      5 C5          -1.6555 -11.3740  11.1989 C.3            1 <1>                0.0000
      6 C6          -1.0087 -12.7624  11.2107 C.3            1 <1>                0.0000
      7 C7           0.1393 -12.7980  10.2006 C.3            1 <1>                0.0000
      8 C8          -0.4050 -12.5742   8.7890 C.3            1 <1>                0.0000
      9 C9          -1.0325 -11.1798   8.6993 C.3            1 <1>                0.0000
     10 H10         -3.0999  -9.3327   8.7095 H              1 <1>                0.0000
     11 H11         -4.1640 -11.9075  10.1505 H              1 <1>                0.0000
     12 H12         -3.7193 -11.7689   8.3658 H              1 <1>                0.0000
     13 H13         -0.9283 -10.6296  11.5232 H              1 <1>                0.0000
     14 H14         -2.5138 -11.3653  11.8708 H              1 <1>                0.0000
     15 H15         -0.6223 -12.9749  12.2075 H              1 <1>                0.0000
     16 H16         -1.7527 -13.5122  10.9418 H              1 <1>                0.0000
     17 H17          0.8573 -12.0139  10.4406 H              1 <1>                0.0000
     18 H18          0.6341 -13.7680  10.2486 H              1 <1>                0.0000
     19 H19          0.4094 -12.6533   8.0688 H              1 <1>                0.0000
     20 H20         -1.1607 -13.3278   8.5671 H              1 <1>                0.0000
     21 H21         -1.4777 -11.0426   7.7139 H              1 <1>                0.0000
     22 H22         -0.2656 -10.4230   8.8640 H              1 <1>                0.0000
     23 H23         -3.2947  -9.7579  11.6221 H              1 <1>                0.0000
     24 H24         -3.3897  -8.3321  10.8017 H              1 <1>                0.0000
     25 H25         -4.6809  -9.3554  10.8275 H              1 <1>                0.0000
@<TRIPOS>BOND
    1    1    2 1     
    2    1   23 1     
    3    1   24 1     
    4    1   25 1     
    5    2    3 1     
    6    2    4 1     
    7    2   10 1     
    8    3    4 1     
    9    3   11 1     
   10    3   12 1     
   11    4    5 1     
   12    4    9 1     
   13    5    6 1     
   14    5   13 1     
   15    5   14 1     
   16    6    7 1     
   17    6   15 1     
   18    6   16 1     
   19    7    8 1     
   20    7   17 1     
   21    7   18 1     
   22    8    9 1     
   23    8   19 1     
   24    8   20 1     
   25    9   21 1     
   26    9   22 1     
@<TRIPOS>SUBSTRUCTURE
      1 ****           1
@<TRIPOS>SET
DONOR_HYDROGENS      STATIC     ATOMS    <user>   **** ""
3 23 24 25
ATOM$RED        STATIC     ATOMS    COLORGROUP SYSTEM
3 23 24 25
@<TRIPOS>COMMENT
> <Gold.Version>
2022.2.0

> <Gold.Id.Protein>
3pbl|protein|mol2

> <Gold.Protein.RotatedTorsions>
[ 1303 1298 1297 1294 ] final  -44.42 input  179.99 | X-H torsion
[ 2461 2456 2455 2452 ] final  -96.14 input   30.03 | X-H torsion
[ 2515 2510 2509 2506 ] final   70.47 input  -89.99 | X-H torsion
[ 3721 3712 3711 3710 ] final -154.71 input -179.91 | X-H torsion
[ 3841 3832 3831 3830 ] final  146.04 input -179.91 | X-H torsion
[ 3767 3762 3761 3758 ] final   73.41 input  -89.99 | X-H torsion
[ 2472 2467 2466 2463 ] final   30.31 input  -89.97 | X-H torsion

> <Gold.Protein.ActiveResidues>
 VAL82   VAL86   LEU89   PHE106  VAL107  ASP110  VAL111  MET112  CYS114  THR115 
 CYS181  SER182  ILE183  PHE188  VAL189  ILE190  SER192  SER193  SER196  TRP342 
 PHE345  PHE346  HIS349  VAL350  TYR365  THR369  GLY372  TYR373 

> <Gold.Protein.RotatedAtoms>
    3.3902   -9.2072    3.7920 H   0  0  0  0  0  0  0  0  0  0  0  0  # atno 1303 bound_to 1298
    0.3806   -8.9717    7.7827 H   0  0  0  0  0  0  0  0  0  0  0  0  # atno 2461 bound_to 2456
   -4.1706   -4.8037    7.7588 H   0  0  0  0  0  0  0  0  0  0  0  0  # atno 2472 bound_to 2467
    2.1024   -7.5331    5.5984 H   0  0  0  0  0  0  0  0  0  0  0  0  # atno 2515 bound_to 2510
   -3.3333  -16.5299   13.9177 H   0  0  0  0  0  0  0  0  0  0  0  0  # atno 3721 bound_to 3712
   -4.3897  -23.3263   10.3136 H   0  0  0  0  0  0  0  0  0  0  0  0  # atno 3767 bound_to 3762
    3.1302  -20.4522    8.6648 H   0  0  0  0  0  0  0  0  0  0  0  0  # atno 3841 bound_to 3832
    4.7494   -8.6926    4.5362 LP  0  0  0  0  0  0  0  0  0  0  0  0  # atno 4297 bound_to 1298
    4.2229  -10.2215    4.7636 LP  0  0  0  0  0  0  0  0  0  0  0  0  # atno 4298 bound_to 1298
    1.9375   -8.9190    8.2734 LP  0  0  0  0  0  0  0  0  0  0  0  0  # atno 4299 bound_to 2456
    1.4195   -7.9175    7.0921 LP  0  0  0  0  0  0  0  0  0  0  0  0  # atno 4300 bound_to 2456
    2.7985   -8.3320    4.3563 LP  0  0  0  0  0  0  0  0  0  0  0  0  # atno 4301 bound_to 2510
    2.3961   -9.1345    5.7203 LP  0  0  0  0  0  0  0  0  0  0  0  0  # atno 4302 bound_to 2510
   -2.9050  -17.8333   13.0836 LP  0  0  0  0  0  0  0  0  0  0  0  0  # atno 4306 bound_to 3712
   -2.7743  -17.8089   14.7112 LP  0  0  0  0  0  0  0  0  0  0  0  0  # atno 4307 bound_to 3712
    1.8724  -20.9161    9.5472 LP  0  0  0  0  0  0  0  0  0  0  0  0  # atno 4314 bound_to 3832
    1.7411  -19.6638    8.5073 LP  0  0  0  0  0  0  0  0  0  0  0  0  # atno 4315 bound_to 3832
   -5.5061  -22.1766   10.6277 LP  0  0  0  0  0  0  0  0  0  0  0  0  # atno 4318 bound_to 3762
   -4.2315  -22.3723   11.6295 LP  0  0  0  0  0  0  0  0  0  0  0  0  # atno 4319 bound_to 3762
   -4.0392   -5.3420    9.2948 LP  0  0  0  0  0  0  0  0  0  0  0  0  # atno 4320 bound_to 2467
   -5.5070   -5.2478    8.5854 LP  0  0  0  0  0  0  0  0  0  0  0  0  # atno 4321 bound_to 2467

> <Gold.Score>
     Score     S(PLP)   S(hbond)     S(cho)   S(metal)  DE(clash)   DE(tors)     intcor
     34.50     -31.50       1.00       0.00       0.00       0.00       0.00       0.00

> <Gold.PLP.Fitness>
34.5043

> <Gold.PLP.PLP>
-31.5043

> <Gold.PLP.part.hbond>
-1.0000

> <Gold.PLP.part.metal>
0.0000

> <Gold.PLP.part.buried>
0.9208

> <Gold.PLP.part.nonpolar>
-32.4325

> <Gold.PLP.part.repulsive>
0.0678

> <Gold.PLP.ligand.clash>
0.0000

> <Gold.PLP.ligand.torsion>
0.0000

> <Gold.PLP.Chemscore.Hbond>
1.0000

> <Gold.PLP.Chemscore.CHOScore>
0.0000

> <Gold.PLP.Chemscore.Metal>
0.0000

> <Gold.Chemscore.Hbonds>
donor molecule, donor type, donor heavy atom, donor atom, acceptor molecule, acceptor atom, score
      L1  H     1    24       P1  2398  1.00

> <Gold.PLP.Chemscore.Internal.Correction>
0.0000

