#       Name:                EN300-124870_i001
#       Creating user name   fsindt
#       Creation time:       Tue Feb 28 11:59:00 2023


#       File generated by GOLD software.
#

@<TRIPOS>MOLECULE
EN300-124870_i001|amine_4|mol2|5079|dock5
    25    26     1
SMALL
USER_CHARGES


@<TRIPOS>ATOM
      1 N1           1.3878 -15.2052  10.9410 N.4            1 <1>                1.0000
      2 C2           0.3197 -15.8331  11.7303 C.3            1 <1>                0.0000
      3 C3           0.0809 -15.3015  13.1452 C.3            1 <1>                0.0000
      4 C4           0.7347 -16.6678  12.9411 C.3            1 <1>                0.0000
      5 C5           2.2311 -16.7925  13.2424 C.3            1 <1>                0.0000
      6 C6           2.4089 -17.2205  14.7023 C.3            1 <1>                0.0000
      7 C7           1.6503 -18.5260  14.9463 C.3            1 <1>                0.0000
      8 C8           0.1529 -18.3042  14.7284 C.3            1 <1>                0.0000
      9 C9          -0.0975 -17.9109  13.2693 C.3            1 <1>                0.0000
     10 H10         -0.5503 -16.1652  11.1638 H              1 <1>                0.0000
     11 H11          0.7163 -14.4859  13.4905 H              1 <1>                0.0000
     12 H12         -0.9463 -15.2844  13.5098 H              1 <1>                0.0000
     13 H13          2.6745 -17.5411  12.5858 H              1 <1>                0.0000
     14 H14          2.7172 -15.8301  13.0822 H              1 <1>                0.0000
     15 H15          3.4682 -17.3714  14.9103 H              1 <1>                0.0000
     16 H16          2.0166 -16.4440  15.3590 H              1 <1>                0.0000
     17 H17          2.0083 -19.2878  14.2538 H              1 <1>                0.0000
     18 H18          1.8222 -18.8589  15.9699 H              1 <1>                0.0000
     19 H19         -0.3873 -19.2234  14.9549 H              1 <1>                0.0000
     20 H20         -0.1956 -17.5067  15.3847 H              1 <1>                0.0000
     21 H21         -1.1554 -17.6900  13.1272 H              1 <1>                0.0000
     22 H22          0.1972 -18.7309  12.6144 H              1 <1>                0.0000
     23 H23          2.0676 -15.9035  10.6795 H              1 <1>                0.0000
     24 H24          0.9930 -14.7921  10.1094 H              1 <1>                0.0000
     25 H25          1.8364 -14.4888  11.4920 H              1 <1>                0.0000
@<TRIPOS>BOND
    1    1    2 1     
    2    1   23 1     
    3    1   24 1     
    4    1   25 1     
    5    2    3 1     
    6    2    4 1     
    7    2   10 1     
    8    3    4 1     
    9    3   11 1     
   10    3   12 1     
   11    4    5 1     
   12    4    9 1     
   13    5    6 1     
   14    5   13 1     
   15    5   14 1     
   16    6    7 1     
   17    6   15 1     
   18    6   16 1     
   19    7    8 1     
   20    7   17 1     
   21    7   18 1     
   22    8    9 1     
   23    8   19 1     
   24    8   20 1     
   25    9   21 1     
   26    9   22 1     
@<TRIPOS>SUBSTRUCTURE
      1 ****           1
@<TRIPOS>SET
DONOR_HYDROGENS      STATIC     ATOMS    <user>   **** ""
3 23 24 25
ATOM$RED        STATIC     ATOMS    COLORGROUP SYSTEM
3 23 24 25
@<TRIPOS>COMMENT
> <Gold.Version>
2022.2.0

> <Gold.Id.Protein>
3pbl|protein|mol2

> <Gold.Protein.RotatedTorsions>
[ 1303 1298 1297 1294 ] final -165.38 input  179.99 | X-H torsion
[ 2461 2456 2455 2452 ] final   39.32 input   30.03 | X-H torsion
[ 2515 2510 2509 2506 ] final -114.32 input  -89.99 | X-H torsion
[ 3721 3712 3711 3710 ] final    0.06 input -179.91 | X-H torsion
[ 3841 3832 3831 3830 ] final -173.54 input -179.91 | X-H torsion
[ 3767 3762 3761 3758 ] final   29.43 input  -89.99 | X-H torsion
[ 2472 2467 2466 2463 ] final -137.88 input  -89.97 | X-H torsion

> <Gold.Protein.ActiveResidues>
 VAL82   VAL86   LEU89   PHE106  VAL107  ASP110  VAL111  MET112  CYS114  THR115 
 CYS181  SER182  ILE183  PHE188  VAL189  ILE190  SER192  SER193  SER196  TRP342 
 PHE345  PHE346  HIS349  VAL350  TYR365  THR369  GLY372  TYR373 

> <Gold.Protein.RotatedAtoms>
    4.7569   -8.7024    4.5458 H   0  0  0  0  0  0  0  0  0  0  0  0  # atno 1303 bound_to 1298
    1.6529   -7.9340    7.1901 H   0  0  0  0  0  0  0  0  0  0  0  0  # atno 2461 bound_to 2456
   -4.7920   -5.4638    9.4008 H   0  0  0  0  0  0  0  0  0  0  0  0  # atno 2472 bound_to 2467
    2.7418   -9.1689    4.9189 H   0  0  0  0  0  0  0  0  0  0  0  0  # atno 2515 bound_to 2510
   -2.4868  -17.9570   14.2415 H   0  0  0  0  0  0  0  0  0  0  0  0  # atno 3721 bound_to 3712
   -4.9904  -23.0511   10.0642 H   0  0  0  0  0  0  0  0  0  0  0  0  # atno 3767 bound_to 3762
    2.8983  -19.9780    8.3838 H   0  0  0  0  0  0  0  0  0  0  0  0  # atno 3841 bound_to 3832
    4.2097  -10.2264    4.7563 LP  0  0  0  0  0  0  0  0  0  0  0  0  # atno 4297 bound_to 1298
    3.3954   -9.1927    3.7893 LP  0  0  0  0  0  0  0  0  0  0  0  0  # atno 4298 bound_to 1298
    0.3324   -8.8042    7.5984 LP  0  0  0  0  0  0  0  0  0  0  0  0  # atno 4299 bound_to 2456
    1.7526   -9.0698    8.3595 LP  0  0  0  0  0  0  0  0  0  0  0  0  # atno 4300 bound_to 2456
    2.0530   -8.2569    6.0849 LP  0  0  0  0  0  0  0  0  0  0  0  0  # atno 4301 bound_to 2510
    2.5018   -7.5729    4.6716 LP  0  0  0  0  0  0  0  0  0  0  0  0  # atno 4302 bound_to 2510
   -3.4415  -16.6841   14.4560 LP  0  0  0  0  0  0  0  0  0  0  0  0  # atno 4306 bound_to 3712
   -3.2151  -17.3105   12.9650 LP  0  0  0  0  0  0  0  0  0  0  0  0  # atno 4307 bound_to 3712
    2.4695  -21.1530    9.3896 LP  0  0  0  0  0  0  0  0  0  0  0  0  # atno 4314 bound_to 3832
    1.4119  -19.9747    8.9895 LP  0  0  0  0  0  0  0  0  0  0  0  0  # atno 4315 bound_to 3832
   -5.2190  -21.9198   11.2195 LP  0  0  0  0  0  0  0  0  0  0  0  0  # atno 4318 bound_to 3762
   -3.9181  -22.9044   11.2871 LP  0  0  0  0  0  0  0  0  0  0  0  0  # atno 4319 bound_to 3762
   -5.2520   -4.9769    7.9116 LP  0  0  0  0  0  0  0  0  0  0  0  0  # atno 4320 bound_to 2467
   -3.6729   -4.9529    8.3270 LP  0  0  0  0  0  0  0  0  0  0  0  0  # atno 4321 bound_to 2467

> <Gold.Score>
     Score     S(PLP)   S(hbond)     S(cho)   S(metal)  DE(clash)   DE(tors)     intcor
     34.18     -28.18       2.00       0.00       0.00       0.00       0.00       0.00

> <Gold.PLP.Fitness>
34.1758

> <Gold.PLP.PLP>
-28.1758

> <Gold.PLP.part.hbond>
-1.0000

> <Gold.PLP.part.metal>
0.0000

> <Gold.PLP.part.buried>
-2.8377

> <Gold.PLP.part.nonpolar>
-24.6206

> <Gold.PLP.part.repulsive>
0.0000

> <Gold.PLP.ligand.clash>
0.0000

> <Gold.PLP.ligand.torsion>
0.0000

> <Gold.PLP.Chemscore.Hbond>
2.0000

> <Gold.PLP.Chemscore.CHOScore>
0.0000

> <Gold.PLP.Chemscore.Metal>
0.0000

> <Gold.Chemscore.Hbonds>
donor molecule, donor type, donor heavy atom, donor atom, acceptor molecule, acceptor atom, score
      L1  H     1    23       P1  1227  2.00

> <Gold.PLP.Chemscore.Internal.Correction>
0.0000

