#       Name:                EN300-124870_i001
#       Creating user name   fsindt
#       Creation time:       Tue Feb 28 11:59:01 2023


#       File generated by GOLD software.
#

@<TRIPOS>MOLECULE
EN300-124870_i001|amine_4|mol2|5079|dock11
    25    26     1
SMALL
USER_CHARGES


@<TRIPOS>ATOM
      1 N1          -2.8687 -10.2853  10.4539 N.4            1 <1>                1.0000
      2 C2          -1.8951 -11.1737  11.1027 C.3            1 <1>                0.0000
      3 C3          -0.4294 -10.7342  11.1050 C.3            1 <1>                0.0000
      4 C4          -0.8821 -11.8847  10.2065 C.3            1 <1>                0.0000
      5 C5          -0.9563 -11.6235   8.6992 C.3            1 <1>                0.0000
      6 C6           0.3840 -12.0047   8.0634 C.3            1 <1>                0.0000
      7 C7           0.7066 -13.4635   8.3911 C.3            1 <1>                0.0000
      8 C8           0.8688 -13.6319   9.9025 C.3            1 <1>                0.0000
      9 C9          -0.4559 -13.3029  10.5975 C.3            1 <1>                0.0000
     10 H10         -2.2604 -11.7130  11.9767 H              1 <1>                0.0000
     11 H11         -0.1874  -9.7859  10.6250 H              1 <1>                0.0000
     12 H12          0.1699 -10.9848  11.9803 H              1 <1>                0.0000
     13 H13         -1.7522 -12.2270   8.2629 H              1 <1>                0.0000
     14 H14         -1.1576 -10.5671   8.5213 H              1 <1>                0.0000
     15 H15          0.3219 -11.8803   6.9823 H              1 <1>                0.0000
     16 H16          1.1699 -11.3611   8.4588 H              1 <1>                0.0000
     17 H17         -0.1046 -14.1014   8.0405 H              1 <1>                0.0000
     18 H18          1.6328 -13.7503   7.8930 H              1 <1>                0.0000
     19 H19          1.1504 -14.6610  10.1252 H              1 <1>                0.0000
     20 H20          1.6454 -12.9567  10.2621 H              1 <1>                0.0000
     21 H21         -0.3252 -13.3599  11.6781 H              1 <1>                0.0000
     22 H22         -1.2199 -14.0136  10.2824 H              1 <1>                0.0000
     23 H23         -3.1640 -10.6918   9.5788 H              1 <1>                0.0000
     24 H24         -3.6692 -10.1663  11.0565 H              1 <1>                0.0000
     25 H25         -2.4417  -9.3877  10.2806 H              1 <1>                0.0000
@<TRIPOS>BOND
    1    1    2 1     
    2    1   23 1     
    3    1   24 1     
    4    1   25 1     
    5    2    3 1     
    6    2    4 1     
    7    2   10 1     
    8    3    4 1     
    9    3   11 1     
   10    3   12 1     
   11    4    5 1     
   12    4    9 1     
   13    5    6 1     
   14    5   13 1     
   15    5   14 1     
   16    6    7 1     
   17    6   15 1     
   18    6   16 1     
   19    7    8 1     
   20    7   17 1     
   21    7   18 1     
   22    8    9 1     
   23    8   19 1     
   24    8   20 1     
   25    9   21 1     
   26    9   22 1     
@<TRIPOS>SUBSTRUCTURE
      1 ****           1
@<TRIPOS>SET
DONOR_HYDROGENS      STATIC     ATOMS    <user>   **** ""
3 23 24 25
ATOM$RED        STATIC     ATOMS    COLORGROUP SYSTEM
3 23 24 25
@<TRIPOS>COMMENT
> <Gold.Version>
2022.2.0

> <Gold.Id.Protein>
3pbl|protein|mol2

> <Gold.Protein.RotatedTorsions>
[ 1303 1298 1297 1294 ] final   90.00 input  179.99 | X-H torsion
[ 2461 2456 2455 2452 ] final  -19.28 input   30.03 | X-H torsion
[ 2515 2510 2509 2506 ] final   16.74 input  -89.99 | X-H torsion
[ 3721 3712 3711 3710 ] final  149.32 input -179.91 | X-H torsion
[ 3841 3832 3831 3830 ] final -110.62 input -179.91 | X-H torsion
[ 3767 3762 3761 3758 ] final  -85.59 input  -89.99 | X-H torsion
[ 2472 2467 2466 2463 ] final -140.54 input  -89.97 | X-H torsion

> <Gold.Protein.ActiveResidues>
 VAL82   VAL86   LEU89   PHE106  VAL107  ASP110  VAL111  MET112  CYS114  THR115 
 CYS181  SER182  ILE183  PHE188  VAL189  ILE190  SER192  SER193  SER196  TRP342 
 PHE345  PHE346  HIS349  VAL350  TYR365  THR369  GLY372  TYR373 

> <Gold.Protein.RotatedAtoms>
    4.4147  -10.1205    4.8583 H   0  0  0  0  0  0  0  0  0  0  0  0  # atno 1303 bound_to 1298
    0.7578   -8.1234    7.0669 H   0  0  0  0  0  0  0  0  0  0  0  0  # atno 2461 bound_to 2456
   -4.8340   -5.4641    9.3888 H   0  0  0  0  0  0  0  0  0  0  0  0  # atno 2472 bound_to 2467
    2.4244   -7.4863    4.8113 H   0  0  0  0  0  0  0  0  0  0  0  0  # atno 2515 bound_to 2510
   -3.2019  -16.8719   13.1921 H   0  0  0  0  0  0  0  0  0  0  0  0  # atno 3721 bound_to 3712
   -5.2706  -21.9291   11.1565 H   0  0  0  0  0  0  0  0  0  0  0  0  # atno 3767 bound_to 3762
    2.0989  -19.5801    8.5225 H   0  0  0  0  0  0  0  0  0  0  0  0  # atno 3841 bound_to 3832
    3.3376   -9.4324    3.8422 LP  0  0  0  0  0  0  0  0  0  0  0  0  # atno 4297 bound_to 1298
    4.6098   -8.5682    4.3909 LP  0  0  0  0  0  0  0  0  0  0  0  0  # atno 4298 bound_to 1298
    0.8193   -9.2673    8.2310 LP  0  0  0  0  0  0  0  0  0  0  0  0  # atno 4299 bound_to 2456
    2.1605   -8.4173    7.8501 LP  0  0  0  0  0  0  0  0  0  0  0  0  # atno 4300 bound_to 2456
    2.7857   -9.0780    4.7678 LP  0  0  0  0  0  0  0  0  0  0  0  0  # atno 4301 bound_to 2510
    2.0867   -8.4352    6.0963 LP  0  0  0  0  0  0  0  0  0  0  0  0  # atno 4302 bound_to 2510
   -2.6170  -18.2181   13.8427 LP  0  0  0  0  0  0  0  0  0  0  0  0  # atno 4306 bound_to 3712
   -3.2140  -17.0293   14.7898 LP  0  0  0  0  0  0  0  0  0  0  0  0  # atno 4307 bound_to 3712
    3.1058  -20.8179    8.6956 LP  0  0  0  0  0  0  0  0  0  0  0  0  # atno 4314 bound_to 3832
    1.6990  -20.7694    9.5233 LP  0  0  0  0  0  0  0  0  0  0  0  0  # atno 4315 bound_to 3832
   -3.9325  -22.8465   11.3435 LP  0  0  0  0  0  0  0  0  0  0  0  0  # atno 4318 bound_to 3762
   -4.9245  -23.0992   10.0712 LP  0  0  0  0  0  0  0  0  0  0  0  0  # atno 4319 bound_to 3762
   -5.2214   -4.9634    7.8835 LP  0  0  0  0  0  0  0  0  0  0  0  0  # atno 4320 bound_to 2467
   -3.6616   -4.9661    8.3670 LP  0  0  0  0  0  0  0  0  0  0  0  0  # atno 4321 bound_to 2467

> <Gold.Score>
     Score     S(PLP)   S(hbond)     S(cho)   S(metal)  DE(clash)   DE(tors)     intcor
     31.85     -31.85       0.00       0.00       0.00       0.00       0.00       0.00

> <Gold.PLP.Fitness>
31.8519

> <Gold.PLP.PLP>
-31.8519

> <Gold.PLP.part.hbond>
0.0000

> <Gold.PLP.part.metal>
0.0000

> <Gold.PLP.part.buried>
-3.0417

> <Gold.PLP.part.nonpolar>
-29.5256

> <Gold.PLP.part.repulsive>
0.0349

> <Gold.PLP.ligand.clash>
0.0000

> <Gold.PLP.ligand.torsion>
0.0000

> <Gold.PLP.Chemscore.Hbond>
0.0000

> <Gold.PLP.Chemscore.CHOScore>
0.0000

> <Gold.PLP.Chemscore.Metal>
0.0000

> <Gold.PLP.Chemscore.Internal.Correction>
0.0000

