#       Name:                plp ligand
#       Creating user name   fsindt
#       Creation time:       Tue Feb 28 11:58:58 2023


#       File generated by GOLD software.
#

@<TRIPOS>MOLECULE
plp ligand
    25    26     1
SMALL
USER_CHARGES


@<TRIPOS>ATOM
      1 N1           2.8147   0.5285   0.4108 DONOR          1 <1>                1.0000
      2 C2           1.9066  -0.5967   0.1515 NONPOLAR       1 <1>                0.0000
      3 C3           1.2152  -0.6469  -1.2127 NONPOLAR       1 <1>                0.0000
      4 C4           0.4144  -0.2876   0.0385 NONPOLAR       1 <1>                0.0000
      5 C5          -0.0269   1.1693   0.2067 NONPOLAR       1 <1>                0.0000
      6 C6          -1.4182   1.3403  -0.4107 NONPOLAR       1 <1>                0.0000
      7 C7          -2.3891   0.3541   0.2405 NONPOLAR       1 <1>                0.0000
      8 C8          -1.9466  -1.0800  -0.0536 NONPOLAR       1 <1>                0.0000
      9 C9          -0.5722  -1.3289   0.5752 NONPOLAR       1 <1>                0.0000
     10 H10          2.1915  -1.5453   0.6067                1 <1>                0.0000
     11 H11          1.4340   0.1550  -1.9178                1 <1>                0.0000
     12 H12          1.0447  -1.6286  -1.6548                1 <1>                0.0000
     13 H13         -0.0647   1.4192   1.2670                1 <1>                0.0000
     14 H14          0.6806   1.8258  -0.2998                1 <1>                0.0000
     15 H15         -1.7677   2.3590  -0.2426                1 <1>                0.0000
     16 H16         -1.3668   1.1459  -1.4820                1 <1>                0.0000
     17 H17         -2.4010   0.5158   1.3183                1 <1>                0.0000
     18 H18         -3.3903   0.5137  -0.1598                1 <1>                0.0000
     19 H19         -2.6707  -1.7773   0.3677                1 <1>                0.0000
     20 H20         -1.8850  -1.2274  -1.1319                1 <1>                0.0000
     21 H21         -0.2264  -2.3287   0.3128                1 <1>                0.0000
     22 H22         -0.6448  -1.2385   1.6590                1 <1>                0.0000
     23 H23          2.7375   1.2021  -0.3365                1 <1>                0.0000
     24 H24          2.5665   0.9664   1.2853                1 <1>                0.0000
     25 H25          3.7638   0.1899   0.4616                1 <1>                0.0000
@<TRIPOS>BOND
    1    1    2 1     
    2    1   23 1     
    3    1   24 1     
    4    1   25 1     
    5    2    3 1     
    6    2    4 1     
    7    2   10 1     
    8    3    4 1     
    9    3   11 1     
   10    3   12 1     
   11    4    5 1     
   12    4    9 1     
   13    5    6 1     
   14    5   13 1     
   15    5   14 1     
   16    6    7 1     
   17    6   15 1     
   18    6   16 1     
   19    7    8 1     
   20    7   17 1     
   21    7   18 1     
   22    8    9 1     
   23    8   19 1     
   24    8   20 1     
   25    9   21 1     
   26    9   22 1     
@<TRIPOS>SUBSTRUCTURE
      1 ****           1
@<TRIPOS>SET
DONOR_HYDROGENS      STATIC     ATOMS    <user>   **** ""
3 23 24 25
ATOM$RED        STATIC     ATOMS    COLORGROUP SYSTEM
3 23 24 25
