#       Name:                EN300-1897507_i001
#       Creating user name   fsindt
#       Creation time:       Wed Mar  1 14:00:32 2023


#       File generated by GOLD software.
#

@<TRIPOS>MOLECULE
EN300-1897507_i001|acide_1|mol2|8761|dock4
    24    25     1
SMALL
USER_CHARGES


@<TRIPOS>ATOM
      1 C1           0.5890 -15.0512   7.2713 C.3            1 <1>                0.0000
      2 C2           0.2044 -14.5891   8.6532 C.ar           1 <1>                0.0000
      3 C3           0.2537 -15.4716   9.7156 C.ar           1 <1>                0.0000
      4 C4          -0.0994 -15.0472  10.9840 C.ar           1 <1>                0.0000
      5 Br5         -0.0315 -16.2540  12.4382 Br             1 <1>                0.0000
      6 C6          -0.5016 -13.7398  11.1884 C.ar           1 <1>                0.0000
      7 C7          -0.5506 -12.8577  10.1251 C.ar           1 <1>                0.0000
      8 C8          -0.1923 -13.2806   8.8589 C.ar           1 <1>                0.0000
      9 C9          -0.9888 -11.4331  10.3476 C.3            1 <1>                0.0000
     10 C10         -2.2255 -10.9476   9.5889 C.3            1 <1>                0.0000
     11 C11         -2.3048 -11.2073  11.0946 C.3            1 <1>                0.0000
     12 C12          0.1212 -10.4399  10.5769 C.2            1 <1>                0.0000
     13 O13          1.1357 -10.4932   9.9027 O.co2          1 <1>                0.0000
     14 O14          0.0048  -9.5832  11.4365 O.co2          1 <1>               -1.0000
     15 H15         -0.2929 -15.4343   6.7577 H              1 <1>                0.0000
     16 H16          1.0012 -14.2132   6.7094 H              1 <1>                0.0000
     17 H17          1.3367 -15.8407   7.3473 H              1 <1>                0.0000
     18 H18          0.5675 -16.4926   9.5554 H              1 <1>                0.0000
     19 H19         -0.7777 -13.4081  12.1784 H              1 <1>                0.0000
     20 H20         -0.2304 -12.5912   8.0285 H              1 <1>                0.0000
     21 H21         -2.2364  -9.9098   9.2559 H              1 <1>                0.0000
     22 H22         -2.7223 -11.6586   8.9288 H              1 <1>                0.0000
     23 H23         -2.8537 -12.0891  11.4251 H              1 <1>                0.0000
     24 H24         -2.3679 -10.3402  11.7522 H              1 <1>                0.0000
@<TRIPOS>BOND
    1    1    2 1     
    2    1   15 1     
    3    1   16 1     
    4    1   17 1     
    5    2    3 ar    
    6    2    8 ar    
    7    3    4 ar    
    8    3   18 1     
    9    4    5 1     
   10    4    6 ar    
   11    6    7 ar    
   12    6   19 1     
   13    7    8 ar    
   14    7    9 1     
   15    8   20 1     
   16    9   10 1     
   17    9   11 1     
   18    9   12 1     
   19   10   11 1     
   20   10   21 1     
   21   10   22 1     
   22   11   23 1     
   23   11   24 1     
   24   12   13 ar    
   25   12   14 ar    
@<TRIPOS>SUBSTRUCTURE
      1 ****           1
@<TRIPOS>COMMENT
> <Gold.Version>
2022.2.0

> <Gold.Id.Protein>
3pbl|protein|mol2

> <Gold.Protein.RotatedTorsions>
[ 1303 1298 1297 1294 ] final  -28.61 input  179.99 | X-H torsion
[ 2461 2456 2455 2452 ] final -166.34 input   30.03 | X-H torsion
[ 2515 2510 2509 2506 ] final  112.04 input  -89.99 | X-H torsion
[ 3721 3712 3711 3710 ] final   66.31 input -179.91 | X-H torsion
[ 3841 3832 3831 3830 ] final  -48.04 input -179.91 | X-H torsion
[ 3767 3762 3761 3758 ] final  149.67 input  -89.99 | X-H torsion
[ 2472 2467 2466 2463 ] final  168.15 input  -89.97 | X-H torsion

> <Gold.Protein.ActiveResidues>
 VAL82   VAL86   LEU89   PHE106  VAL107  ASP110  VAL111  MET112  CYS114  THR115 
 CYS181  SER182  ILE183  PHE188  VAL189  ILE190  SER192  SER193  SER196  TRP342 
 PHE345  PHE346  HIS349  VAL350  TYR365  THR369  GLY372  TYR373 

> <Gold.Protein.RotatedAtoms>
    3.3350   -9.4540    3.8494 H   0  0  0  0  0  0  0  0  0  0  0  0  # atno 1303 bound_to 1298
    1.2343   -9.2719    8.3805 H   0  0  0  0  0  0  0  0  0  0  0  0  # atno 2461 bound_to 2456
   -5.4388   -5.3382    8.8549 H   0  0  0  0  0  0  0  0  0  0  0  0  # atno 2472 bound_to 2467
    2.0314   -8.0418    6.0268 H   0  0  0  0  0  0  0  0  0  0  0  0  # atno 2515 bound_to 2510
   -2.6262  -17.8581   13.3105 H   0  0  0  0  0  0  0  0  0  0  0  0  # atno 3721 bound_to 3712
   -3.9181  -22.9011   11.2897 H   0  0  0  0  0  0  0  0  0  0  0  0  # atno 3767 bound_to 3762
    1.5709  -19.9286    9.1615 H   0  0  0  0  0  0  0  0  0  0  0  0  # atno 3841 bound_to 3832
    4.5947   -8.5588    4.3768 LP  0  0  0  0  0  0  0  0  0  0  0  0  # atno 4297 bound_to 1298
    4.4328  -10.1085    4.8656 LP  0  0  0  0  0  0  0  0  0  0  0  0  # atno 4298 bound_to 1298
    2.0443   -8.1372    7.5297 LP  0  0  0  0  0  0  0  0  0  0  0  0  # atno 4299 bound_to 2456
    0.4591   -8.3993    7.2381 LP  0  0  0  0  0  0  0  0  0  0  0  0  # atno 4300 bound_to 2456
    2.5936   -7.7187    4.5284 LP  0  0  0  0  0  0  0  0  0  0  0  0  # atno 4301 bound_to 2510
    2.6719   -9.2388    5.1198 LP  0  0  0  0  0  0  0  0  0  0  0  0  # atno 4302 bound_to 2510
   -2.9331  -17.5105   14.8476 LP  0  0  0  0  0  0  0  0  0  0  0  0  # atno 4306 bound_to 3712
   -3.5625  -16.5983   13.6483 LP  0  0  0  0  0  0  0  0  0  0  0  0  # atno 4307 bound_to 3712
    2.8233  -20.0272    8.1626 LP  0  0  0  0  0  0  0  0  0  0  0  0  # atno 4314 bound_to 3832
    2.5914  -21.1575    9.3182 LP  0  0  0  0  0  0  0  0  0  0  0  0  # atno 4315 bound_to 3832
   -4.9874  -23.0539   10.0650 LP  0  0  0  0  0  0  0  0  0  0  0  0  # atno 4318 bound_to 3762
   -5.2216  -21.9201   11.2166 LP  0  0  0  0  0  0  0  0  0  0  0  0  # atno 4319 bound_to 3762
   -4.4497   -4.8021    7.6715 LP  0  0  0  0  0  0  0  0  0  0  0  0  # atno 4320 bound_to 2467
   -3.8286   -5.2532    9.1128 LP  0  0  0  0  0  0  0  0  0  0  0  0  # atno 4321 bound_to 2467

> <Gold.Score>
     Score     S(PLP)   S(hbond)     S(cho)   S(metal)  DE(clash)   DE(tors)     intcor
     46.37     -43.62       1.00       0.00       0.00       0.00       0.95       1.65

> <Gold.PLP.Fitness>
46.3734

> <Gold.PLP.PLP>
-43.6154

> <Gold.PLP.part.hbond>
-1.0000

> <Gold.PLP.part.metal>
0.0000

> <Gold.PLP.part.buried>
-3.0535

> <Gold.PLP.part.nonpolar>
-40.2239

> <Gold.PLP.part.repulsive>
0.0908

> <Gold.PLP.ligand.clash>
0.0000

> <Gold.PLP.ligand.torsion>
0.9463

> <Gold.PLP.Chemscore.Hbond>
1.0000

> <Gold.PLP.Chemscore.CHOScore>
0.0000

> <Gold.PLP.Chemscore.Metal>
0.0000

> <Gold.Chemscore.Hbonds>
donor molecule, donor type, donor heavy atom, donor atom, acceptor molecule, acceptor atom, score
      P1  H  2456  2461       L1    13  1.00

> <Gold.PLP.Chemscore.Internal.Correction>
1.6506

