#       Name:                EN300-1897507_i001
#       Creating user name   fsindt
#       Creation time:       Wed Mar  1 14:00:34 2023


#       File generated by GOLD software.
#

@<TRIPOS>MOLECULE
EN300-1897507_i001|acide_1|mol2|8761|dock12
    24    25     1
SMALL
USER_CHARGES


@<TRIPOS>ATOM
      1 C1          -4.2269 -11.1803   9.8896 C.3            1 <1>                0.0000
      2 C2          -2.7228 -11.0873   9.8898 C.ar           1 <1>                0.0000
      3 C3          -2.0826 -10.2476  10.7814 C.ar           1 <1>                0.0000
      4 C4          -0.7018 -10.1624  10.7815 C.ar           1 <1>                0.0000
      5 Br5          0.1748  -9.0140  12.0017 Br             1 <1>                0.0000
      6 C6           0.0374 -10.9175   9.8893 C.ar           1 <1>                0.0000
      7 C7          -0.6039 -11.7573   8.9977 C.ar           1 <1>                0.0000
      8 C8          -1.9832 -11.8464   9.0018 C.ar           1 <1>                0.0000
      9 C9           0.2014 -12.5803   8.0255 C.3            1 <1>                0.0000
     10 C10          0.7699 -13.9095   8.5265 C.3            1 <1>                0.0000
     11 C11         -0.4048 -13.9007   7.5461 C.3            1 <1>                0.0000
     12 C12          1.0299 -11.7963   7.0406 C.2            1 <1>                0.0000
     13 O13          1.5963 -12.3712   6.1268 O.co2          1 <1>                0.0000
     14 O14          1.1337 -10.5872   7.1575 O.co2          1 <1>               -1.0000
     15 H15         -4.6367 -10.4387   9.2037 H              1 <1>                0.0000
     16 H16         -4.5293 -12.1774   9.5694 H              1 <1>                0.0000
     17 H17         -4.6027 -10.9920  10.8952 H              1 <1>                0.0000
     18 H18         -2.6602  -9.6577  11.4777 H              1 <1>                0.0000
     19 H19          1.1153 -10.8510   9.8888 H              1 <1>                0.0000
     20 H20         -2.4838 -12.5027   8.3055 H              1 <1>                0.0000
     21 H21          1.7429 -14.2171   8.1434 H              1 <1>                0.0000
     22 H22          0.5613 -14.1887   9.5592 H              1 <1>                0.0000
     23 H23         -1.3861 -14.1742   7.9339 H              1 <1>                0.0000
     24 H24         -0.2045 -14.2025   6.5181 H              1 <1>                0.0000
@<TRIPOS>BOND
    1    1    2 1     
    2    1   15 1     
    3    1   16 1     
    4    1   17 1     
    5    2    3 ar    
    6    2    8 ar    
    7    3    4 ar    
    8    3   18 1     
    9    4    5 1     
   10    4    6 ar    
   11    6    7 ar    
   12    6   19 1     
   13    7    8 ar    
   14    7    9 1     
   15    8   20 1     
   16    9   10 1     
   17    9   11 1     
   18    9   12 1     
   19   10   11 1     
   20   10   21 1     
   21   10   22 1     
   22   11   23 1     
   23   11   24 1     
   24   12   13 ar    
   25   12   14 ar    
@<TRIPOS>SUBSTRUCTURE
      1 ****           1
@<TRIPOS>COMMENT
> <Gold.Version>
2022.2.0

> <Gold.Id.Protein>
3pbl|protein|mol2

> <Gold.Protein.RotatedTorsions>
[ 1303 1298 1297 1294 ] final  -90.44 input  179.99 | X-H torsion
[ 2461 2456 2455 2452 ] final -146.48 input   30.03 | X-H torsion
[ 2515 2510 2509 2506 ] final  173.51 input  -89.99 | X-H torsion
[ 3721 3712 3711 3710 ] final -131.36 input -179.91 | X-H torsion
[ 3841 3832 3831 3830 ] final  -84.03 input -179.91 | X-H torsion
[ 3767 3762 3761 3758 ] final  -85.05 input  -89.99 | X-H torsion
[ 2472 2467 2466 2463 ] final  -37.74 input  -89.97 | X-H torsion

> <Gold.Protein.ActiveResidues>
 VAL82   VAL86   LEU89   PHE106  VAL107  ASP110  VAL111  MET112  CYS114  THR115 
 CYS181  SER182  ILE183  PHE188  VAL189  ILE190  SER192  SER193  SER196  TRP342 
 PHE345  PHE346  HIS349  VAL350  TYR365  THR369  GLY372  TYR373 

> <Gold.Protein.RotatedAtoms>
    3.8321   -8.6230    3.8724 H   0  0  0  0  0  0  0  0  0  0  0  0  # atno 1303 bound_to 1298
    0.9239   -9.2835    8.2837 H   0  0  0  0  0  0  0  0  0  0  0  0  # atno 2461 bound_to 2456
   -3.6361   -5.0595    8.6319 H   0  0  0  0  0  0  0  0  0  0  0  0  # atno 2472 bound_to 2467
    2.2805   -8.9647    5.9079 H   0  0  0  0  0  0  0  0  0  0  0  0  # atno 2515 bound_to 2510
   -3.2706  -16.5864   14.2580 H   0  0  0  0  0  0  0  0  0  0  0  0  # atno 3721 bound_to 3712
   -5.2760  -21.9305   11.1496 H   0  0  0  0  0  0  0  0  0  0  0  0  # atno 3767 bound_to 3762
    1.7914  -19.6414    8.7678 H   0  0  0  0  0  0  0  0  0  0  0  0  # atno 3841 bound_to 3832
    4.9032   -9.3222    4.8874 LP  0  0  0  0  0  0  0  0  0  0  0  0  # atno 4297 bound_to 1298
    3.6270  -10.1764    4.3320 LP  0  0  0  0  0  0  0  0  0  0  0  0  # atno 4298 bound_to 1298
    2.1489   -8.3361    7.7649 LP  0  0  0  0  0  0  0  0  0  0  0  0  # atno 4299 bound_to 2456
    0.6648   -8.1888    7.0997 LP  0  0  0  0  0  0  0  0  0  0  0  0  # atno 4300 bound_to 2456
    2.1842   -7.4324    5.3525 LP  0  0  0  0  0  0  0  0  0  0  0  0  # atno 4301 bound_to 2510
    2.8320   -8.6017    4.4146 LP  0  0  0  0  0  0  0  0  0  0  0  0  # atno 4302 bound_to 2510
   -3.0961  -17.5186   12.9625 LP  0  0  0  0  0  0  0  0  0  0  0  0  # atno 4306 bound_to 3712
   -2.6555  -18.0584   14.4394 LP  0  0  0  0  0  0  0  0  0  0  0  0  # atno 4307 bound_to 3712
    3.1042  -20.4894    8.4024 LP  0  0  0  0  0  0  0  0  0  0  0  0  # atno 4314 bound_to 3832
    2.0558  -21.0272    9.5331 LP  0  0  0  0  0  0  0  0  0  0  0  0  # atno 4315 bound_to 3832
   -3.9345  -22.8401   11.3494 LP  0  0  0  0  0  0  0  0  0  0  0  0  # atno 4318 bound_to 3762
   -4.9172  -23.1041   10.0722 LP  0  0  0  0  0  0  0  0  0  0  0  0  # atno 4319 bound_to 3762
   -5.0887   -5.4480    9.2687 LP  0  0  0  0  0  0  0  0  0  0  0  0  # atno 4320 bound_to 2467
   -4.9920   -4.8860    7.7386 LP  0  0  0  0  0  0  0  0  0  0  0  0  # atno 4321 bound_to 2467

> <Gold.Score>
     Score     S(PLP)   S(hbond)     S(cho)   S(metal)  DE(clash)   DE(tors)     intcor
     51.06     -50.30       0.62       0.00       0.00       0.00       1.37       1.65

> <Gold.PLP.Fitness>
51.0640

> <Gold.PLP.PLP>
-50.2977

> <Gold.PLP.part.hbond>
-0.9416

> <Gold.PLP.part.metal>
0.0000

> <Gold.PLP.part.buried>
-3.7100

> <Gold.PLP.part.nonpolar>
-46.9293

> <Gold.PLP.part.repulsive>
0.1619

> <Gold.PLP.ligand.clash>
0.0000

> <Gold.PLP.ligand.torsion>
1.3714

> <Gold.PLP.Chemscore.Hbond>
0.6195

> <Gold.PLP.Chemscore.CHOScore>
0.0000

> <Gold.PLP.Chemscore.Metal>
0.0000

> <Gold.Chemscore.Hbonds>
donor molecule, donor type, donor heavy atom, donor atom, acceptor molecule, acceptor atom, score
      P1  H  2456  2461       L1    14  0.32
      P1  H  2510  2515       L1    14  0.30

> <Gold.PLP.Chemscore.Internal.Correction>
1.6506

