#       Name:                EN300-1897507_i001
#       Creating user name   fsindt
#       Creation time:       Wed Mar  1 14:00:34 2023


#       File generated by GOLD software.
#

@<TRIPOS>MOLECULE
EN300-1897507_i001|acide_1|mol2|8761|dock11
    24    25     1
SMALL
USER_CHARGES


@<TRIPOS>ATOM
      1 C1          -0.3970 -15.2059  12.7521 C.3            1 <1>                0.0000
      2 C2          -0.4037 -14.3429  11.5167 C.ar           1 <1>                0.0000
      3 C3           0.3617 -14.6974  10.4220 C.ar           1 <1>                0.0000
      4 C4           0.3553 -13.9051   9.2880 C.ar           1 <1>                0.0000
      5 Br5          1.4018 -14.3901   7.7895 Br             1 <1>                0.0000
      6 C6          -0.4169 -12.7584   9.2504 C.ar           1 <1>                0.0000
      7 C7          -1.1822 -12.4045  10.3459 C.ar           1 <1>                0.0000
      8 C8          -1.1800 -13.1994  11.4766 C.ar           1 <1>                0.0000
      9 C9          -2.0238 -11.1550  10.3050 C.3            1 <1>                0.0000
     10 C10         -3.4855 -11.3015   9.8773 C.3            1 <1>                0.0000
     11 C11         -3.1412 -11.0216  11.3416 C.3            1 <1>                0.0000
     12 C12         -1.3013  -9.8979   9.8944 C.2            1 <1>                0.0000
     13 O13         -1.4668  -9.4368   8.7779 O.co2          1 <1>                0.0000
     14 O14         -0.5514  -9.3419  10.6785 O.co2          1 <1>               -1.0000
     15 H15          0.3926 -14.8710  13.4249 H              1 <1>                0.0000
     16 H16         -1.3606 -15.1276  13.2554 H              1 <1>                0.0000
     17 H17         -0.2178 -16.2432  12.4696 H              1 <1>                0.0000
     18 H18          0.9649 -15.5928  10.4520 H              1 <1>                0.0000
     19 H19         -0.4219 -12.1393   8.3654 H              1 <1>                0.0000
     20 H20         -1.7782 -12.9228  12.3322 H              1 <1>                0.0000
     21 H21         -3.9247 -10.4884   9.2994 H              1 <1>                0.0000
     22 H22         -3.8385 -12.3015   9.6257 H              1 <1>                0.0000
     23 H23         -3.2676 -11.8375  12.0532 H              1 <1>                0.0000
     24 H24         -3.3538 -10.0244  11.7269 H              1 <1>                0.0000
@<TRIPOS>BOND
    1    1    2 1     
    2    1   15 1     
    3    1   16 1     
    4    1   17 1     
    5    2    3 ar    
    6    2    8 ar    
    7    3    4 ar    
    8    3   18 1     
    9    4    5 1     
   10    4    6 ar    
   11    6    7 ar    
   12    6   19 1     
   13    7    8 ar    
   14    7    9 1     
   15    8   20 1     
   16    9   10 1     
   17    9   11 1     
   18    9   12 1     
   19   10   11 1     
   20   10   21 1     
   21   10   22 1     
   22   11   23 1     
   23   11   24 1     
   24   12   13 ar    
   25   12   14 ar    
@<TRIPOS>SUBSTRUCTURE
      1 ****           1
@<TRIPOS>COMMENT
> <Gold.Version>
2022.2.0

> <Gold.Id.Protein>
3pbl|protein|mol2

> <Gold.Protein.RotatedTorsions>
[ 1303 1298 1297 1294 ] final -118.28 input  179.99 | X-H torsion
[ 2461 2456 2455 2452 ] final -111.26 input   30.03 | X-H torsion
[ 2515 2510 2509 2506 ] final   75.46 input  -89.99 | X-H torsion
[ 3721 3712 3711 3710 ] final -163.77 input -179.91 | X-H torsion
[ 3841 3832 3831 3830 ] final  -87.48 input -179.91 | X-H torsion
[ 3767 3762 3761 3758 ] final   22.69 input  -89.99 | X-H torsion
[ 2472 2467 2466 2463 ] final  131.45 input  -89.97 | X-H torsion

> <Gold.Protein.ActiveResidues>
 VAL82   VAL86   LEU89   PHE106  VAL107  ASP110  VAL111  MET112  CYS114  THR115 
 CYS181  SER182  ILE183  PHE188  VAL189  ILE190  SER192  SER193  SER196  TRP342 
 PHE345  PHE346  HIS349  VAL350  TYR365  THR369  GLY372  TYR373 

> <Gold.Protein.RotatedAtoms>
    4.2095   -8.4796    4.0790 H   0  0  0  0  0  0  0  0  0  0  0  0  # atno 1303 bound_to 1298
    0.4886   -9.1098    7.9583 H   0  0  0  0  0  0  0  0  0  0  0  0  # atno 2461 bound_to 2456
   -5.4813   -5.1416    8.2964 H   0  0  0  0  0  0  0  0  0  0  0  0  # atno 2472 bound_to 2467
    2.0834   -7.5763    5.6655 H   0  0  0  0  0  0  0  0  0  0  0  0  # atno 2515 bound_to 2510
   -3.3389  -16.5414   13.7815 H   0  0  0  0  0  0  0  0  0  0  0  0  # atno 3721 bound_to 3712
   -5.0765  -22.9815   10.0651 H   0  0  0  0  0  0  0  0  0  0  0  0  # atno 3767 bound_to 3762
    1.8258  -19.6254    8.7321 H   0  0  0  0  0  0  0  0  0  0  0  0  # atno 3841 bound_to 3832
    4.7572   -9.7470    4.9508 LP  0  0  0  0  0  0  0  0  0  0  0  0  # atno 4297 bound_to 1298
    3.3954   -9.8950    4.0619 LP  0  0  0  0  0  0  0  0  0  0  0  0  # atno 4298 bound_to 1298
    2.0699   -8.7493    8.1501 LP  0  0  0  0  0  0  0  0  0  0  0  0  # atno 4299 bound_to 2456
    1.1790   -7.9492    7.0398 LP  0  0  0  0  0  0  0  0  0  0  0  0  # atno 4300 bound_to 2456
    2.7823   -8.2516    4.3535 LP  0  0  0  0  0  0  0  0  0  0  0  0  # atno 4301 bound_to 2510
    2.4311   -9.1716    5.6561 LP  0  0  0  0  0  0  0  0  0  0  0  0  # atno 4302 bound_to 2510
   -2.8373  -17.9382   13.1690 LP  0  0  0  0  0  0  0  0  0  0  0  0  # atno 4306 bound_to 3712
   -2.8356  -17.6908   14.7831 LP  0  0  0  0  0  0  0  0  0  0  0  0  # atno 4307 bound_to 3712
    3.1149  -20.5347    8.4364 LP  0  0  0  0  0  0  0  0  0  0  0  0  # atno 4314 bound_to 3832
    2.0053  -21.0003    9.5403 LP  0  0  0  0  0  0  0  0  0  0  0  0  # atno 4315 bound_to 3832
   -5.1429  -21.9147   11.2997 LP  0  0  0  0  0  0  0  0  0  0  0  0  # atno 4318 bound_to 3762
   -3.9081  -22.9791   11.2060 LP  0  0  0  0  0  0  0  0  0  0  0  0  # atno 4319 bound_to 3762
   -3.9184   -4.8382    7.9337 LP  0  0  0  0  0  0  0  0  0  0  0  0  # atno 4320 bound_to 2467
   -4.3174   -5.4137    9.4089 LP  0  0  0  0  0  0  0  0  0  0  0  0  # atno 4321 bound_to 2467

> <Gold.Score>
     Score     S(PLP)   S(hbond)     S(cho)   S(metal)  DE(clash)   DE(tors)     intcor
     44.38     -43.15       0.67       0.00       0.00       0.00       1.22       1.65

> <Gold.PLP.Fitness>
44.3842

> <Gold.PLP.PLP>
-43.1537

> <Gold.PLP.part.hbond>
-2.0992

> <Gold.PLP.part.metal>
0.0000

> <Gold.PLP.part.buried>
-0.1662

> <Gold.PLP.part.nonpolar>
-42.4400

> <Gold.PLP.part.repulsive>
0.2446

> <Gold.PLP.ligand.clash>
0.0000

> <Gold.PLP.ligand.torsion>
1.2182

> <Gold.PLP.Chemscore.Hbond>
0.6721

> <Gold.PLP.Chemscore.CHOScore>
0.0000

> <Gold.PLP.Chemscore.Metal>
0.0000

> <Gold.Chemscore.Hbonds>
donor molecule, donor type, donor heavy atom, donor atom, acceptor molecule, acceptor atom, score
      P1  H  2456  2461       L1    13  0.67

> <Gold.PLP.Chemscore.Internal.Correction>
1.6506

