#       Name:                EN300-1897507_i001
#       Creating user name   fsindt
#       Creation time:       Wed Mar  1 14:00:35 2023


#       File generated by GOLD software.
#

@<TRIPOS>MOLECULE
EN300-1897507_i001|acide_1|mol2|8761|dock16
    24    25     1
SMALL
USER_CHARGES


@<TRIPOS>ATOM
      1 C1          -1.5976 -12.1341  11.4039 C.3            1 <1>                0.0000
      2 C2          -0.6977 -13.2964  11.0718 C.ar           1 <1>                0.0000
      3 C3          -0.1816 -13.4283   9.7966 C.ar           1 <1>                0.0000
      4 C4           0.6446 -14.4952   9.4920 C.ar           1 <1>                0.0000
      5 Br5          1.3516 -14.6760   7.7475 Br             1 <1>                0.0000
      6 C6           0.9537 -15.4295  10.4638 C.ar           1 <1>                0.0000
      7 C7           0.4369 -15.2968  11.7391 C.ar           1 <1>                0.0000
      8 C8          -0.3839 -14.2275  12.0446 C.ar           1 <1>                0.0000
      9 C9           0.7737 -16.3146  12.7981 C.3            1 <1>                0.0000
     10 C10          2.2222 -16.8012  12.8752 C.3            1 <1>                0.0000
     11 C11          1.6719 -15.8634  13.9516 C.3            1 <1>                0.0000
     12 C12         -0.3126 -17.3114  13.1105 C.2            1 <1>                0.0000
     13 O13         -0.4747 -17.6974  14.2556 O.co2          1 <1>                0.0000
     14 O14         -1.0293 -17.7316  12.2183 O.co2          1 <1>               -1.0000
     15 H15         -2.6341 -12.4102  11.2099 H              1 <1>                0.0000
     16 H16         -1.4819 -11.8739  12.4560 H              1 <1>                0.0000
     17 H17         -1.3280 -11.2777  10.7859 H              1 <1>                0.0000
     18 H18         -0.4235 -12.6987   9.0379 H              1 <1>                0.0000
     19 H19          1.5983 -16.2629  10.2263 H              1 <1>                0.0000
     20 H20         -0.7871 -14.1238  13.0411 H              1 <1>                0.0000
     21 H21          2.3895 -17.8421  13.1522 H              1 <1>                0.0000
     22 H22          2.9316 -16.3850  12.1600 H              1 <1>                0.0000
     23 H23          2.0193 -14.8302  13.9445 H              1 <1>                0.0000
     24 H24          1.4771 -16.2873  14.9367 H              1 <1>                0.0000
@<TRIPOS>BOND
    1    1    2 1     
    2    1   15 1     
    3    1   16 1     
    4    1   17 1     
    5    2    3 ar    
    6    2    8 ar    
    7    3    4 ar    
    8    3   18 1     
    9    4    5 1     
   10    4    6 ar    
   11    6    7 ar    
   12    6   19 1     
   13    7    8 ar    
   14    7    9 1     
   15    8   20 1     
   16    9   10 1     
   17    9   11 1     
   18    9   12 1     
   19   10   11 1     
   20   10   21 1     
   21   10   22 1     
   22   11   23 1     
   23   11   24 1     
   24   12   13 ar    
   25   12   14 ar    
@<TRIPOS>SUBSTRUCTURE
      1 ****           1
@<TRIPOS>COMMENT
> <Gold.Version>
2022.2.0

> <Gold.Id.Protein>
3pbl|protein|mol2

> <Gold.Protein.RotatedTorsions>
[ 1303 1298 1297 1294 ] final -162.73 input  179.99 | X-H torsion
[ 2461 2456 2455 2452 ] final -159.04 input   30.03 | X-H torsion
[ 2515 2510 2509 2506 ] final  -85.40 input  -89.99 | X-H torsion
[ 3721 3712 3711 3710 ] final   85.91 input -179.91 | X-H torsion
[ 3841 3832 3831 3830 ] final  -17.90 input -179.91 | X-H torsion
[ 3767 3762 3761 3758 ] final -138.04 input  -89.99 | X-H torsion
[ 2472 2467 2466 2463 ] final  111.35 input  -89.97 | X-H torsion

> <Gold.Protein.ActiveResidues>
 VAL82   VAL86   LEU89   PHE106  VAL107  ASP110  VAL111  MET112  CYS114  THR115 
 CYS181  SER182  ILE183  PHE188  VAL189  ILE190  SER192  SER193  SER196  TRP342 
 PHE345  PHE346  HIS349  VAL350  TYR365  THR369  GLY372  TYR373 

> <Gold.Protein.RotatedAtoms>
    4.7345   -8.6756    4.5199 H   0  0  0  0  0  0  0  0  0  0  0  0  # atno 1303 bound_to 1298
    1.1181   -9.2857    8.3537 H   0  0  0  0  0  0  0  0  0  0  0  0  # atno 2461 bound_to 2456
   -5.3468   -5.0268    8.0189 H   0  0  0  0  0  0  0  0  0  0  0  0  # atno 2472 bound_to 2467
    2.8284   -8.8738    4.5627 H   0  0  0  0  0  0  0  0  0  0  0  0  # atno 2515 bound_to 2510
   -2.7543  -17.6624   13.1309 H   0  0  0  0  0  0  0  0  0  0  0  0  # atno 3721 bound_to 3712
   -4.5971  -22.0851   11.6219 H   0  0  0  0  0  0  0  0  0  0  0  0  # atno 3767 bound_to 3762
    1.6141  -20.2753    9.4452 H   0  0  0  0  0  0  0  0  0  0  0  0  # atno 3841 bound_to 3832
    4.2459  -10.2124    4.7761 LP  0  0  0  0  0  0  0  0  0  0  0  0  # atno 4297 bound_to 1298
    3.3816   -9.2336    3.7956 LP  0  0  0  0  0  0  0  0  0  0  0  0  # atno 4298 bound_to 1298
    2.0947   -8.2050    7.6150 LP  0  0  0  0  0  0  0  0  0  0  0  0  # atno 4299 bound_to 2456
    0.5249   -8.3177    7.1796 LP  0  0  0  0  0  0  0  0  0  0  0  0  # atno 4300 bound_to 2456
    2.1673   -8.7120    6.0467 LP  0  0  0  0  0  0  0  0  0  0  0  0  # atno 4301 bound_to 2510
    2.3008   -7.4130    5.0662 LP  0  0  0  0  0  0  0  0  0  0  0  0  # atno 4302 bound_to 2510
   -2.7895  -17.7792   14.7318 LP  0  0  0  0  0  0  0  0  0  0  0  0  # atno 4306 bound_to 3712
   -3.5582  -16.5555   13.9714 LP  0  0  0  0  0  0  0  0  0  0  0  0  # atno 4307 bound_to 3712
    2.4151  -19.7425    8.1604 LP  0  0  0  0  0  0  0  0  0  0  0  0  # atno 4314 bound_to 3832
    2.9497  -21.0418    8.9926 LP  0  0  0  0  0  0  0  0  0  0  0  0  # atno 4315 bound_to 3832
   -4.0772  -23.2953   10.6567 LP  0  0  0  0  0  0  0  0  0  0  0  0  # atno 4318 bound_to 3762
   -5.4530  -22.4944   10.2928 LP  0  0  0  0  0  0  0  0  0  0  0  0  # atno 4319 bound_to 3762
   -3.7272   -4.9101    8.1917 LP  0  0  0  0  0  0  0  0  0  0  0  0  # atno 4320 bound_to 2467
   -4.6431   -5.4566    9.4284 LP  0  0  0  0  0  0  0  0  0  0  0  0  # atno 4321 bound_to 2467

> <Gold.Score>
     Score     S(PLP)   S(hbond)     S(cho)   S(metal)  DE(clash)   DE(tors)     intcor
     42.93     -40.25       1.00       0.00       0.00       0.00       0.98       1.65

> <Gold.PLP.Fitness>
42.9330

> <Gold.PLP.PLP>
-40.2471

> <Gold.PLP.part.hbond>
-2.0000

> <Gold.PLP.part.metal>
0.0000

> <Gold.PLP.part.buried>
1.1024

> <Gold.PLP.part.nonpolar>
-39.9639

> <Gold.PLP.part.repulsive>
0.0595

> <Gold.PLP.ligand.clash>
0.0000

> <Gold.PLP.ligand.torsion>
0.9823

> <Gold.PLP.Chemscore.Hbond>
1.0000

> <Gold.PLP.Chemscore.CHOScore>
0.0000

> <Gold.PLP.Chemscore.Metal>
0.0000

> <Gold.Chemscore.Hbonds>
donor molecule, donor type, donor heavy atom, donor atom, acceptor molecule, acceptor atom, score
      P1  H  3712  3721       L1    14  1.00

> <Gold.PLP.Chemscore.Internal.Correction>
1.6506

