#       Name:                EN300-1897507_i001
#       Creating user name   fsindt
#       Creation time:       Wed Mar  1 14:00:32 2023


#       File generated by GOLD software.
#

@<TRIPOS>MOLECULE
EN300-1897507_i001|acide_1|mol2|8761|dock6
    24    25     1
SMALL
USER_CHARGES


@<TRIPOS>ATOM
      1 C1           0.0005 -15.5893   9.2631 C.3            1 <1>                0.0000
      2 C2          -0.0365 -14.1254   8.9071 C.ar           1 <1>                0.0000
      3 C3           0.6470 -13.6668   7.7970 C.ar           1 <1>                0.0000
      4 C4           0.6128 -12.3229   7.4704 C.ar           1 <1>                0.0000
      5 Br5          1.5474 -11.6948   5.9512 Br             1 <1>                0.0000
      6 C6          -0.1054 -11.4389   8.2550 C.ar           1 <1>                0.0000
      7 C7          -0.7889 -11.8987   9.3653 C.ar           1 <1>                0.0000
      8 C8          -0.7591 -13.2423   9.6880 C.ar           1 <1>                0.0000
      9 C9          -1.5715 -10.9356  10.2202 C.3            1 <1>                0.0000
     10 C10         -1.2415 -10.8874  11.7134 C.3            1 <1>                0.0000
     11 C11         -0.8213  -9.7346  10.7994 C.3            1 <1>                0.0000
     12 C12         -3.0095 -10.7306   9.8185 C.2            1 <1>                0.0000
     13 O13         -3.4558  -9.6016   9.7057 O.co2          1 <1>                0.0000
     14 O14         -3.7265 -11.6936   9.6063 O.co2          1 <1>               -1.0000
     15 H15          0.8424 -15.7801   9.9288 H              1 <1>                0.0000
     16 H16         -0.9278 -15.8653   9.7631 H              1 <1>                0.0000
     17 H17          0.1141 -16.1813   8.3549 H              1 <1>                0.0000
     18 H18          1.2081 -14.3573   7.1848 H              1 <1>                0.0000
     19 H19         -0.1321 -10.3897   8.0005 H              1 <1>                0.0000
     20 H20         -1.2934 -13.6012  10.5552 H              1 <1>                0.0000
     21 H21         -2.0643 -10.7070  12.4051 H              1 <1>                0.0000
     22 H22         -0.4581 -11.5522  12.0773 H              1 <1>                0.0000
     23 H23          0.2384  -9.6409  10.5620 H              1 <1>                0.0000
     24 H24         -1.3678  -8.7958  10.8898 H              1 <1>                0.0000
@<TRIPOS>BOND
    1    1    2 1     
    2    1   15 1     
    3    1   16 1     
    4    1   17 1     
    5    2    3 ar    
    6    2    8 ar    
    7    3    4 ar    
    8    3   18 1     
    9    4    5 1     
   10    4    6 ar    
   11    6    7 ar    
   12    6   19 1     
   13    7    8 ar    
   14    7    9 1     
   15    8   20 1     
   16    9   10 1     
   17    9   11 1     
   18    9   12 1     
   19   10   11 1     
   20   10   21 1     
   21   10   22 1     
   22   11   23 1     
   23   11   24 1     
   24   12   13 ar    
   25   12   14 ar    
@<TRIPOS>SUBSTRUCTURE
      1 ****           1
@<TRIPOS>COMMENT
> <Gold.Version>
2022.2.0

> <Gold.Id.Protein>
3pbl|protein|mol2

> <Gold.Protein.RotatedTorsions>
[ 1303 1298 1297 1294 ] final   30.20 input  179.99 | X-H torsion
[ 2461 2456 2455 2452 ] final  -42.84 input   30.03 | X-H torsion
[ 2515 2510 2509 2506 ] final  168.58 input  -89.99 | X-H torsion
[ 3721 3712 3711 3710 ] final -177.84 input -179.91 | X-H torsion
[ 3841 3832 3831 3830 ] final -155.26 input -179.91 | X-H torsion
[ 3767 3762 3761 3758 ] final  -33.29 input  -89.99 | X-H torsion
[ 2472 2467 2466 2463 ] final -123.69 input  -89.97 | X-H torsion

> <Gold.Protein.ActiveResidues>
 VAL82   VAL86   LEU89   PHE106  VAL107  ASP110  VAL111  MET112  CYS114  THR115 
 CYS181  SER182  ILE183  PHE188  VAL189  ILE190  SER192  SER193  SER196  TRP342 
 PHE345  PHE346  HIS349  VAL350  TYR365  THR369  GLY372  TYR373 

> <Gold.Protein.RotatedAtoms>
    3.6338  -10.1805    4.3389 H   0  0  0  0  0  0  0  0  0  0  0  0  # atno 1303 bound_to 1298
    0.4889   -8.3596    7.2089 H   0  0  0  0  0  0  0  0  0  0  0  0  # atno 2461 bound_to 2456
   -4.5618   -5.4503    9.4335 H   0  0  0  0  0  0  0  0  0  0  0  0  # atno 2472 bound_to 2467
    2.2489   -8.9043    5.9519 H   0  0  0  0  0  0  0  0  0  0  0  0  # atno 2515 bound_to 2510
   -3.3260  -16.5955   13.5767 H   0  0  0  0  0  0  0  0  0  0  0  0  # atno 3721 bound_to 3712
   -5.5056  -22.3148   10.4588 H   0  0  0  0  0  0  0  0  0  0  0  0  # atno 3767 bound_to 3762
    2.6945  -19.7967    8.3476 H   0  0  0  0  0  0  0  0  0  0  0  0  # atno 3841 bound_to 3832
    3.8241   -8.6285    3.8683 LP  0  0  0  0  0  0  0  0  0  0  0  0  # atno 4297 bound_to 1298
    4.9045   -9.3120    4.8843 LP  0  0  0  0  0  0  0  0  0  0  0  0  # atno 4298 bound_to 1298
    1.1785   -9.2797    8.3688 LP  0  0  0  0  0  0  0  0  0  0  0  0  # atno 4299 bound_to 2456
    2.0702   -8.1688    7.5703 LP  0  0  0  0  0  0  0  0  0  0  0  0  # atno 4300 bound_to 2456
    2.2125   -7.4177    5.2779 LP  0  0  0  0  0  0  0  0  0  0  0  0  # atno 4301 bound_to 2510
    2.8353   -8.6768    4.4452 LP  0  0  0  0  0  0  0  0  0  0  0  0  # atno 4302 bound_to 2510
   -2.7451  -18.0730   13.3373 LP  0  0  0  0  0  0  0  0  0  0  0  0  # atno 4306 bound_to 3712
   -2.9426  -17.4935   14.8512 LP  0  0  0  0  0  0  0  0  0  0  0  0  # atno 4307 bound_to 3712
    2.7235  -21.1420    9.2225 LP  0  0  0  0  0  0  0  0  0  0  0  0  # atno 4314 bound_to 3832
    1.3932  -20.1951    9.1984 LP  0  0  0  0  0  0  0  0  0  0  0  0  # atno 4315 bound_to 3832
   -4.3926  -22.2263   11.6505 LP  0  0  0  0  0  0  0  0  0  0  0  0  # atno 4318 bound_to 3762
   -4.2295  -23.3339   10.4617 LP  0  0  0  0  0  0  0  0  0  0  0  0  # atno 4319 bound_to 3762
   -5.3897   -5.0538    8.0830 LP  0  0  0  0  0  0  0  0  0  0  0  0  # atno 4320 bound_to 2467
   -3.7655   -4.8895    8.1228 LP  0  0  0  0  0  0  0  0  0  0  0  0  # atno 4321 bound_to 2467

> <Gold.Score>
     Score     S(PLP)   S(hbond)     S(cho)   S(metal)  DE(clash)   DE(tors)     intcor
     48.05     -48.46       0.00       0.00       0.00       0.00       1.03       1.65

> <Gold.PLP.Fitness>
48.0453

> <Gold.PLP.PLP>
-48.4645

> <Gold.PLP.part.hbond>
0.0000

> <Gold.PLP.part.metal>
0.0000

> <Gold.PLP.part.buried>
-3.9877

> <Gold.PLP.part.nonpolar>
-45.5735

> <Gold.PLP.part.repulsive>
0.1298

> <Gold.PLP.ligand.clash>
0.0000

> <Gold.PLP.ligand.torsion>
1.0349

> <Gold.PLP.Chemscore.Hbond>
0.0000

> <Gold.PLP.Chemscore.CHOScore>
0.0000

> <Gold.PLP.Chemscore.Metal>
0.0000

> <Gold.PLP.Chemscore.Internal.Correction>
1.6506

