#       Name:                EN300-1897507_i001
#       Creating user name   fsindt
#       Creation time:       Wed Mar  1 14:00:36 2023


#       File generated by GOLD software.
#

@<TRIPOS>MOLECULE
EN300-1897507_i001|acide_1|mol2|8761|dock18
    24    25     1
SMALL
USER_CHARGES


@<TRIPOS>ATOM
      1 C1           1.5796 -11.6987   6.0455 C.3            1 <1>                0.0000
      2 C2           0.7906 -12.3568   7.1481 C.ar           1 <1>                0.0000
      3 C3           0.7097 -13.7349   7.2120 C.ar           1 <1>                0.0000
      4 C4          -0.0145 -14.3388   8.2242 C.ar           1 <1>                0.0000
      5 Br5         -0.1252 -16.2245   8.3126 Br             1 <1>                0.0000
      6 C6          -0.6573 -13.5631   9.1718 C.ar           1 <1>                0.0000
      7 C7          -0.5758 -12.1845   9.1070 C.ar           1 <1>                0.0000
      8 C8           0.1526 -11.5817   8.0988 C.ar           1 <1>                0.0000
      9 C9          -1.2760 -11.3391  10.1395 C.3            1 <1>                0.0000
     10 C10         -1.1503 -11.7642  11.6039 C.3            1 <1>                0.0000
     11 C11         -0.4027 -10.5284  11.0991 C.3            1 <1>                0.0000
     12 C12         -2.5823 -10.7281   9.7019 C.2            1 <1>                0.0000
     13 O13         -2.6125  -9.5777   9.2994 O.co2          1 <1>                0.0000
     14 O14         -3.6087 -11.3842   9.7505 O.co2          1 <1>               -1.0000
     15 H15          0.9280 -11.5179   5.1906 H              1 <1>                0.0000
     16 H16          1.9819 -10.7507   6.4025 H              1 <1>                0.0000
     17 H17          2.3993 -12.3516   5.7459 H              1 <1>                0.0000
     18 H18          1.2114 -14.3403   6.4716 H              1 <1>                0.0000
     19 H19         -1.2231 -14.0341   9.9619 H              1 <1>                0.0000
     20 H20          0.2165 -10.5048   8.0488 H              1 <1>                0.0000
     21 H21         -2.0123 -11.6014  12.2509 H              1 <1>                0.0000
     22 H22         -0.5611 -12.6551  11.8205 H              1 <1>                0.0000
     23 H23          0.6784 -10.6064  10.9836 H              1 <1>                0.0000
     24 H24         -0.7729  -9.5527  11.4140 H              1 <1>                0.0000
@<TRIPOS>BOND
    1    1    2 1     
    2    1   15 1     
    3    1   16 1     
    4    1   17 1     
    5    2    3 ar    
    6    2    8 ar    
    7    3    4 ar    
    8    3   18 1     
    9    4    5 1     
   10    4    6 ar    
   11    6    7 ar    
   12    6   19 1     
   13    7    8 ar    
   14    7    9 1     
   15    8   20 1     
   16    9   10 1     
   17    9   11 1     
   18    9   12 1     
   19   10   11 1     
   20   10   21 1     
   21   10   22 1     
   22   11   23 1     
   23   11   24 1     
   24   12   13 ar    
   25   12   14 ar    
@<TRIPOS>SUBSTRUCTURE
      1 ****           1
@<TRIPOS>COMMENT
> <Gold.Version>
2022.2.0

> <Gold.Id.Protein>
3pbl|protein|mol2

> <Gold.Protein.RotatedTorsions>
[ 1303 1298 1297 1294 ] final  129.20 input  179.99 | X-H torsion
[ 2461 2456 2455 2452 ] final -161.94 input   30.03 | X-H torsion
[ 2515 2510 2509 2506 ] final -142.87 input  -89.99 | X-H torsion
[ 3721 3712 3711 3710 ] final  -42.50 input -179.91 | X-H torsion
[ 3841 3832 3831 3830 ] final  -36.81 input -179.91 | X-H torsion
[ 3767 3762 3761 3758 ] final  -84.94 input  -89.99 | X-H torsion
[ 2472 2467 2466 2463 ] final  -69.98 input  -89.97 | X-H torsion

> <Gold.Protein.ActiveResidues>
 VAL82   VAL86   LEU89   PHE106  VAL107  ASP110  VAL111  MET112  CYS114  THR115 
 CYS181  SER182  ILE183  PHE188  VAL189  ILE190  SER192  SER193  SER196  TRP342 
 PHE345  PHE346  HIS349  VAL350  TYR365  THR369  GLY372  TYR373 

> <Gold.Protein.RotatedAtoms>
    4.8126   -9.6372    4.9473 H   0  0  0  0  0  0  0  0  0  0  0  0  # atno 1303 bound_to 1298
    1.1642   -9.2815    8.3656 H   0  0  0  0  0  0  0  0  0  0  0  0  # atno 2461 bound_to 2456
   -3.8102   -5.2438    9.0900 H   0  0  0  0  0  0  0  0  0  0  0  0  # atno 2472 bound_to 2467
    2.5804   -9.2559    5.3460 H   0  0  0  0  0  0  0  0  0  0  0  0  # atno 2515 bound_to 2510
   -2.6780  -17.5545   14.6850 H   0  0  0  0  0  0  0  0  0  0  0  0  # atno 3721 bound_to 3712
   -5.2771  -21.9309   11.1481 H   0  0  0  0  0  0  0  0  0  0  0  0  # atno 3767 bound_to 3762
    1.5618  -20.0518    9.2774 H   0  0  0  0  0  0  0  0  0  0  0  0  # atno 3841 bound_to 3832
    3.4427   -9.9857    4.1299 LP  0  0  0  0  0  0  0  0  0  0  0  0  # atno 4297 bound_to 1298
    4.1066   -8.4983    4.0141 LP  0  0  0  0  0  0  0  0  0  0  0  0  # atno 4298 bound_to 1298
    2.0763   -8.1772    7.5808 LP  0  0  0  0  0  0  0  0  0  0  0  0  # atno 4299 bound_to 2456
    0.4973   -8.3497    7.2019 LP  0  0  0  0  0  0  0  0  0  0  0  0  # atno 4300 bound_to 2456
    2.0329   -7.8257    5.9121 LP  0  0  0  0  0  0  0  0  0  0  0  0  # atno 4301 bound_to 2510
    2.6834   -7.9171    4.4171 LP  0  0  0  0  0  0  0  0  0  0  0  0  # atno 4302 bound_to 2510
   -3.5675  -16.5687   13.7824 LP  0  0  0  0  0  0  0  0  0  0  0  0  # atno 4306 bound_to 3712
   -2.8683  -17.8907   13.1266 LP  0  0  0  0  0  0  0  0  0  0  0  0  # atno 4307 bound_to 3712
    2.6838  -19.9045    8.1391 LP  0  0  0  0  0  0  0  0  0  0  0  0  # atno 4314 bound_to 3832
    2.7414  -21.1379    9.2078 LP  0  0  0  0  0  0  0  0  0  0  0  0  # atno 4315 bound_to 3832
   -3.9349  -22.8387   11.3506 LP  0  0  0  0  0  0  0  0  0  0  0  0  # atno 4318 bound_to 3762
   -4.9156  -23.1052   10.0724 LP  0  0  0  0  0  0  0  0  0  0  0  0  # atno 4319 bound_to 3762
   -5.4267   -5.3459    8.8822 LP  0  0  0  0  0  0  0  0  0  0  0  0  # atno 4320 bound_to 2467
   -4.4799   -4.8039    7.6671 LP  0  0  0  0  0  0  0  0  0  0  0  0  # atno 4321 bound_to 2467

> <Gold.Score>
     Score     S(PLP)   S(hbond)     S(cho)   S(metal)  DE(clash)   DE(tors)     intcor
     50.61     -50.87       0.00       0.00       0.00       0.00       0.96       1.65

> <Gold.PLP.Fitness>
50.6057

> <Gold.PLP.PLP>
-50.8686

> <Gold.PLP.part.hbond>
-0.0297

> <Gold.PLP.part.metal>
0.0000

> <Gold.PLP.part.buried>
-5.3023

> <Gold.PLP.part.nonpolar>
-47.1288

> <Gold.PLP.part.repulsive>
0.1102

> <Gold.PLP.ligand.clash>
0.0000

> <Gold.PLP.ligand.torsion>
0.9568

> <Gold.PLP.Chemscore.Hbond>
0.0000

> <Gold.PLP.Chemscore.CHOScore>
0.0000

> <Gold.PLP.Chemscore.Metal>
0.0000

> <Gold.PLP.Chemscore.Internal.Correction>
1.6506

