#       Name:                EN300-1897507_i001
#       Creating user name   fsindt
#       Creation time:       Wed Mar  1 14:00:33 2023


#       File generated by GOLD software.
#

@<TRIPOS>MOLECULE
EN300-1897507_i001|acide_1|mol2|8761|dock10
    24    25     1
SMALL
USER_CHARGES


@<TRIPOS>ATOM
      1 C1          -0.2529 -15.7359  12.3872 C.3            1 <1>                0.0000
      2 C2          -0.2291 -14.7902  11.2141 C.ar           1 <1>                0.0000
      3 C3           0.1993 -15.2340   9.9775 C.ar           1 <1>                0.0000
      4 C4           0.2211 -14.3658   8.9007 C.ar           1 <1>                0.0000
      5 Br5          0.8066 -14.9726   7.2081 Br             1 <1>                0.0000
      6 C6          -0.1859 -13.0539   9.0623 C.ar           1 <1>                0.0000
      7 C7          -0.6143 -12.6108  10.2998 C.ar           1 <1>                0.0000
      8 C8          -0.6412 -13.4802  11.3740 C.ar           1 <1>                0.0000
      9 C9          -1.0578 -11.1814  10.4761 C.3            1 <1>                0.0000
     10 C10         -2.2069 -10.6847   9.5965 C.3            1 <1>                0.0000
     11 C11         -2.4398 -10.9407  11.0869 C.3            1 <1>                0.0000
     12 C12          0.0338 -10.1992  10.8149 C.2            1 <1>                0.0000
     13 O13          1.0880 -10.2246  10.2029 O.co2          1 <1>                0.0000
     14 O14         -0.1372  -9.3793  11.7008 O.co2          1 <1>               -1.0000
     15 H15          0.7044 -15.6944  12.9069 H              1 <1>                0.0000
     16 H16         -1.0505 -15.4464  13.0714 H              1 <1>                0.0000
     17 H17         -0.4296 -16.7511  12.0319 H              1 <1>                0.0000
     18 H18          0.5174 -16.2585   9.8518 H              1 <1>                0.0000
     19 H19         -0.1687 -12.3756   8.2221 H              1 <1>                0.0000
     20 H20         -0.9763 -13.1338  12.3405 H              1 <1>                0.0000
     21 H21         -2.1736  -9.6474   9.2632 H              1 <1>                0.0000
     22 H22         -2.6422 -11.3918   8.8904 H              1 <1>                0.0000
     23 H23         -3.0282 -11.8163  11.3613 H              1 <1>                0.0000
     24 H24         -2.5596 -10.0719  11.7341 H              1 <1>                0.0000
@<TRIPOS>BOND
    1    1    2 1     
    2    1   15 1     
    3    1   16 1     
    4    1   17 1     
    5    2    3 ar    
    6    2    8 ar    
    7    3    4 ar    
    8    3   18 1     
    9    4    5 1     
   10    4    6 ar    
   11    6    7 ar    
   12    6   19 1     
   13    7    8 ar    
   14    7    9 1     
   15    8   20 1     
   16    9   10 1     
   17    9   11 1     
   18    9   12 1     
   19   10   11 1     
   20   10   21 1     
   21   10   22 1     
   22   11   23 1     
   23   11   24 1     
   24   12   13 ar    
   25   12   14 ar    
@<TRIPOS>SUBSTRUCTURE
      1 ****           1
@<TRIPOS>COMMENT
> <Gold.Version>
2022.2.0

> <Gold.Id.Protein>
3pbl|protein|mol2

> <Gold.Protein.RotatedTorsions>
[ 1303 1298 1297 1294 ] final  111.91 input  179.99 | X-H torsion
[ 2461 2456 2455 2452 ] final -173.40 input   30.03 | X-H torsion
[ 2515 2510 2509 2506 ] final  178.79 input  -89.99 | X-H torsion
[ 3721 3712 3711 3710 ] final   48.01 input -179.91 | X-H torsion
[ 3841 3832 3831 3830 ] final  132.20 input -179.91 | X-H torsion
[ 3767 3762 3761 3758 ] final  115.98 input  -89.99 | X-H torsion
[ 2472 2467 2466 2463 ] final   71.44 input  -89.97 | X-H torsion

> <Gold.Protein.ActiveResidues>
 VAL82   VAL86   LEU89   PHE106  VAL107  ASP110  VAL111  MET112  CYS114  THR115 
 CYS181  SER182  ILE183  PHE188  VAL189  ILE190  SER192  SER193  SER196  TRP342 
 PHE345  PHE346  HIS349  VAL350  TYR365  THR369  GLY372  TYR373 

> <Gold.Protein.RotatedAtoms>
    4.6674   -9.8805    4.9408 H   0  0  0  0  0  0  0  0  0  0  0  0  # atno 1303 bound_to 1298
    1.3470   -9.2482    8.3962 H   0  0  0  0  0  0  0  0  0  0  0  0  # atno 2461 bound_to 2456
   -4.8271   -4.8488    7.6837 H   0  0  0  0  0  0  0  0  0  0  0  0  # atno 2472 bound_to 2467
    2.3156   -9.0241    5.8552 H   0  0  0  0  0  0  0  0  0  0  0  0  # atno 2515 bound_to 2510
   -2.5355  -17.9809   13.5397 H   0  0  0  0  0  0  0  0  0  0  0  0  # atno 3721 bound_to 3712
   -3.9759  -23.2179   10.8480 H   0  0  0  0  0  0  0  0  0  0  0  0  # atno 3767 bound_to 3762
    3.1241  -20.6057    8.8060 H   0  0  0  0  0  0  0  0  0  0  0  0  # atno 3841 bound_to 3832
    3.3521   -9.7626    3.9804 LP  0  0  0  0  0  0  0  0  0  0  0  0  # atno 4297 bound_to 1298
    4.3424   -8.4781    4.1701 LP  0  0  0  0  0  0  0  0  0  0  0  0  # atno 4298 bound_to 1298
    1.9832   -8.0788    7.4500 LP  0  0  0  0  0  0  0  0  0  0  0  0  # atno 4299 bound_to 2456
    0.4076   -8.4814    7.3021 LP  0  0  0  0  0  0  0  0  0  0  0  0  # atno 4300 bound_to 2456
    2.1560   -7.4555    5.4313 LP  0  0  0  0  0  0  0  0  0  0  0  0  # atno 4301 bound_to 2510
    2.8252   -8.5192    4.3885 LP  0  0  0  0  0  0  0  0  0  0  0  0  # atno 4302 bound_to 2510
   -3.0837  -17.2461   14.8578 LP  0  0  0  0  0  0  0  0  0  0  0  0  # atno 4306 bound_to 3712
   -3.5166  -16.7209   13.3734 LP  0  0  0  0  0  0  0  0  0  0  0  0  # atno 4307 bound_to 3712
    1.6973  -20.7677    9.5228 LP  0  0  0  0  0  0  0  0  0  0  0  0  # atno 4314 bound_to 3832
    1.9232  -19.6349    8.3686 LP  0  0  0  0  0  0  0  0  0  0  0  0  # atno 4315 bound_to 3832
   -5.3580  -22.6676   10.1745 LP  0  0  0  0  0  0  0  0  0  0  0  0  # atno 4318 bound_to 3762
   -4.7931  -21.9898   11.5486 LP  0  0  0  0  0  0  0  0  0  0  0  0  # atno 4319 bound_to 3762
   -3.6633   -5.1210    8.7964 LP  0  0  0  0  0  0  0  0  0  0  0  0  # atno 4320 bound_to 2467
   -5.2265   -5.4237    9.1589 LP  0  0  0  0  0  0  0  0  0  0  0  0  # atno 4321 bound_to 2467

> <Gold.Score>
     Score     S(PLP)   S(hbond)     S(cho)   S(metal)  DE(clash)   DE(tors)     intcor
     47.73     -45.56       0.83       0.00       0.00       0.00       0.99       1.65

> <Gold.PLP.Fitness>
47.7309

> <Gold.PLP.PLP>
-45.5557

> <Gold.PLP.part.hbond>
-1.0000

> <Gold.PLP.part.metal>
0.0000

> <Gold.PLP.part.buried>
-2.3459

> <Gold.PLP.part.nonpolar>
-42.6695

> <Gold.PLP.part.repulsive>
0.1132

> <Gold.PLP.ligand.clash>
0.0000

> <Gold.PLP.ligand.torsion>
0.9857

> <Gold.PLP.Chemscore.Hbond>
0.8320

> <Gold.PLP.Chemscore.CHOScore>
0.0000

> <Gold.PLP.Chemscore.Metal>
0.0000

> <Gold.Chemscore.Hbonds>
donor molecule, donor type, donor heavy atom, donor atom, acceptor molecule, acceptor atom, score
      P1  H  2456  2461       L1    13  0.83

> <Gold.PLP.Chemscore.Internal.Correction>
1.6506

