#       Name:                EN300-1897507_i001
#       Creating user name   fsindt
#       Creation time:       Wed Mar  1 14:00:31 2023


#       File generated by GOLD software.
#

@<TRIPOS>MOLECULE
EN300-1897507_i001|acide_1|mol2|8761|dock2
    24    25     1
SMALL
USER_CHARGES


@<TRIPOS>ATOM
      1 C1          -0.4052 -14.5564  12.4360 C.3            1 <1>                0.0000
      2 C2          -0.6871 -13.6496  11.2659 C.ar           1 <1>                0.0000
      3 C3          -1.5979 -12.6182  11.3948 C.ar           1 <1>                0.0000
      4 C4          -1.8564 -11.7857  10.3205 C.ar           1 <1>                0.0000
      5 Br5         -3.1021 -10.3739  10.4964 Br             1 <1>                0.0000
      6 C6          -1.2033 -11.9861   9.1180 C.ar           1 <1>                0.0000
      7 C7          -0.2924 -13.0181   8.9900 C.ar           1 <1>                0.0000
      8 C8          -0.0301 -13.8461  10.0653 C.ar           1 <1>                0.0000
      9 C9           0.4194 -13.2365   7.6798 C.3            1 <1>                0.0000
     10 C10          1.2801 -14.4942   7.5444 C.3            1 <1>                0.0000
     11 C11         -0.0549 -14.3973   6.8031 C.3            1 <1>                0.0000
     12 C12          0.8971 -11.9882   6.9836 C.2            1 <1>                0.0000
     13 O13          1.1002 -12.0005   5.7815 O.co2          1 <1>                0.0000
     14 O14          1.0805 -10.9661   7.6225 O.co2          1 <1>               -1.0000
     15 H15         -1.0915 -15.4030  12.4131 H              1 <1>                0.0000
     16 H16          0.6209 -14.9190  12.3760 H              1 <1>                0.0000
     17 H17         -0.5415 -14.0034  13.3654 H              1 <1>                0.0000
     18 H18         -2.1080 -12.4623  12.3339 H              1 <1>                0.0000
     19 H19         -1.4052 -11.3367   8.2790 H              1 <1>                0.0000
     20 H20          0.6818 -14.6519   9.9651 H              1 <1>                0.0000
     21 H21          2.1916 -14.4188   6.9515 H              1 <1>                0.0000
     22 H22          1.3314 -15.1637   8.4029 H              1 <1>                0.0000
     23 H23         -0.8817 -15.0030   7.1739 H              1 <1>                0.0000
     24 H24         -0.0215 -14.2581   5.7225 H              1 <1>                0.0000
@<TRIPOS>BOND
    1    1    2 1     
    2    1   15 1     
    3    1   16 1     
    4    1   17 1     
    5    2    3 ar    
    6    2    8 ar    
    7    3    4 ar    
    8    3   18 1     
    9    4    5 1     
   10    4    6 ar    
   11    6    7 ar    
   12    6   19 1     
   13    7    8 ar    
   14    7    9 1     
   15    8   20 1     
   16    9   10 1     
   17    9   11 1     
   18    9   12 1     
   19   10   11 1     
   20   10   21 1     
   21   10   22 1     
   22   11   23 1     
   23   11   24 1     
   24   12   13 ar    
   25   12   14 ar    
@<TRIPOS>SUBSTRUCTURE
      1 ****           1
@<TRIPOS>COMMENT
> <Gold.Version>
2022.2.0

> <Gold.Id.Protein>
3pbl|protein|mol2

> <Gold.Protein.RotatedTorsions>
[ 1303 1298 1297 1294 ] final -152.93 input  179.99 | X-H torsion
[ 2461 2456 2455 2452 ] final -154.69 input   30.03 | X-H torsion
[ 2515 2510 2509 2506 ] final    8.55 input  -89.99 | X-H torsion
[ 3721 3712 3711 3710 ] final -111.43 input -179.91 | X-H torsion
[ 3841 3832 3831 3830 ] final   34.80 input -179.91 | X-H torsion
[ 3767 3762 3761 3758 ] final -175.99 input  -89.99 | X-H torsion
[ 2472 2467 2466 2463 ] final    2.40 input  -89.97 | X-H torsion

> <Gold.Protein.ActiveResidues>
 VAL82   VAL86   LEU89   PHE106  VAL107  ASP110  VAL111  MET112  CYS114  THR115 
 CYS181  SER182  ILE183  PHE188  VAL189  ILE190  SER192  SER193  SER196  TRP342 
 PHE345  PHE346  HIS349  VAL350  TYR365  THR369  GLY372  TYR373 

> <Gold.Protein.RotatedAtoms>
    4.6407   -8.5896    4.4213 H   0  0  0  0  0  0  0  0  0  0  0  0  # atno 1303 bound_to 1298
    1.0496   -9.2886    8.3328 H   0  0  0  0  0  0  0  0  0  0  0  0  # atno 2461 bound_to 2456
   -3.8206   -4.8673    8.0422 H   0  0  0  0  0  0  0  0  0  0  0  0  # atno 2472 bound_to 2467
    2.4819   -7.5479    4.7062 H   0  0  0  0  0  0  0  0  0  0  0  0  # atno 2515 bound_to 2510
   -3.1690  -16.7257   14.5033 H   0  0  0  0  0  0  0  0  0  0  0  0  # atno 3721 bound_to 3712
   -4.1322  -22.4836   11.5894 H   0  0  0  0  0  0  0  0  0  0  0  0  # atno 3767 bound_to 3762
    2.1286  -20.8205    9.6148 H   0  0  0  0  0  0  0  0  0  0  0  0  # atno 3841 bound_to 3832
    4.3770  -10.1454    4.8412 LP  0  0  0  0  0  0  0  0  0  0  0  0  # atno 4297 bound_to 1298
    3.3443   -9.3865    3.8291 LP  0  0  0  0  0  0  0  0  0  0  0  0  # atno 4298 bound_to 1298
    2.1183   -8.2486    7.6668 LP  0  0  0  0  0  0  0  0  0  0  0  0  # atno 4299 bound_to 2456
    0.5698   -8.2712    7.1488 LP  0  0  0  0  0  0  0  0  0  0  0  0  # atno 4300 bound_to 2456
    2.7543   -9.1485    4.8783 LP  0  0  0  0  0  0  0  0  0  0  0  0  # atno 4301 bound_to 2510
    2.0604   -8.3032    6.0910 LP  0  0  0  0  0  0  0  0  0  0  0  0  # atno 4302 bound_to 2510
   -3.2593  -17.2309   12.9820 LP  0  0  0  0  0  0  0  0  0  0  0  0  # atno 4306 bound_to 3712
   -2.6097  -18.1853   14.1368 LP  0  0  0  0  0  0  0  0  0  0  0  0  # atno 4307 bound_to 3712
    1.6731  -19.6888    8.5718 LP  0  0  0  0  0  0  0  0  0  0  0  0  # atno 4314 bound_to 3832
    3.0974  -20.4656    8.3854 LP  0  0  0  0  0  0  0  0  0  0  0  0  # atno 4315 bound_to 3832
   -4.5145  -23.2988   10.2270 LP  0  0  0  0  0  0  0  0  0  0  0  0  # atno 4318 bound_to 3762
   -5.4804  -22.0926   10.7549 LP  0  0  0  0  0  0  0  0  0  0  0  0  # atno 4319 bound_to 3762
   -4.4624   -5.4377    9.4311 LP  0  0  0  0  0  0  0  0  0  0  0  0  # atno 4320 bound_to 2467
   -5.4337   -5.0885    8.1657 LP  0  0  0  0  0  0  0  0  0  0  0  0  # atno 4321 bound_to 2467

> <Gold.Score>
     Score     S(PLP)   S(hbond)     S(cho)   S(metal)  DE(clash)   DE(tors)     intcor
     54.41     -52.68       0.67       0.00       0.00       0.00       0.97       1.65

> <Gold.PLP.Fitness>
54.4116

> <Gold.PLP.PLP>
-52.6848

> <Gold.PLP.part.hbond>
-1.0000

> <Gold.PLP.part.metal>
0.0000

> <Gold.PLP.part.buried>
-4.6709

> <Gold.PLP.part.nonpolar>
-47.2409

> <Gold.PLP.part.repulsive>
0.0743

> <Gold.PLP.ligand.clash>
0.0000

> <Gold.PLP.ligand.torsion>
0.9699

> <Gold.PLP.Chemscore.Hbond>
0.6720

> <Gold.PLP.Chemscore.CHOScore>
0.0000

> <Gold.PLP.Chemscore.Metal>
0.0000

> <Gold.Chemscore.Hbonds>
donor molecule, donor type, donor heavy atom, donor atom, acceptor molecule, acceptor atom, score
      P1  H  2456  2461       L1    14  0.67

> <Gold.PLP.Chemscore.Internal.Correction>
1.6506

