#       Name:                EN300-1897507_i001
#       Creating user name   fsindt
#       Creation time:       Wed Mar  1 14:00:33 2023


#       File generated by GOLD software.
#

@<TRIPOS>MOLECULE
EN300-1897507_i001|acide_1|mol2|8761|dock9
    24    25     1
SMALL
USER_CHARGES


@<TRIPOS>ATOM
      1 C1          -2.3957 -10.5360  10.9126 C.3            1 <1>                0.0000
      2 C2          -1.5377 -11.7432  10.6338 C.ar           1 <1>                0.0000
      3 C3          -1.3021 -12.6689  11.6324 C.ar           1 <1>                0.0000
      4 C4          -0.5146 -13.7771  11.3762 C.ar           1 <1>                0.0000
      5 Br5         -0.1922 -15.0445  12.7420 Br             1 <1>                0.0000
      6 C6           0.0367 -13.9579  10.1207 C.ar           1 <1>                0.0000
      7 C7          -0.1996 -13.0313   9.1223 C.ar           1 <1>                0.0000
      8 C8          -0.9912 -11.9272   9.3771 C.ar           1 <1>                0.0000
      9 C9           0.4008 -13.2283   7.7542 C.3            1 <1>                0.0000
     10 C10          1.1661 -14.5283   7.4991 C.3            1 <1>                0.0000
     11 C11         -0.2093 -14.3131   6.8644 C.3            1 <1>                0.0000
     12 C12          0.9076 -11.9790   7.0808 C.2            1 <1>                0.0000
     13 O13          1.0332 -10.9493   7.7215 O.co2          1 <1>                0.0000
     14 O14          1.1919 -11.9979   5.8954 O.co2          1 <1>               -1.0000
     15 H15         -1.7685  -9.7193  11.2703 H              1 <1>                0.0000
     16 H16         -2.9023 -10.2308   9.9971 H              1 <1>                0.0000
     17 H17         -3.1366 -10.7846  11.6724 H              1 <1>                0.0000
     18 H18         -1.7324 -12.5271  12.6128 H              1 <1>                0.0000
     19 H19          0.6518 -14.8227   9.9204 H              1 <1>                0.0000
     20 H20         -1.1759 -11.2038   8.5969 H              1 <1>                0.0000
     21 H21          2.0358 -14.4801   6.8439 H              1 <1>                0.0000
     22 H22          1.2352 -15.2412   8.3207 H              1 <1>                0.0000
     23 H23         -1.0451 -14.8843   7.2685 H              1 <1>                0.0000
     24 H24         -0.2444 -14.1232   5.7917 H              1 <1>                0.0000
@<TRIPOS>BOND
    1    1    2 1     
    2    1   15 1     
    3    1   16 1     
    4    1   17 1     
    5    2    3 ar    
    6    2    8 ar    
    7    3    4 ar    
    8    3   18 1     
    9    4    5 1     
   10    4    6 ar    
   11    6    7 ar    
   12    6   19 1     
   13    7    8 ar    
   14    7    9 1     
   15    8   20 1     
   16    9   10 1     
   17    9   11 1     
   18    9   12 1     
   19   10   11 1     
   20   10   21 1     
   21   10   22 1     
   22   11   23 1     
   23   11   24 1     
   24   12   13 ar    
   25   12   14 ar    
@<TRIPOS>SUBSTRUCTURE
      1 ****           1
@<TRIPOS>COMMENT
> <Gold.Version>
2022.2.0

> <Gold.Id.Protein>
3pbl|protein|mol2

> <Gold.Protein.RotatedTorsions>
[ 1303 1298 1297 1294 ] final  107.92 input  179.99 | X-H torsion
[ 2461 2456 2455 2452 ] final -149.41 input   30.03 | X-H torsion
[ 2515 2510 2509 2506 ] final  -31.30 input  -89.99 | X-H torsion
[ 3721 3712 3711 3710 ] final  -74.56 input -179.91 | X-H torsion
[ 3841 3832 3831 3830 ] final  -40.55 input -179.91 | X-H torsion
[ 3767 3762 3761 3758 ] final  176.85 input  -89.99 | X-H torsion
[ 2472 2467 2466 2463 ] final -104.69 input  -89.97 | X-H torsion

> <Gold.Protein.ActiveResidues>
 VAL82   VAL86   LEU89   PHE106  VAL107  ASP110  VAL111  MET112  CYS114  THR115 
 CYS181  SER182  ILE183  PHE188  VAL189  ILE190  SER192  SER193  SER196  TRP342 
 PHE345  PHE346  HIS349  VAL350  TYR365  THR369  GLY372  TYR373 

> <Gold.Protein.RotatedAtoms>
    4.6264   -9.9308    4.9318 H   0  0  0  0  0  0  0  0  0  0  0  0  # atno 1303 bound_to 1298
    0.9683   -9.2869    8.3027 H   0  0  0  0  0  0  0  0  0  0  0  0  # atno 2461 bound_to 2456
   -4.2570   -5.4020    9.3926 H   0  0  0  0  0  0  0  0  0  0  0  0  # atno 2472 bound_to 2467
    2.7270   -8.0428    4.3783 H   0  0  0  0  0  0  0  0  0  0  0  0  # atno 2515 bound_to 2510
   -2.9094  -17.1406   14.7491 H   0  0  0  0  0  0  0  0  0  0  0  0  # atno 3721 bound_to 3712
   -4.0672  -22.5715   11.5457 H   0  0  0  0  0  0  0  0  0  0  0  0  # atno 3767 bound_to 3762
    1.5615  -20.0096    9.2398 H   0  0  0  0  0  0  0  0  0  0  0  0  # atno 3841 bound_to 3832
    3.3409   -9.7054    3.9504 LP  0  0  0  0  0  0  0  0  0  0  0  0  # atno 4297 bound_to 1298
    4.3946   -8.4850    4.2091 LP  0  0  0  0  0  0  0  0  0  0  0  0  # atno 4298 bound_to 1298
    2.1401   -8.3040    7.7298 LP  0  0  0  0  0  0  0  0  0  0  0  0  # atno 4299 bound_to 2456
    0.6294   -8.2174    7.1159 LP  0  0  0  0  0  0  0  0  0  0  0  0  # atno 4300 bound_to 2456
    2.5236   -9.2386    5.4712 LP  0  0  0  0  0  0  0  0  0  0  0  0  # atno 4301 bound_to 2510
    2.0460   -7.7179    5.8261 LP  0  0  0  0  0  0  0  0  0  0  0  0  # atno 4302 bound_to 2510
   -3.4939  -16.7721   13.2998 LP  0  0  0  0  0  0  0  0  0  0  0  0  # atno 4306 bound_to 3712
   -2.6748  -18.1650   13.5352 LP  0  0  0  0  0  0  0  0  0  0  0  0  # atno 4307 bound_to 3712
    2.7324  -19.9436    8.1440 LP  0  0  0  0  0  0  0  0  0  0  0  0  # atno 4314 bound_to 3832
    2.6932  -21.1477    9.2463 LP  0  0  0  0  0  0  0  0  0  0  0  0  # atno 4315 bound_to 3832
   -4.6130  -23.2654   10.1719 LP  0  0  0  0  0  0  0  0  0  0  0  0  # atno 4318 bound_to 3762
   -5.4469  -22.0381   10.8538 LP  0  0  0  0  0  0  0  0  0  0  0  0  # atno 4319 bound_to 3762
   -5.4948   -5.1633    8.3547 LP  0  0  0  0  0  0  0  0  0  0  0  0  # atno 4320 bound_to 2467
   -3.9650   -4.8283    7.8920 LP  0  0  0  0  0  0  0  0  0  0  0  0  # atno 4321 bound_to 2467

> <Gold.Score>
     Score     S(PLP)   S(hbond)     S(cho)   S(metal)  DE(clash)   DE(tors)     intcor
     53.62     -51.87       0.75       0.00       0.00       0.00       1.08       1.65

> <Gold.PLP.Fitness>
53.6230

> <Gold.PLP.PLP>
-51.8695

> <Gold.PLP.part.hbond>
-0.9613

> <Gold.PLP.part.metal>
0.0000

> <Gold.PLP.part.buried>
-4.5229

> <Gold.PLP.part.nonpolar>
-47.6217

> <Gold.PLP.part.repulsive>
0.0744

> <Gold.PLP.ligand.clash>
0.0000

> <Gold.PLP.ligand.torsion>
1.0766

> <Gold.PLP.Chemscore.Hbond>
0.7520

> <Gold.PLP.Chemscore.CHOScore>
0.0000

> <Gold.PLP.Chemscore.Metal>
0.0000

> <Gold.Chemscore.Hbonds>
donor molecule, donor type, donor heavy atom, donor atom, acceptor molecule, acceptor atom, score
      P1  H  2456  2461       L1    13  0.75

> <Gold.PLP.Chemscore.Internal.Correction>
1.6506

