#       Name:                EN300-1897507_i001
#       Creating user name   fsindt
#       Creation time:       Wed Mar  1 14:00:35 2023


#       File generated by GOLD software.
#

@<TRIPOS>MOLECULE
EN300-1897507_i001|acide_1|mol2|8761|dock15
    24    25     1
SMALL
USER_CHARGES


@<TRIPOS>ATOM
      1 C1          -0.8495 -18.5088   8.8749 C.3            1 <1>                0.0000
      2 C2          -0.4921 -17.1642   9.4542 C.ar           1 <1>                0.0000
      3 C3          -0.3929 -17.0061  10.8235 C.ar           1 <1>                0.0000
      4 C4          -0.0647 -15.7717  11.3551 C.ar           1 <1>                0.0000
      5 Br5          0.0717 -15.5548  13.2286 Br             1 <1>                0.0000
      6 C6           0.1639 -14.6965  10.5158 C.ar           1 <1>                0.0000
      7 C7           0.0645 -14.8556   9.1461 C.ar           1 <1>                0.0000
      8 C8          -0.2578 -16.0904   8.6152 C.ar           1 <1>                0.0000
      9 C9           0.3138 -13.6841   8.2316 C.3            1 <1>                0.0000
     10 C10          1.3998 -13.8390   7.1651 C.3            1 <1>                0.0000
     11 C11         -0.0757 -13.8411   6.7603 C.3            1 <1>                0.0000
     12 C12          0.1409 -12.3236   8.8562 C.2            1 <1>                0.0000
     13 O13         -0.6460 -12.1702   9.7748 O.co2          1 <1>                0.0000
     14 O14          0.7879 -11.3765   8.4431 O.co2          1 <1>               -1.0000
     15 H15         -1.9325 -18.5868   8.7790 H              1 <1>                0.0000
     16 H16         -0.3892 -18.6153   7.8927 H              1 <1>                0.0000
     17 H17         -0.4855 -19.2967   9.5342 H              1 <1>                0.0000
     18 H18         -0.5720 -17.8459  11.4785 H              1 <1>                0.0000
     19 H19          0.4198 -13.7326  10.9303 H              1 <1>                0.0000
     20 H20         -0.3350 -16.2145   7.5452 H              1 <1>                0.0000
     21 H21          1.9890 -12.9567   6.9150 H              1 <1>                0.0000
     22 H22          1.9340 -14.7882   7.1249 H              1 <1>                0.0000
     23 H23         -0.5122 -14.7917   6.4539 H              1 <1>                0.0000
     24 H24         -0.4571 -12.9602   6.2440 H              1 <1>                0.0000
@<TRIPOS>BOND
    1    1    2 1     
    2    1   15 1     
    3    1   16 1     
    4    1   17 1     
    5    2    3 ar    
    6    2    8 ar    
    7    3    4 ar    
    8    3   18 1     
    9    4    5 1     
   10    4    6 ar    
   11    6    7 ar    
   12    6   19 1     
   13    7    8 ar    
   14    7    9 1     
   15    8   20 1     
   16    9   10 1     
   17    9   11 1     
   18    9   12 1     
   19   10   11 1     
   20   10   21 1     
   21   10   22 1     
   22   11   23 1     
   23   11   24 1     
   24   12   13 ar    
   25   12   14 ar    
@<TRIPOS>SUBSTRUCTURE
      1 ****           1
@<TRIPOS>COMMENT
> <Gold.Version>
2022.2.0

> <Gold.Id.Protein>
3pbl|protein|mol2

> <Gold.Protein.RotatedTorsions>
[ 1303 1298 1297 1294 ] final   28.31 input  179.99 | X-H torsion
[ 2461 2456 2455 2452 ] final -153.17 input   30.03 | X-H torsion
[ 2515 2510 2509 2506 ] final  -58.88 input  -89.99 | X-H torsion
[ 3721 3712 3711 3710 ] final   82.70 input -179.91 | X-H torsion
[ 3841 3832 3831 3830 ] final    7.96 input -179.91 | X-H torsion
[ 3767 3762 3761 3758 ] final  -96.60 input  -89.99 | X-H torsion
[ 2472 2467 2466 2463 ] final -164.98 input  -89.97 | X-H torsion

> <Gold.Protein.ActiveResidues>
 VAL82   VAL86   LEU89   PHE106  VAL107  ASP110  VAL111  MET112  CYS114  THR115 
 CYS181  SER182  ILE183  PHE188  VAL189  ILE190  SER192  SER193  SER196  TRP342 
 PHE345  PHE346  HIS349  VAL350  TYR365  THR369  GLY372  TYR373 

> <Gold.Protein.RotatedAtoms>
    3.6135  -10.1670    4.3196 H   0  0  0  0  0  0  0  0  0  0  0  0  # atno 1303 bound_to 1298
    1.0261   -9.2888    8.3247 H   0  0  0  0  0  0  0  0  0  0  0  0  # atno 2461 bound_to 2456
   -5.1832   -5.4337    9.1977 H   0  0  0  0  0  0  0  0  0  0  0  0  # atno 2472 bound_to 2467
    2.8212   -8.4822    4.3797 H   0  0  0  0  0  0  0  0  0  0  0  0  # atno 2515 bound_to 2510
   -2.7318  -17.6982   13.1547 H   0  0  0  0  0  0  0  0  0  0  0  0  # atno 3721 bound_to 3712
   -5.1509  -21.9141   11.2913 H   0  0  0  0  0  0  0  0  0  0  0  0  # atno 3767 bound_to 3762
    1.8112  -20.5751    9.5915 H   0  0  0  0  0  0  0  0  0  0  0  0  # atno 3841 bound_to 3832
    3.8484   -8.6124    3.8790 LP  0  0  0  0  0  0  0  0  0  0  0  0  # atno 4297 bound_to 1298
    4.9004   -9.3416    4.8930 LP  0  0  0  0  0  0  0  0  0  0  0  0  # atno 4298 bound_to 1298
    2.1253   -8.2642    7.6848 LP  0  0  0  0  0  0  0  0  0  0  0  0  # atno 4299 bound_to 2456
    0.5863   -8.2554    7.1388 LP  0  0  0  0  0  0  0  0  0  0  0  0  # atno 4300 bound_to 2456
    2.3311   -9.0488    5.8304 LP  0  0  0  0  0  0  0  0  0  0  0  0  # atno 4301 bound_to 2510
    2.1442   -7.4681    5.4656 LP  0  0  0  0  0  0  0  0  0  0  0  0  # atno 4302 bound_to 2510
   -2.8110  -17.7375   14.7578 LP  0  0  0  0  0  0  0  0  0  0  0  0  # atno 4306 bound_to 3712
   -3.5628  -16.5559   13.9179 LP  0  0  0  0  0  0  0  0  0  0  0  0  # atno 4307 bound_to 3712
    2.0264  -19.6373    8.3069 LP  0  0  0  0  0  0  0  0  0  0  0  0  # atno 4314 bound_to 3832
    3.1108  -20.8007    8.6771 LP  0  0  0  0  0  0  0  0  0  0  0  0  # atno 4315 bound_to 3832
   -3.9086  -22.9713   11.2148 LP  0  0  0  0  0  0  0  0  0  0  0  0  # atno 4318 bound_to 3762
   -5.0681  -22.9894   10.0651 LP  0  0  0  0  0  0  0  0  0  0  0  0  # atno 4319 bound_to 3762
   -4.8831   -4.8596    7.6988 LP  0  0  0  0  0  0  0  0  0  0  0  0  # atno 4320 bound_to 2467
   -3.6508   -5.1003    8.7428 LP  0  0  0  0  0  0  0  0  0  0  0  0  # atno 4321 bound_to 2467

> <Gold.Score>
     Score     S(PLP)   S(hbond)     S(cho)   S(metal)  DE(clash)   DE(tors)     intcor
     45.01     -42.12       0.99       0.00       0.00       0.00       0.87       1.65

> <Gold.PLP.Fitness>
45.0059

> <Gold.PLP.PLP>
-42.1212

> <Gold.PLP.part.hbond>
-1.0000

> <Gold.PLP.part.metal>
0.0000

> <Gold.PLP.part.buried>
-3.3827

> <Gold.PLP.part.nonpolar>
-38.3550

> <Gold.PLP.part.repulsive>
0.0000

> <Gold.PLP.ligand.clash>
0.0000

> <Gold.PLP.ligand.torsion>
0.8698

> <Gold.PLP.Chemscore.Hbond>
0.9913

> <Gold.PLP.Chemscore.CHOScore>
0.0000

> <Gold.PLP.Chemscore.Metal>
0.0000

> <Gold.Chemscore.Hbonds>
donor molecule, donor type, donor heavy atom, donor atom, acceptor molecule, acceptor atom, score
      P1  H  2456  2461       L1    14  0.99

> <Gold.PLP.Chemscore.Internal.Correction>
1.6506

