#       Name:                EN300-1897507_i001
#       Creating user name   fsindt
#       Creation time:       Wed Mar  1 14:00:33 2023


#       File generated by GOLD software.
#

@<TRIPOS>MOLECULE
EN300-1897507_i001|acide_1|mol2|8761|dock7
    24    25     1
SMALL
USER_CHARGES


@<TRIPOS>ATOM
      1 C1           0.4600 -13.7317   6.9153 C.3            1 <1>                0.0000
      2 C2           0.0892 -13.5633   8.3663 C.ar           1 <1>                0.0000
      3 C3           0.3152 -14.5919   9.2611 C.ar           1 <1>                0.0000
      4 C4          -0.0251 -14.4370  10.5930 C.ar           1 <1>                0.0000
      5 Br5          0.2844 -15.8439  11.8181 Br             1 <1>                0.0000
      6 C6          -0.5915 -13.2528  11.0285 C.ar           1 <1>                0.0000
      7 C7          -0.8172 -12.2243  10.1326 C.ar           1 <1>                0.0000
      8 C8          -0.4718 -12.3774   8.8031 C.ar           1 <1>                0.0000
      9 C9          -1.4343 -10.9339  10.6070 C.3            1 <1>                0.0000
     10 C10         -1.4823 -10.6866  12.1161 C.3            1 <1>                0.0000
     11 C11         -0.5048  -9.8980  11.2423 C.3            1 <1>                0.0000
     12 C12         -2.5862 -10.4220   9.7810 C.2            1 <1>                0.0000
     13 O13         -2.5387  -9.3049   9.2949 O.co2          1 <1>                0.0000
     14 O14         -3.5655 -11.1250   9.5988 O.co2          1 <1>               -1.0000
     15 H15         -0.3870 -14.1482   6.3699 H              1 <1>                0.0000
     16 H16          0.7230 -12.7622   6.4925 H              1 <1>                0.0000
     17 H17          1.3118 -14.4068   6.8341 H              1 <1>                0.0000
     18 H18          0.7572 -15.5166   8.9206 H              1 <1>                0.0000
     19 H19         -0.8578 -13.1316  12.0681 H              1 <1>                0.0000
     20 H20         -0.6479 -11.5737   8.1036 H              1 <1>                0.0000
     21 H21         -2.3468 -10.1533  12.5114 H              1 <1>                0.0000
     22 H22         -1.0675 -11.4571  12.7658 H              1 <1>                0.0000
     23 H23          0.5531 -10.1498  11.3172 H              1 <1>                0.0000
     24 H24         -0.7263  -8.8459  11.0628 H              1 <1>                0.0000
@<TRIPOS>BOND
    1    1    2 1     
    2    1   15 1     
    3    1   16 1     
    4    1   17 1     
    5    2    3 ar    
    6    2    8 ar    
    7    3    4 ar    
    8    3   18 1     
    9    4    5 1     
   10    4    6 ar    
   11    6    7 ar    
   12    6   19 1     
   13    7    8 ar    
   14    7    9 1     
   15    8   20 1     
   16    9   10 1     
   17    9   11 1     
   18    9   12 1     
   19   10   11 1     
   20   10   21 1     
   21   10   22 1     
   22   11   23 1     
   23   11   24 1     
   24   12   13 ar    
   25   12   14 ar    
@<TRIPOS>SUBSTRUCTURE
      1 ****           1
@<TRIPOS>COMMENT
> <Gold.Version>
2022.2.0

> <Gold.Id.Protein>
3pbl|protein|mol2

> <Gold.Protein.RotatedTorsions>
[ 1303 1298 1297 1294 ] final -151.51 input  179.99 | X-H torsion
[ 2461 2456 2455 2452 ] final  -97.75 input   30.03 | X-H torsion
[ 2515 2510 2509 2506 ] final  165.86 input  -89.99 | X-H torsion
[ 3721 3712 3711 3710 ] final   -8.29 input -179.91 | X-H torsion
[ 3841 3832 3831 3830 ] final   29.85 input -179.91 | X-H torsion
[ 3767 3762 3761 3758 ] final  -85.44 input  -89.99 | X-H torsion
[ 2472 2467 2466 2463 ] final  139.24 input  -89.97 | X-H torsion

> <Gold.Protein.ActiveResidues>
 VAL82   VAL86   LEU89   PHE106  VAL107  ASP110  VAL111  MET112  CYS114  THR115 
 CYS181  SER182  ILE183  PHE188  VAL189  ILE190  SER192  SER193  SER196  TRP342 
 PHE345  PHE346  HIS349  VAL350  TYR365  THR369  GLY372  TYR373 

> <Gold.Protein.RotatedAtoms>
    4.6256   -8.5790    4.4067 H   0  0  0  0  0  0  0  0  0  0  0  0  # atno 1303 bound_to 1298
    0.3894   -8.9879    7.8018 H   0  0  0  0  0  0  0  0  0  0  0  0  # atno 2461 bound_to 2456
   -5.5042   -5.1866    8.4142 H   0  0  0  0  0  0  0  0  0  0  0  0  # atno 2472 bound_to 2467
    2.2321   -8.8693    5.9738 H   0  0  0  0  0  0  0  0  0  0  0  0  # atno 2515 bound_to 2510
   -2.5087  -17.9016   14.3527 H   0  0  0  0  0  0  0  0  0  0  0  0  # atno 3721 bound_to 3712
   -5.2721  -21.9295   11.1546 H   0  0  0  0  0  0  0  0  0  0  0  0  # atno 3767 bound_to 3762
    2.0641  -20.7829    9.6210 H   0  0  0  0  0  0  0  0  0  0  0  0  # atno 3841 bound_to 3832
    4.3956  -10.1337    4.8495 LP  0  0  0  0  0  0  0  0  0  0  0  0  # atno 4297 bound_to 1298
    3.3408   -9.4089    3.8353 LP  0  0  0  0  0  0  0  0  0  0  0  0  # atno 4298 bound_to 1298
    1.9540   -8.9018    8.2619 LP  0  0  0  0  0  0  0  0  0  0  0  0  # atno 4299 bound_to 2456
    1.3941   -7.9187    7.0844 LP  0  0  0  0  0  0  0  0  0  0  0  0  # atno 4300 bound_to 2456
    2.2288   -7.4125    5.2366 LP  0  0  0  0  0  0  0  0  0  0  0  0  # atno 4301 bound_to 2510
    2.8359   -8.7171    4.4645 LP  0  0  0  0  0  0  0  0  0  0  0  0  # atno 4302 bound_to 2510
   -3.4849  -16.6270   14.3363 LP  0  0  0  0  0  0  0  0  0  0  0  0  # atno 4306 bound_to 3712
   -3.1465  -17.4317   12.9562 LP  0  0  0  0  0  0  0  0  0  0  0  0  # atno 4307 bound_to 3712
    1.7309  -19.6670    8.5165 LP  0  0  0  0  0  0  0  0  0  0  0  0  # atno 4314 bound_to 3832
    3.1141  -20.5309    8.4335 LP  0  0  0  0  0  0  0  0  0  0  0  0  # atno 4315 bound_to 3832
   -3.9330  -22.8447   11.3451 LP  0  0  0  0  0  0  0  0  0  0  0  0  # atno 4318 bound_to 3762
   -4.9225  -23.1005   10.0714 LP  0  0  0  0  0  0  0  0  0  0  0  0  # atno 4319 bound_to 3762
   -4.0155   -4.8195    7.8523 LP  0  0  0  0  0  0  0  0  0  0  0  0  # atno 4320 bound_to 2467
   -4.1974   -5.3874    9.3726 LP  0  0  0  0  0  0  0  0  0  0  0  0  # atno 4321 bound_to 2467

> <Gold.Score>
     Score     S(PLP)   S(hbond)     S(cho)   S(metal)  DE(clash)   DE(tors)     intcor
     47.91     -48.90       0.00       0.00       0.00       0.00       1.32       1.65

> <Gold.PLP.Fitness>
47.9095

> <Gold.PLP.PLP>
-48.9032

> <Gold.PLP.part.hbond>
-0.8805

> <Gold.PLP.part.metal>
0.0000

> <Gold.PLP.part.buried>
-5.5402

> <Gold.PLP.part.nonpolar>
-44.1447

> <Gold.PLP.part.repulsive>
0.6558

> <Gold.PLP.ligand.clash>
0.0000

> <Gold.PLP.ligand.torsion>
1.3221

> <Gold.PLP.Chemscore.Hbond>
0.0000

> <Gold.PLP.Chemscore.CHOScore>
0.0000

> <Gold.PLP.Chemscore.Metal>
0.0000

> <Gold.PLP.Chemscore.Internal.Correction>
1.6506

