#       Name:                EN300-1897507_i001
#       Creating user name   fsindt
#       Creation time:       Wed Mar  1 14:00:36 2023


#       File generated by GOLD software.
#

@<TRIPOS>MOLECULE
EN300-1897507_i001|acide_1|mol2|8761|dock20
    24    25     1
SMALL
USER_CHARGES


@<TRIPOS>ATOM
      1 C1           1.3477 -14.5346   8.0480 C.3            1 <1>                0.0000
      2 C2           0.7044 -14.3359   9.3963 C.ar           1 <1>                0.0000
      3 C3          -0.1197 -13.2483   9.6150 C.ar           1 <1>                0.0000
      4 C4          -0.7102 -13.0661  10.8527 C.ar           1 <1>                0.0000
      5 Br5         -1.8385 -11.5785  11.1526 Br             1 <1>                0.0000
      6 C6          -0.4754 -13.9724  11.8707 C.ar           1 <1>                0.0000
      7 C7           0.3492 -15.0601  11.6509 C.ar           1 <1>                0.0000
      8 C8           0.9344 -15.2448  10.4125 C.ar           1 <1>                0.0000
      9 C9           0.6050 -16.0477  12.7600 C.3            1 <1>                0.0000
     10 C10          1.9928 -16.6881  12.8296 C.3            1 <1>                0.0000
     11 C11          1.5835 -15.6352  13.8616 C.3            1 <1>                0.0000
     12 C12         -0.5741 -16.8974  13.1585 C.2            1 <1>                0.0000
     13 O13         -0.8399 -17.0566  14.3377 O.co2          1 <1>                0.0000
     14 O14         -1.2621 -17.4257  12.3018 O.co2          1 <1>               -1.0000
     15 H15          2.3135 -14.0296   8.0283 H              1 <1>                0.0000
     16 H16          1.4910 -15.5998   7.8672 H              1 <1>                0.0000
     17 H17          0.7039 -14.1179   7.2734 H              1 <1>                0.0000
     18 H18         -0.3025 -12.5406   8.8199 H              1 <1>                0.0000
     19 H19         -0.9359 -13.8304  12.8373 H              1 <1>                0.0000
     20 H20          1.5782 -16.0948  10.2410 H              1 <1>                0.0000
     21 H21          2.0530 -17.7238  13.1639 H              1 <1>                0.0000
     22 H22          2.7208 -16.3949  12.0732 H              1 <1>                0.0000
     23 H23          2.0421 -14.6495  13.7841 H              1 <1>                0.0000
     24 H24          1.3743 -15.9784  14.8748 H              1 <1>                0.0000
@<TRIPOS>BOND
    1    1    2 1     
    2    1   15 1     
    3    1   16 1     
    4    1   17 1     
    5    2    3 ar    
    6    2    8 ar    
    7    3    4 ar    
    8    3   18 1     
    9    4    5 1     
   10    4    6 ar    
   11    6    7 ar    
   12    6   19 1     
   13    7    8 ar    
   14    7    9 1     
   15    8   20 1     
   16    9   10 1     
   17    9   11 1     
   18    9   12 1     
   19   10   11 1     
   20   10   21 1     
   21   10   22 1     
   22   11   23 1     
   23   11   24 1     
   24   12   13 ar    
   25   12   14 ar    
@<TRIPOS>SUBSTRUCTURE
      1 ****           1
@<TRIPOS>COMMENT
> <Gold.Version>
2022.2.0

> <Gold.Id.Protein>
3pbl|protein|mol2

> <Gold.Protein.RotatedTorsions>
[ 1303 1298 1297 1294 ] final  113.18 input  179.99 | X-H torsion
[ 2461 2456 2455 2452 ] final   75.61 input   30.03 | X-H torsion
[ 2515 2510 2509 2506 ] final  173.73 input  -89.99 | X-H torsion
[ 3721 3712 3711 3710 ] final   75.72 input -179.91 | X-H torsion
[ 3841 3832 3831 3830 ] final  147.68 input -179.91 | X-H torsion
[ 3767 3762 3761 3758 ] final  -13.51 input  -89.99 | X-H torsion
[ 2472 2467 2466 2463 ] final  -54.52 input  -89.97 | X-H torsion

> <Gold.Protein.ActiveResidues>
 VAL82   VAL86   LEU89   PHE106  VAL107  ASP110  VAL111  MET112  CYS114  THR115 
 CYS181  SER182  ILE183  PHE188  VAL189  ILE190  SER192  SER193  SER196  TRP342 
 PHE345  PHE346  HIS349  VAL350  TYR365  THR369  GLY372  TYR373 

> <Gold.Protein.RotatedAtoms>
    4.6800   -9.8639    4.9431 H   0  0  0  0  0  0  0  0  0  0  0  0  # atno 1303 bound_to 1298
    2.0593   -8.1544    7.5522 H   0  0  0  0  0  0  0  0  0  0  0  0  # atno 2461 bound_to 2456
   -3.6920   -5.1562    8.8831 H   0  0  0  0  0  0  0  0  0  0  0  0  # atno 2472 bound_to 2467
    2.2820   -8.9673    5.9057 H   0  0  0  0  0  0  0  0  0  0  0  0  # atno 2515 bound_to 2510
   -2.6846  -17.7713   13.2143 H   0  0  0  0  0  0  0  0  0  0  0  0  # atno 3721 bound_to 3712
   -5.4267  -22.5495   10.2499 H   0  0  0  0  0  0  0  0  0  0  0  0  # atno 3767 bound_to 3762
    3.1279  -20.4332    8.6492 H   0  0  0  0  0  0  0  0  0  0  0  0  # atno 3841 bound_to 3832
    3.3565   -9.7804    3.9904 LP  0  0  0  0  0  0  0  0  0  0  0  0  # atno 4297 bound_to 1298
    4.3255   -8.4768    4.1579 LP  0  0  0  0  0  0  0  0  0  0  0  0  # atno 4298 bound_to 1298
    0.4755   -8.3771    7.2217 LP  0  0  0  0  0  0  0  0  0  0  0  0  # atno 4299 bound_to 2456
    1.2032   -9.2765    8.3742 LP  0  0  0  0  0  0  0  0  0  0  0  0  # atno 4300 bound_to 2456
    2.1830   -7.4332    5.3558 LP  0  0  0  0  0  0  0  0  0  0  0  0  # atno 4301 bound_to 2510
    2.8318   -8.5983    4.4134 LP  0  0  0  0  0  0  0  0  0  0  0  0  # atno 4302 bound_to 2510
   -2.8609  -17.6433   14.8050 LP  0  0  0  0  0  0  0  0  0  0  0  0  # atno 4306 bound_to 3712
   -3.5674  -16.5658   13.8019 LP  0  0  0  0  0  0  0  0  0  0  0  0  # atno 4307 bound_to 3712
    1.8948  -20.9317    9.5474 LP  0  0  0  0  0  0  0  0  0  0  0  0  # atno 4314 bound_to 3832
    1.7214  -19.6701    8.5252 LP  0  0  0  0  0  0  0  0  0  0  0  0  # atno 4315 bound_to 3832
   -4.6606  -22.0509   11.6032 LP  0  0  0  0  0  0  0  0  0  0  0  0  # atno 4318 bound_to 3762
   -4.0403  -23.2747   10.7177 LP  0  0  0  0  0  0  0  0  0  0  0  0  # atno 4319 bound_to 3762
   -5.2926   -5.4058    9.0891 LP  0  0  0  0  0  0  0  0  0  0  0  0  # atno 4320 bound_to 2467
   -4.7321   -4.8315    7.6669 LP  0  0  0  0  0  0  0  0  0  0  0  0  # atno 4321 bound_to 2467

> <Gold.Score>
     Score     S(PLP)   S(hbond)     S(cho)   S(metal)  DE(clash)   DE(tors)     intcor
     41.74     -39.54       1.00       0.00       0.00       0.00       1.23       1.65

> <Gold.PLP.Fitness>
41.7361

> <Gold.PLP.PLP>
-39.5367

> <Gold.PLP.part.hbond>
-1.9119

> <Gold.PLP.part.metal>
0.0000

> <Gold.PLP.part.buried>
1.6962

> <Gold.PLP.part.nonpolar>
-40.4999

> <Gold.PLP.part.repulsive>
0.1044

> <Gold.PLP.ligand.clash>
0.0000

> <Gold.PLP.ligand.torsion>
1.2256

> <Gold.PLP.Chemscore.Hbond>
1.0000

> <Gold.PLP.Chemscore.CHOScore>
0.0000

> <Gold.PLP.Chemscore.Metal>
0.0000

> <Gold.Chemscore.Hbonds>
donor molecule, donor type, donor heavy atom, donor atom, acceptor molecule, acceptor atom, score
      P1  H  3712  3721       L1    14  1.00

> <Gold.PLP.Chemscore.Internal.Correction>
1.6506

