#       Name:                EN300-1897507_i001
#       Creating user name   fsindt
#       Creation time:       Wed Mar  1 14:00:34 2023


#       File generated by GOLD software.
#

@<TRIPOS>MOLECULE
EN300-1897507_i001|acide_1|mol2|8761|dock13
    24    25     1
SMALL
USER_CHARGES


@<TRIPOS>ATOM
      1 C1          -0.1029 -16.0148   8.2197 C.3            1 <1>                0.0000
      2 C2           0.0788 -14.5190   8.1930 C.ar           1 <1>                0.0000
      3 C3           0.6732 -13.9145   7.1016 C.ar           1 <1>                0.0000
      4 C4           0.8398 -12.5414   7.0773 C.ar           1 <1>                0.0000
      5 Br5          1.6525 -11.7136   5.5840 Br             1 <1>                0.0000
      6 C6           0.4115 -11.7742   8.1454 C.ar           1 <1>                0.0000
      7 C7          -0.1830 -12.3798   9.2367 C.ar           1 <1>                0.0000
      8 C8          -0.3545 -13.7511   9.2581 C.ar           1 <1>                0.0000
      9 C9          -0.6499 -11.5439  10.4005 C.3            1 <1>                0.0000
     10 C10         -2.1584 -11.4323  10.6301 C.3            1 <1>                0.0000
     11 C11         -1.3004 -12.2728  11.5779 C.3            1 <1>                0.0000
     12 C12          0.1925 -10.3334  10.7106 C.2            1 <1>                0.0000
     13 O13         -0.2442  -9.4566  11.4366 O.co2          1 <1>                0.0000
     14 O14          1.3106 -10.2308  10.2356 O.co2          1 <1>               -1.0000
     15 H15          0.7743 -16.4794   8.6701 H              1 <1>                0.0000
     16 H16         -0.9872 -16.2631   8.8065 H              1 <1>                0.0000
     17 H17         -0.2270 -16.3839   7.2016 H              1 <1>                0.0000
     18 H18          1.0079 -14.5141   6.2680 H              1 <1>                0.0000
     19 H19          0.5417 -10.7022   8.1270 H              1 <1>                0.0000
     20 H20         -0.8193 -14.2238  10.1106 H              1 <1>                0.0000
     21 H21         -2.5415 -10.4836  11.0058 H              1 <1>                0.0000
     22 H22         -2.8132 -11.9636   9.9394 H              1 <1>                0.0000
     23 H23         -1.3907 -13.3570  11.5108 H              1 <1>                0.0000
     24 H24         -1.1190 -11.8769  12.5771 H              1 <1>                0.0000
@<TRIPOS>BOND
    1    1    2 1     
    2    1   15 1     
    3    1   16 1     
    4    1   17 1     
    5    2    3 ar    
    6    2    8 ar    
    7    3    4 ar    
    8    3   18 1     
    9    4    5 1     
   10    4    6 ar    
   11    6    7 ar    
   12    6   19 1     
   13    7    8 ar    
   14    7    9 1     
   15    8   20 1     
   16    9   10 1     
   17    9   11 1     
   18    9   12 1     
   19   10   11 1     
   20   10   21 1     
   21   10   22 1     
   22   11   23 1     
   23   11   24 1     
   24   12   13 ar    
   25   12   14 ar    
@<TRIPOS>SUBSTRUCTURE
      1 ****           1
@<TRIPOS>COMMENT
> <Gold.Version>
2022.2.0

> <Gold.Id.Protein>
3pbl|protein|mol2

> <Gold.Protein.RotatedTorsions>
[ 1303 1298 1297 1294 ] final -172.63 input  179.99 | X-H torsion
[ 2461 2456 2455 2452 ] final -173.17 input   30.03 | X-H torsion
[ 2515 2510 2509 2506 ] final  100.31 input  -89.99 | X-H torsion
[ 3721 3712 3711 3710 ] final -157.39 input -179.91 | X-H torsion
[ 3841 3832 3831 3830 ] final  -59.43 input -179.91 | X-H torsion
[ 3767 3762 3761 3758 ] final   -5.21 input  -89.99 | X-H torsion
[ 2472 2467 2466 2463 ] final   92.85 input  -89.97 | X-H torsion

> <Gold.Protein.ActiveResidues>
 VAL82   VAL86   LEU89   PHE106  VAL107  ASP110  VAL111  MET112  CYS114  THR115 
 CYS181  SER182  ILE183  PHE188  VAL189  ILE190  SER192  SER193  SER196  TRP342 
 PHE345  PHE346  HIS349  VAL350  TYR365  THR369  GLY372  TYR373 

> <Gold.Protein.RotatedAtoms>
    4.8112   -8.7832    4.6149 H   0  0  0  0  0  0  0  0  0  0  0  0  # atno 1303 bound_to 1298
    1.3433   -9.2491    8.3958 H   0  0  0  0  0  0  0  0  0  0  0  0  # atno 2461 bound_to 2456
   -5.1390   -4.9321    7.8196 H   0  0  0  0  0  0  0  0  0  0  0  0  # atno 2472 bound_to 2467
    2.0305   -7.8696    5.9407 H   0  0  0  0  0  0  0  0  0  0  0  0  # atno 2515 bound_to 2510
   -3.3361  -16.5314   13.8773 H   0  0  0  0  0  0  0  0  0  0  0  0  # atno 3721 bound_to 3712
   -5.3675  -22.6523   10.1825 H   0  0  0  0  0  0  0  0  0  0  0  0  # atno 3767 bound_to 3762
    1.6105  -19.8170    9.0371 H   0  0  0  0  0  0  0  0  0  0  0  0  # atno 3841 bound_to 3832
    4.1096  -10.2553    4.6980 LP  0  0  0  0  0  0  0  0  0  0  0  0  # atno 4297 bound_to 1298
    3.4411   -9.0830    3.7786 LP  0  0  0  0  0  0  0  0  0  0  0  0  # atno 4298 bound_to 1298
    1.9854   -8.0806    7.4526 LP  0  0  0  0  0  0  0  0  0  0  0  0  # atno 4299 bound_to 2456
    0.4091   -8.4786    7.2999 LP  0  0  0  0  0  0  0  0  0  0  0  0  # atno 4300 bound_to 2456
    2.6654   -7.8719    4.4365 LP  0  0  0  0  0  0  0  0  0  0  0  0  # atno 4301 bound_to 2510
    2.6009   -9.2578    5.2978 LP  0  0  0  0  0  0  0  0  0  0  0  0  # atno 4302 bound_to 2510
   -2.8845  -17.8656   13.1068 LP  0  0  0  0  0  0  0  0  0  0  0  0  # atno 4306 bound_to 3712
   -2.7917  -17.7749   14.7347 LP  0  0  0  0  0  0  0  0  0  0  0  0  # atno 4307 bound_to 3712
    2.9428  -20.1661    8.2129 LP  0  0  0  0  0  0  0  0  0  0  0  0  # atno 4314 bound_to 3832
    2.4263  -21.1476    9.4115 LP  0  0  0  0  0  0  0  0  0  0  0  0  # atno 4315 bound_to 3832
   -4.7767  -21.9965   11.5564 LP  0  0  0  0  0  0  0  0  0  0  0  0  # atno 4318 bound_to 3762
   -3.9834  -23.2263   10.8319 LP  0  0  0  0  0  0  0  0  0  0  0  0  # atno 4319 bound_to 3762
   -3.6419   -5.0004    8.4682 LP  0  0  0  0  0  0  0  0  0  0  0  0  # atno 4320 bound_to 2467
   -4.9361   -5.4610    9.3512 LP  0  0  0  0  0  0  0  0  0  0  0  0  # atno 4321 bound_to 2467

> <Gold.Score>
     Score     S(PLP)   S(hbond)     S(cho)   S(metal)  DE(clash)   DE(tors)     intcor
     49.75     -47.46       0.88       0.00       0.00       0.02       0.99       1.65

> <Gold.PLP.Fitness>
49.7549

> <Gold.PLP.PLP>
-47.4582

> <Gold.PLP.part.hbond>
-1.0000

> <Gold.PLP.part.metal>
0.0000

> <Gold.PLP.part.buried>
-2.4817

> <Gold.PLP.part.nonpolar>
-45.7734

> <Gold.PLP.part.repulsive>
0.1111

> <Gold.PLP.ligand.clash>
0.0199

> <Gold.PLP.ligand.torsion>
0.9870

> <Gold.PLP.Chemscore.Hbond>
0.8800

> <Gold.PLP.Chemscore.CHOScore>
0.0000

> <Gold.PLP.Chemscore.Metal>
0.0000

> <Gold.Chemscore.Hbonds>
donor molecule, donor type, donor heavy atom, donor atom, acceptor molecule, acceptor atom, score
      P1  H  2456  2461       L1    14  0.88

> <Gold.PLP.Chemscore.Internal.Correction>
1.6506

