#       Name:                EN300-1897507_i001
#       Creating user name   fsindt
#       Creation time:       Wed Mar  1 14:00:36 2023


#       File generated by GOLD software.
#

@<TRIPOS>MOLECULE
EN300-1897507_i001|acide_1|mol2|8761|dock19
    24    25     1
SMALL
USER_CHARGES


@<TRIPOS>ATOM
      1 C1          -0.9335 -18.4726   9.1627 C.3            1 <1>                0.0000
      2 C2          -0.4602 -18.9192  10.5219 C.ar           1 <1>                0.0000
      3 C3          -0.4885 -20.2595  10.8575 C.ar           1 <1>                0.0000
      4 C4          -0.0538 -20.6693  12.1053 C.ar           1 <1>                0.0000
      5 Br5         -0.0918 -22.5032  12.5648 Br             1 <1>                0.0000
      6 C6           0.4088 -19.7374  13.0164 C.ar           1 <1>                0.0000
      7 C7           0.4368 -18.3968  12.6799 C.ar           1 <1>                0.0000
      8 C8           0.0078 -17.9885  11.4310 C.ar           1 <1>                0.0000
      9 C9           0.9410 -17.3813  13.6726 C.3            1 <1>                0.0000
     10 C10          2.3289 -17.6103  14.2745 C.3            1 <1>                0.0000
     11 C11          2.1153 -16.4984  13.2454 C.3            1 <1>                0.0000
     12 C12         -0.1086 -16.7626  14.5595 C.2            1 <1>                0.0000
     13 O13         -0.9334 -17.4701  15.1125 O.co2          1 <1>                0.0000
     14 O14         -0.1329 -15.5549  14.7242 O.co2          1 <1>               -1.0000
     15 H15         -2.0003 -18.2525   9.2038 H              1 <1>                0.0000
     16 H16         -0.3890 -17.5768   8.8644 H              1 <1>                0.0000
     17 H17         -0.7539 -19.2656   8.4368 H              1 <1>                0.0000
     18 H18         -0.8503 -20.9869  10.1458 H              1 <1>                0.0000
     19 H19          0.7479 -20.0568  13.9908 H              1 <1>                0.0000
     20 H20          0.0301 -16.9412  11.1683 H              1 <1>                0.0000
     21 H21          2.4829 -17.3132  15.3118 H              1 <1>                0.0000
     22 H22          2.8773 -18.4954  13.9524 H              1 <1>                0.0000
     23 H23          2.5232 -16.6520  12.2463 H              1 <1>                0.0000
     24 H24          2.1287 -15.4698  13.6058 H              1 <1>                0.0000
@<TRIPOS>BOND
    1    1    2 1     
    2    1   15 1     
    3    1   16 1     
    4    1   17 1     
    5    2    3 ar    
    6    2    8 ar    
    7    3    4 ar    
    8    3   18 1     
    9    4    5 1     
   10    4    6 ar    
   11    6    7 ar    
   12    6   19 1     
   13    7    8 ar    
   14    7    9 1     
   15    8   20 1     
   16    9   10 1     
   17    9   11 1     
   18    9   12 1     
   19   10   11 1     
   20   10   21 1     
   21   10   22 1     
   22   11   23 1     
   23   11   24 1     
   24   12   13 ar    
   25   12   14 ar    
@<TRIPOS>SUBSTRUCTURE
      1 ****           1
@<TRIPOS>COMMENT
> <Gold.Version>
2022.2.0

> <Gold.Id.Protein>
3pbl|protein|mol2

> <Gold.Protein.RotatedTorsions>
[ 1303 1298 1297 1294 ] final   -0.92 input  179.99 | X-H torsion
[ 2461 2456 2455 2452 ] final  -88.63 input   30.03 | X-H torsion
[ 2515 2510 2509 2506 ] final  123.71 input  -89.99 | X-H torsion
[ 3721 3712 3711 3710 ] final  -29.43 input -179.91 | X-H torsion
[ 3841 3832 3831 3830 ] final   15.34 input -179.91 | X-H torsion
[ 3767 3762 3761 3758 ] final -126.41 input  -89.99 | X-H torsion
[ 2472 2467 2466 2463 ] final -118.71 input  -89.97 | X-H torsion

> <Gold.Protein.ActiveResidues>
 VAL82   VAL86   LEU89   PHE106  VAL107  ASP110  VAL111  MET112  CYS114  THR115 
 CYS181  SER182  ILE183  PHE188  VAL189  ILE190  SER192  SER193  SER196  TRP342 
 PHE345  PHE346  HIS349  VAL350  TYR365  THR369  GLY372  TYR373 

> <Gold.Protein.RotatedAtoms>
    3.3815   -9.8604    4.0394 H   0  0  0  0  0  0  0  0  0  0  0  0  # atno 1303 bound_to 1298
    0.3489   -8.8930    7.6930 H   0  0  0  0  0  0  0  0  0  0  0  0  # atno 2461 bound_to 2456
   -4.4804   -5.4408    9.4321 H   0  0  0  0  0  0  0  0  0  0  0  0  # atno 2472 bound_to 2467
    2.0488   -8.2253    6.0792 H   0  0  0  0  0  0  0  0  0  0  0  0  # atno 2515 bound_to 2510
   -2.6000  -17.7060   14.5859 H   0  0  0  0  0  0  0  0  0  0  0  0  # atno 3721 bound_to 3712
   -4.7596  -22.0029   11.5639 H   0  0  0  0  0  0  0  0  0  0  0  0  # atno 3767 bound_to 3762
    1.8894  -20.6517    9.6117 H   0  0  0  0  0  0  0  0  0  0  0  0  # atno 3841 bound_to 3832
    4.2460   -8.4766    4.1025 LP  0  0  0  0  0  0  0  0  0  0  0  0  # atno 4297 bound_to 1298
    4.7350   -9.7841    4.9497 LP  0  0  0  0  0  0  0  0  0  0  0  0  # atno 4298 bound_to 1298
    1.8532   -8.9958    8.3207 LP  0  0  0  0  0  0  0  0  0  0  0  0  # atno 4299 bound_to 2456
    1.5354   -7.9194    7.1345 LP  0  0  0  0  0  0  0  0  0  0  0  0  # atno 4300 bound_to 2456
    2.5155   -7.5916    4.6487 LP  0  0  0  0  0  0  0  0  0  0  0  0  # atno 4301 bound_to 2510
    2.7327   -9.1823    4.9469 LP  0  0  0  0  0  0  0  0  0  0  0  0  # atno 4302 bound_to 2510
   -3.5553  -16.5564   13.9996 LP  0  0  0  0  0  0  0  0  0  0  0  0  # atno 4306 bound_to 3712
   -2.9707  -17.7280   13.0238 LP  0  0  0  0  0  0  0  0  0  0  0  0  # atno 4307 bound_to 3712
    1.9207  -19.6350    8.3702 LP  0  0  0  0  0  0  0  0  0  0  0  0  # atno 4314 bound_to 3832
    3.1260  -20.7145    8.5904 LP  0  0  0  0  0  0  0  0  0  0  0  0  # atno 4315 bound_to 3832
   -3.9906  -23.2340   10.8155 LP  0  0  0  0  0  0  0  0  0  0  0  0  # atno 4318 bound_to 3762
   -5.3772  -22.6379   10.1919 LP  0  0  0  0  0  0  0  0  0  0  0  0  # atno 4319 bound_to 3762
   -5.4265   -5.0822    8.1505 LP  0  0  0  0  0  0  0  0  0  0  0  0  # atno 4320 bound_to 2467
   -3.8100   -4.8706    8.0567 LP  0  0  0  0  0  0  0  0  0  0  0  0  # atno 4321 bound_to 2467

> <Gold.Score>
     Score     S(PLP)   S(hbond)     S(cho)   S(metal)  DE(clash)   DE(tors)     intcor
     43.19     -37.55       2.00       0.00       0.00       0.00       1.01       1.65

> <Gold.PLP.Fitness>
43.1861

> <Gold.PLP.PLP>
-37.5475

> <Gold.PLP.part.hbond>
-2.0000

> <Gold.PLP.part.metal>
0.0000

> <Gold.PLP.part.buried>
-3.7823

> <Gold.PLP.part.nonpolar>
-33.1220

> <Gold.PLP.part.repulsive>
0.1375

> <Gold.PLP.ligand.clash>
0.0000

> <Gold.PLP.ligand.torsion>
1.0060

> <Gold.PLP.Chemscore.Hbond>
2.0000

> <Gold.PLP.Chemscore.CHOScore>
0.0000

> <Gold.PLP.Chemscore.Metal>
0.0000

> <Gold.Chemscore.Hbonds>
donor molecule, donor type, donor heavy atom, donor atom, acceptor molecule, acceptor atom, score
      P1  H  2305  2313       L1    14  1.00
      P1  H  3712  3721       L1    13  1.00

> <Gold.PLP.Chemscore.Internal.Correction>
1.6506

