#       Name:                EN300-1897507_i001
#       Creating user name   fsindt
#       Creation time:       Wed Mar  1 14:00:32 2023


#       File generated by GOLD software.
#

@<TRIPOS>MOLECULE
EN300-1897507_i001|acide_1|mol2|8761|dock5
    24    25     1
SMALL
USER_CHARGES


@<TRIPOS>ATOM
      1 C1           0.1941 -15.4113  11.3475 C.3            1 <1>                0.0000
      2 C2          -0.0220 -14.2271  10.4408 C.ar           1 <1>                0.0000
      3 C3           0.5183 -14.2232   9.1689 C.ar           1 <1>                0.0000
      4 C4           0.3198 -13.1361   8.3367 C.ar           1 <1>                0.0000
      5 Br5          1.0582 -13.1303   6.5958 Br             1 <1>                0.0000
      6 C6          -0.4193 -12.0536   8.7781 C.ar           1 <1>                0.0000
      7 C7          -0.9594 -12.0585  10.0506 C.ar           1 <1>                0.0000
      8 C8          -0.7656 -13.1473  10.8797 C.ar           1 <1>                0.0000
      9 C9          -1.7648 -10.8791  10.5317 C.3            1 <1>                0.0000
     10 C10         -1.6125 -10.4705  11.9982 C.3            1 <1>                0.0000
     11 C11         -1.0020  -9.6036  10.8951 C.3            1 <1>                0.0000
     12 C12         -3.1255 -10.7214   9.9032 C.2            1 <1>                0.0000
     13 O13         -3.5317  -9.6128   9.5992 O.co2          1 <1>                0.0000
     14 O14         -3.8199 -11.7024   9.6988 O.co2          1 <1>               -1.0000
     15 H15          1.1024 -15.2610  11.9312 H              1 <1>                0.0000
     16 H16         -0.6572 -15.5140  12.0204 H              1 <1>                0.0000
     17 H17          0.2937 -16.3154  10.7469 H              1 <1>                0.0000
     18 H18          1.0957 -15.0685   8.8247 H              1 <1>                0.0000
     19 H19         -0.5743 -11.2045   8.1288 H              1 <1>                0.0000
     20 H20         -1.1879 -13.1509  11.8737 H              1 <1>                0.0000
     21 H21         -2.4962 -10.0872  12.5083 H              1 <1>                0.0000
     22 H22         -0.9296 -11.0545  12.6151 H              1 <1>                0.0000
     23 H23          0.0825  -9.6175  10.7862 H              1 <1>                0.0000
     24 H24         -1.4842  -8.6501  10.6795 H              1 <1>                0.0000
@<TRIPOS>BOND
    1    1    2 1     
    2    1   15 1     
    3    1   16 1     
    4    1   17 1     
    5    2    3 ar    
    6    2    8 ar    
    7    3    4 ar    
    8    3   18 1     
    9    4    5 1     
   10    4    6 ar    
   11    6    7 ar    
   12    6   19 1     
   13    7    8 ar    
   14    7    9 1     
   15    8   20 1     
   16    9   10 1     
   17    9   11 1     
   18    9   12 1     
   19   10   11 1     
   20   10   21 1     
   21   10   22 1     
   22   11   23 1     
   23   11   24 1     
   24   12   13 ar    
   25   12   14 ar    
@<TRIPOS>SUBSTRUCTURE
      1 ****           1
@<TRIPOS>COMMENT
> <Gold.Version>
2022.2.0

> <Gold.Id.Protein>
3pbl|protein|mol2

> <Gold.Protein.RotatedTorsions>
[ 1303 1298 1297 1294 ] final   97.12 input  179.99 | X-H torsion
[ 2461 2456 2455 2452 ] final -129.15 input   30.03 | X-H torsion
[ 2515 2510 2509 2506 ] final  138.29 input  -89.99 | X-H torsion
[ 3721 3712 3711 3710 ] final  -24.47 input -179.91 | X-H torsion
[ 3841 3832 3831 3830 ] final  100.68 input -179.91 | X-H torsion
[ 3767 3762 3761 3758 ] final  -69.61 input  -89.99 | X-H torsion
[ 2472 2467 2466 2463 ] final  -67.23 input  -89.97 | X-H torsion

> <Gold.Protein.ActiveResidues>
 VAL82   VAL86   LEU89   PHE106  VAL107  ASP110  VAL111  MET112  CYS114  THR115 
 CYS181  SER182  ILE183  PHE188  VAL189  ILE190  SER192  SER193  SER196  TRP342 
 PHE345  PHE346  HIS349  VAL350  TYR365  THR369  GLY372  TYR373 

> <Gold.Protein.RotatedAtoms>
    4.5035  -10.0529    4.8938 H   0  0  0  0  0  0  0  0  0  0  0  0  # atno 1303 bound_to 1298
    0.6833   -9.2273    8.1436 H   0  0  0  0  0  0  0  0  0  0  0  0  # atno 2461 bound_to 2456
   -3.7848   -5.2286    9.0556 H   0  0  0  0  0  0  0  0  0  0  0  0  # atno 2472 bound_to 2467
    2.0927   -8.4599    6.0950 H   0  0  0  0  0  0  0  0  0  0  0  0  # atno 2515 bound_to 2510
   -2.5743  -17.7581   14.5385 H   0  0  0  0  0  0  0  0  0  0  0  0  # atno 3721 bound_to 3712
   -5.4066  -21.9962   10.9427 H   0  0  0  0  0  0  0  0  0  0  0  0  # atno 3767 bound_to 3762
    2.9469  -20.8699    9.1522 H   0  0  0  0  0  0  0  0  0  0  0  0  # atno 3841 bound_to 3832
    3.3296   -9.5431    3.8796 LP  0  0  0  0  0  0  0  0  0  0  0  0  # atno 4297 bound_to 1298
    4.5289   -8.5251    4.3180 LP  0  0  0  0  0  0  0  0  0  0  0  0  # atno 4298 bound_to 1298
    2.1525   -8.5363    7.9662 LP  0  0  0  0  0  0  0  0  0  0  0  0  # atno 4299 bound_to 2456
    0.9018   -8.0447    7.0385 LP  0  0  0  0  0  0  0  0  0  0  0  0  # atno 4300 bound_to 2456
    2.4133   -7.4763    4.8319 LP  0  0  0  0  0  0  0  0  0  0  0  0  # atno 4301 bound_to 2510
    2.7909   -9.0628    4.7479 LP  0  0  0  0  0  0  0  0  0  0  0  0  # atno 4302 bound_to 2510
   -3.5442  -16.5630   14.0814 LP  0  0  0  0  0  0  0  0  0  0  0  0  # atno 4306 bound_to 3712
   -3.0114  -17.6612   12.9967 LP  0  0  0  0  0  0  0  0  0  0  0  0  # atno 4307 bound_to 3712
    1.4332  -20.3653    9.3260 LP  0  0  0  0  0  0  0  0  0  0  0  0  # atno 4314 bound_to 3832
    2.3919  -19.7322    8.1655 LP  0  0  0  0  0  0  0  0  0  0  0  0  # atno 4315 bound_to 3832
   -4.0176  -22.6521   11.4973 LP  0  0  0  0  0  0  0  0  0  0  0  0  # atno 4318 bound_to 3762
   -4.7034  -23.2266   10.1312 LP  0  0  0  0  0  0  0  0  0  0  0  0  # atno 4319 bound_to 3762
   -5.4071   -5.3579    8.9213 LP  0  0  0  0  0  0  0  0  0  0  0  0  # atno 4320 bound_to 2467
   -4.5249   -4.8071    7.6623 LP  0  0  0  0  0  0  0  0  0  0  0  0  # atno 4321 bound_to 2467

> <Gold.Score>
     Score     S(PLP)   S(hbond)     S(cho)   S(metal)  DE(clash)   DE(tors)     intcor
     47.93     -48.50       0.00       0.00       0.00       0.00       1.11       1.65

> <Gold.PLP.Fitness>
47.9310

> <Gold.PLP.PLP>
-48.4958

> <Gold.PLP.part.hbond>
0.0000

> <Gold.PLP.part.metal>
0.0000

> <Gold.PLP.part.buried>
-4.9697

> <Gold.PLP.part.nonpolar>
-44.3264

> <Gold.PLP.part.repulsive>
0.1387

> <Gold.PLP.ligand.clash>
0.0000

> <Gold.PLP.ligand.torsion>
1.1077

> <Gold.PLP.Chemscore.Hbond>
0.0000

> <Gold.PLP.Chemscore.CHOScore>
0.0000

> <Gold.PLP.Chemscore.Metal>
0.0000

> <Gold.PLP.Chemscore.Internal.Correction>
1.6506

