#       Name:                EN300-1897507_i001
#       Creating user name   fsindt
#       Creation time:       Wed Mar  1 14:00:33 2023


#       File generated by GOLD software.
#

@<TRIPOS>MOLECULE
EN300-1897507_i001|acide_1|mol2|8761|dock8
    24    25     1
SMALL
USER_CHARGES


@<TRIPOS>ATOM
      1 C1           0.8130 -14.1535   7.6250 C.3            1 <1>                0.0000
      2 C2           0.2821 -13.9748   9.0240 C.ar           1 <1>                0.0000
      3 C3          -0.3311 -12.7898   9.3842 C.ar           1 <1>                0.0000
      4 C4          -0.8184 -12.6259  10.6685 C.ar           1 <1>                0.0000
      5 Br5         -1.6581 -11.0050  11.1618 Br             1 <1>                0.0000
      6 C6          -0.6917 -13.6481  11.5915 C.ar           1 <1>                0.0000
      7 C7          -0.0781 -14.8331  11.2303 C.ar           1 <1>                0.0000
      8 C8           0.4036 -14.9985   9.9454 C.ar           1 <1>                0.0000
      9 C9           0.0600 -15.9470  12.2359 C.3            1 <1>                0.0000
     10 C10          1.2823 -15.9209  13.1557 C.3            1 <1>                0.0000
     11 C11         -0.1027 -15.5882  13.7143 C.3            1 <1>                0.0000
     12 C12         -0.4443 -17.2943  11.7868 C.2            1 <1>                0.0000
     13 O13         -0.3946 -17.6017  10.6080 O.co2          1 <1>                0.0000
     14 O14         -0.9018 -18.0767  12.6022 O.co2          1 <1>               -1.0000
     15 H15          1.8489 -13.8168   7.5837 H              1 <1>                0.0000
     16 H16          0.7622 -15.2067   7.3487 H              1 <1>                0.0000
     17 H17          0.2122 -13.5662   6.9306 H              1 <1>                0.0000
     18 H18         -0.4295 -11.9917   8.6632 H              1 <1>                0.0000
     19 H19         -1.0716 -13.5205  12.5944 H              1 <1>                0.0000
     20 H20          0.8825 -15.9245   9.6634 H              1 <1>                0.0000
     21 H21          1.7216 -16.8782  13.4363 H              1 <1>                0.0000
     22 H22          1.9866 -15.0980  13.0336 H              1 <1>                0.0000
     23 H23         -0.3096 -14.5465  13.9596 H              1 <1>                0.0000
     24 H24         -0.5746 -16.3267  14.3624 H              1 <1>                0.0000
@<TRIPOS>BOND
    1    1    2 1     
    2    1   15 1     
    3    1   16 1     
    4    1   17 1     
    5    2    3 ar    
    6    2    8 ar    
    7    3    4 ar    
    8    3   18 1     
    9    4    5 1     
   10    4    6 ar    
   11    6    7 ar    
   12    6   19 1     
   13    7    8 ar    
   14    7    9 1     
   15    8   20 1     
   16    9   10 1     
   17    9   11 1     
   18    9   12 1     
   19   10   11 1     
   20   10   21 1     
   21   10   22 1     
   22   11   23 1     
   23   11   24 1     
   24   12   13 ar    
   25   12   14 ar    
@<TRIPOS>SUBSTRUCTURE
      1 ****           1
@<TRIPOS>COMMENT
> <Gold.Version>
2022.2.0

> <Gold.Id.Protein>
3pbl|protein|mol2

> <Gold.Protein.RotatedTorsions>
[ 1303 1298 1297 1294 ] final  138.75 input  179.99 | X-H torsion
[ 2461 2456 2455 2452 ] final  -95.94 input   30.03 | X-H torsion
[ 2515 2510 2509 2506 ] final  -78.53 input  -89.99 | X-H torsion
[ 3721 3712 3711 3710 ] final   74.04 input -179.91 | X-H torsion
[ 3841 3832 3831 3830 ] final   59.39 input -179.91 | X-H torsion
[ 3767 3762 3761 3758 ] final   72.49 input  -89.99 | X-H torsion
[ 2472 2467 2466 2463 ] final  110.63 input  -89.97 | X-H torsion

> <Gold.Protein.ActiveResidues>
 VAL82   VAL86   LEU89   PHE106  VAL107  ASP110  VAL111  MET112  CYS114  THR115 
 CYS181  SER182  ILE183  PHE188  VAL189  ILE190  SER192  SER193  SER196  TRP342 
 PHE345  PHE346  HIS349  VAL350  TYR365  THR369  GLY372  TYR373 

> <Gold.Protein.RotatedAtoms>
    4.8666   -9.4911    4.9281 H   0  0  0  0  0  0  0  0  0  0  0  0  # atno 1303 bound_to 1298
    0.3796   -8.9698    7.7803 H   0  0  0  0  0  0  0  0  0  0  0  0  # atno 2461 bound_to 2456
   -5.3401   -5.0229    8.0100 H   0  0  0  0  0  0  0  0  0  0  0  0  # atno 2472 bound_to 2467
    2.8348   -8.7801    4.4996 H   0  0  0  0  0  0  0  0  0  0  0  0  # atno 2515 bound_to 2510
   -2.6737  -17.7878   13.2302 H   0  0  0  0  0  0  0  0  0  0  0  0  # atno 3721 bound_to 3712
   -4.4015  -23.3244   10.3044 H   0  0  0  0  0  0  0  0  0  0  0  0  # atno 3767 bound_to 3762
    2.4625  -20.9418    9.5166 H   0  0  0  0  0  0  0  0  0  0  0  0  # atno 3841 bound_to 3832
    3.5197  -10.0864    4.2225 LP  0  0  0  0  0  0  0  0  0  0  0  0  # atno 4297 bound_to 1298
    3.9755   -8.5438    3.9407 LP  0  0  0  0  0  0  0  0  0  0  0  0  # atno 4298 bound_to 1298
    1.9354   -8.9211    8.2747 LP  0  0  0  0  0  0  0  0  0  0  0  0  # atno 4299 bound_to 2456
    1.4225   -7.9174    7.0931 LP  0  0  0  0  0  0  0  0  0  0  0  0  # atno 4300 bound_to 2456
    2.2057   -8.8103    6.0060 LP  0  0  0  0  0  0  0  0  0  0  0  0  # atno 4301 bound_to 2510
    2.2561   -7.4085    5.1700 LP  0  0  0  0  0  0  0  0  0  0  0  0  # atno 4302 bound_to 2510
   -2.8733  -17.6200   14.8144 LP  0  0  0  0  0  0  0  0  0  0  0  0  # atno 4306 bound_to 3712
   -3.5675  -16.5700   13.7742 LP  0  0  0  0  0  0  0  0  0  0  0  0  # atno 4307 bound_to 3712
    1.4590  -19.8707    8.8672 LP  0  0  0  0  0  0  0  0  0  0  0  0  # atno 4314 bound_to 3832
    2.9258  -20.1436    8.2034 LP  0  0  0  0  0  0  0  0  0  0  0  0  # atno 4315 bound_to 3832
   -5.5045  -22.1678   10.6399 LP  0  0  0  0  0  0  0  0  0  0  0  0  # atno 4318 bound_to 3762
   -4.2212  -22.3830   11.6265 LP  0  0  0  0  0  0  0  0  0  0  0  0  # atno 4319 bound_to 3762
   -3.7222   -4.9133    8.2019 LP  0  0  0  0  0  0  0  0  0  0  0  0  # atno 4320 bound_to 2467
   -4.6548   -5.4574    9.4271 LP  0  0  0  0  0  0  0  0  0  0  0  0  # atno 4321 bound_to 2467

> <Gold.Score>
     Score     S(PLP)   S(hbond)     S(cho)   S(metal)  DE(clash)   DE(tors)     intcor
     48.04     -45.54       1.00       0.00       0.00       0.00       1.08       1.65

> <Gold.PLP.Fitness>
48.0383

> <Gold.PLP.PLP>
-45.5415

> <Gold.PLP.part.hbond>
-1.0000

> <Gold.PLP.part.metal>
0.0000

> <Gold.PLP.part.buried>
-4.4928

> <Gold.PLP.part.nonpolar>
-41.0054

> <Gold.PLP.part.repulsive>
0.1245

> <Gold.PLP.ligand.clash>
0.0000

> <Gold.PLP.ligand.torsion>
1.0769

> <Gold.PLP.Chemscore.Hbond>
1.0000

> <Gold.PLP.Chemscore.CHOScore>
0.0000

> <Gold.PLP.Chemscore.Metal>
0.0000

> <Gold.Chemscore.Hbonds>
donor molecule, donor type, donor heavy atom, donor atom, acceptor molecule, acceptor atom, score
      P1  H  3712  3721       L1    14  1.00

> <Gold.PLP.Chemscore.Internal.Correction>
1.6506

