#       Name:                EN300-1897507_i001
#       Creating user name   fsindt
#       Creation time:       Wed Mar  1 14:00:31 2023


#       File generated by GOLD software.
#

@<TRIPOS>MOLECULE
EN300-1897507_i001|acide_1|mol2|8761|dock1
    24    25     1
SMALL
USER_CHARGES


@<TRIPOS>ATOM
      1 C1           0.5820 -14.0100   7.4981 C.3            1 <1>                0.0000
      2 C2          -0.0443 -13.6159   8.8110 C.ar           1 <1>                0.0000
      3 C3           0.1752 -14.3834   9.9391 C.ar           1 <1>                0.0000
      4 C4          -0.3997 -14.0215  11.1442 C.ar           1 <1>                0.0000
      5 Br5         -0.0993 -15.0709  12.6884 Br             1 <1>                0.0000
      6 C6          -1.1939 -12.8917  11.2195 C.ar           1 <1>                0.0000
      7 C7          -1.4129 -12.1246  10.0904 C.ar           1 <1>                0.0000
      8 C8          -0.8337 -12.4834   8.8878 C.ar           1 <1>                0.0000
      9 C9          -2.2781 -10.8935  10.1723 C.3            1 <1>                0.0000
     10 C10         -1.8105  -9.7609  11.0886 C.3            1 <1>                0.0000
     11 C11         -1.7258  -9.6003   9.5693 C.3            1 <1>                0.0000
     12 C12         -3.7620 -11.1336  10.0647 C.2            1 <1>                0.0000
     13 O13         -4.1878 -11.9869   9.3050 O.co2          1 <1>                0.0000
     14 O14         -4.5366 -10.4747  10.7371 O.co2          1 <1>               -1.0000
     15 H15         -0.0945 -14.6716   6.9570 H              1 <1>                0.0000
     16 H16          0.7700 -13.1167   6.9025 H              1 <1>                0.0000
     17 H17          1.5232 -14.5268   7.6851 H              1 <1>                0.0000
     18 H18          0.7951 -15.2658   9.8798 H              1 <1>                0.0000
     19 H19         -1.6432 -12.6090  12.1600 H              1 <1>                0.0000
     20 H20         -1.0046 -11.8837   8.0061 H              1 <1>                0.0000
     21 H21         -2.5761  -9.1893  11.6131 H              1 <1>                0.0000
     22 H22         -0.8769  -9.9062  11.6320 H              1 <1>                0.0000
     23 H23         -0.7365  -9.6400   9.1134 H              1 <1>                0.0000
     24 H24         -2.4357  -8.9231   9.0945 H              1 <1>                0.0000
@<TRIPOS>BOND
    1    1    2 1     
    2    1   15 1     
    3    1   16 1     
    4    1   17 1     
    5    2    3 ar    
    6    2    8 ar    
    7    3    4 ar    
    8    3   18 1     
    9    4    5 1     
   10    4    6 ar    
   11    6    7 ar    
   12    6   19 1     
   13    7    8 ar    
   14    7    9 1     
   15    8   20 1     
   16    9   10 1     
   17    9   11 1     
   18    9   12 1     
   19   10   11 1     
   20   10   21 1     
   21   10   22 1     
   22   11   23 1     
   23   11   24 1     
   24   12   13 ar    
   25   12   14 ar    
@<TRIPOS>SUBSTRUCTURE
      1 ****           1
@<TRIPOS>COMMENT
> <Gold.Version>
2022.2.0

> <Gold.Id.Protein>
3pbl|protein|mol2

> <Gold.Protein.RotatedTorsions>
[ 1303 1298 1297 1294 ] final -178.45 input  179.99 | X-H torsion
[ 2461 2456 2455 2452 ] final    7.30 input   30.03 | X-H torsion
[ 2515 2510 2509 2506 ] final  127.00 input  -89.99 | X-H torsion
[ 3721 3712 3711 3710 ] final -140.21 input -179.91 | X-H torsion
[ 3841 3832 3831 3830 ] final   30.58 input -179.91 | X-H torsion
[ 3767 3762 3761 3758 ] final  113.32 input  -89.99 | X-H torsion
[ 2472 2467 2466 2463 ] final  -37.64 input  -89.97 | X-H torsion

> <Gold.Protein.ActiveResidues>
 VAL82   VAL86   LEU89   PHE106  VAL107  ASP110  VAL111  MET112  CYS114  THR115 
 CYS181  SER182  ILE183  PHE188  VAL189  ILE190  SER192  SER193  SER196  TRP342 
 PHE345  PHE346  HIS349  VAL350  TYR365  THR369  GLY372  TYR373 

> <Gold.Protein.RotatedAtoms>
    4.8467   -8.8548    4.6674 H   0  0  0  0  0  0  0  0  0  0  0  0  # atno 1303 bound_to 1298
    1.1560   -7.9544    7.0371 H   0  0  0  0  0  0  0  0  0  0  0  0  # atno 2461 bound_to 2456
   -3.6360   -5.0589    8.6302 H   0  0  0  0  0  0  0  0  0  0  0  0  # atno 2472 bound_to 2467
    2.0566   -8.2782    6.0877 H   0  0  0  0  0  0  0  0  0  0  0  0  # atno 2515 bound_to 2510
   -3.3023  -16.5507   14.1331 H   0  0  0  0  0  0  0  0  0  0  0  0  # atno 3721 bound_to 3712
   -3.9918  -23.2354   10.8112 H   0  0  0  0  0  0  0  0  0  0  0  0  # atno 3767 bound_to 3762
    2.0736  -20.7887    9.6203 H   0  0  0  0  0  0  0  0  0  0  0  0  # atno 3841 bound_to 3832
    4.0295  -10.2683    4.6474 LP  0  0  0  0  0  0  0  0  0  0  0  0  # atno 4297 bound_to 1298
    3.4857   -8.9984    3.7767 LP  0  0  0  0  0  0  0  0  0  0  0  0  # atno 4298 bound_to 1298
    0.5020   -9.1212    7.9743 LP  0  0  0  0  0  0  0  0  0  0  0  0  # atno 4299 bound_to 2456
    2.0797   -8.7324    8.1366 LP  0  0  0  0  0  0  0  0  0  0  0  0  # atno 4300 bound_to 2456
    2.4926   -7.5611    4.6872 LP  0  0  0  0  0  0  0  0  0  0  0  0  # atno 4301 bound_to 2510
    2.7476   -9.1599    4.8999 LP  0  0  0  0  0  0  0  0  0  0  0  0  # atno 4302 bound_to 2510
   -3.0221  -17.6434   12.9907 LP  0  0  0  0  0  0  0  0  0  0  0  0  # atno 4306 bound_to 3712
   -2.6931  -17.9749   14.5555 LP  0  0  0  0  0  0  0  0  0  0  0  0  # atno 4307 bound_to 3712
    1.7220  -19.6699    8.5246 LP  0  0  0  0  0  0  0  0  0  0  0  0  # atno 4314 bound_to 3832
    3.1120  -20.5212    8.4261 LP  0  0  0  0  0  0  0  0  0  0  0  0  # atno 4315 bound_to 3832
   -5.3792  -22.6346   10.1940 LP  0  0  0  0  0  0  0  0  0  0  0  0  # atno 4318 bound_to 3762
   -4.7560  -22.0052   11.5659 LP  0  0  0  0  0  0  0  0  0  0  0  0  # atno 4319 bound_to 3762
   -5.0872   -5.4482    9.2697 LP  0  0  0  0  0  0  0  0  0  0  0  0  # atno 4320 bound_to 2467
   -4.9935   -4.8864    7.7393 LP  0  0  0  0  0  0  0  0  0  0  0  0  # atno 4321 bound_to 2467

> <Gold.Score>
     Score     S(PLP)   S(hbond)     S(cho)   S(metal)  DE(clash)   DE(tors)     intcor
     48.23     -48.38       0.00       0.00       0.00       0.00       0.90       1.65

> <Gold.PLP.Fitness>
48.2251

> <Gold.PLP.PLP>
-48.3796

> <Gold.PLP.part.hbond>
0.0000

> <Gold.PLP.part.metal>
0.0000

> <Gold.PLP.part.buried>
-2.6201

> <Gold.PLP.part.nonpolar>
-47.6956

> <Gold.PLP.part.repulsive>
0.2008

> <Gold.PLP.ligand.clash>
0.0000

> <Gold.PLP.ligand.torsion>
0.9025

> <Gold.PLP.Chemscore.Hbond>
0.0000

> <Gold.PLP.Chemscore.CHOScore>
0.0000

> <Gold.PLP.Chemscore.Metal>
0.0000

> <Gold.PLP.Chemscore.Internal.Correction>
1.6506

