#       Name:                EN300-1897507_i001
#       Creating user name   fsindt
#       Creation time:       Wed Mar  1 14:00:31 2023


#       File generated by GOLD software.
#

@<TRIPOS>MOLECULE
EN300-1897507_i001
    24    25     1
SMALL
USER_CHARGES


@<TRIPOS>ATOM
      1 C1           0.9674   3.3140   0.1729 C.3            1 <1>                0.0000
      2 C2           1.0466   1.8155   0.0339 C.ar           1 <1>                0.0000
      3 C3           2.2756   1.1981  -0.1010 C.ar           1 <1>                0.0000
      4 C4           2.3481  -0.1775  -0.2285 C.ar           1 <1>                0.0000
      5 Br5          4.0295  -1.0230  -0.4125 Br             1 <1>                0.0000
      6 C6           1.1905  -0.9343  -0.2210 C.ar           1 <1>                0.0000
      7 C7          -0.0385  -0.3158  -0.0860 C.ar           1 <1>                0.0000
      8 C8          -0.1101   1.0581   0.0471 C.ar           1 <1>                0.0000
      9 C9          -1.2999  -1.1403  -0.0777 C.3            1 <1>                0.0000
     10 C10         -1.1539  -2.6564  -0.2226 C.3            1 <1>                0.0000
     11 C11         -1.5409  -2.0507   1.1281 C.3            1 <1>                0.0000
     12 C12         -2.5035  -0.4933  -0.7132 C.2            1 <1>                0.0000
     13 O13         -2.3549   0.3608  -1.5705 O.co2          1 <1>                0.0000
     14 O14         -3.6257  -0.8239  -0.3701 O.co2          1 <1>               -1.0000
     15 H15          0.8820   3.7665  -0.8151 H              1 <1>                0.0000
     16 H16          0.0946   3.5780   0.7700 H              1 <1>                0.0000
     17 H17          1.8684   3.6814   0.6641 H              1 <1>                0.0000
     18 H18          3.1793   1.7895  -0.1072 H              1 <1>                0.0000
     19 H19          1.2466  -2.0082  -0.3209 H              1 <1>                0.0000
     20 H20         -1.0703   1.5409   0.1529 H              1 <1>                0.0000
     21 H21         -1.9286  -3.1859  -0.7772 H              1 <1>                0.0000
     22 H22         -0.1455  -3.0575  -0.3238 H              1 <1>                0.0000
     23 H23         -0.7871  -2.0533   1.9154 H              1 <1>                0.0000
     24 H24         -2.5702  -2.1817   1.4620 H              1 <1>                0.0000
@<TRIPOS>BOND
    1    1    2 1     
    2    1   15 1     
    3    1   16 1     
    4    1   17 1     
    5    2    3 ar    
    6    2    8 ar    
    7    3    4 ar    
    8    3   18 1     
    9    4    5 1     
   10    4    6 ar    
   11    6    7 ar    
   12    6   19 1     
   13    7    8 ar    
   14    7    9 1     
   15    8   20 1     
   16    9   10 1     
   17    9   11 1     
   18    9   12 1     
   19   10   11 1     
   20   10   21 1     
   21   10   22 1     
   22   11   23 1     
   23   11   24 1     
   24   12   13 ar    
   25   12   14 ar    
@<TRIPOS>SUBSTRUCTURE
      1 ****           1
