#       Name:                EN300-1897507_i001
#       Creating user name   fsindt
#       Creation time:       Wed Mar  1 14:00:35 2023


#       File generated by GOLD software.
#

@<TRIPOS>MOLECULE
EN300-1897507_i001|acide_1|mol2|8761|dock17
    24    25     1
SMALL
USER_CHARGES


@<TRIPOS>ATOM
      1 C1          -0.1050 -15.4435  12.8105 C.3            1 <1>                0.0000
      2 C2          -0.1981 -14.7019  11.5020 C.ar           1 <1>                0.0000
      3 C3           0.2922 -15.2774  10.3451 C.ar           1 <1>                0.0000
      4 C4           0.2065 -14.5964   9.1440 C.ar           1 <1>                0.0000
      5 Br5          0.8766 -15.3836   7.5606 Br             1 <1>                0.0000
      6 C6          -0.3698 -13.3399   9.1014 C.ar           1 <1>                0.0000
      7 C7          -0.8600 -12.7649  10.2592 C.ar           1 <1>                0.0000
      8 C8          -0.7793 -13.4480  11.4580 C.ar           1 <1>                0.0000
      9 C9          -1.4880 -11.3958  10.2129 C.3            1 <1>                0.0000
     10 C10         -2.9521 -11.2753  10.6404 C.3            1 <1>                0.0000
     11 C11         -1.8435 -10.7362  11.5468 C.3            1 <1>                0.0000
     12 C12         -1.0127 -10.5001   9.0981 C.2            1 <1>                0.0000
     13 O13         -1.7285  -9.6006   8.6917 O.co2          1 <1>                0.0000
     14 O14          0.0874 -10.6748   8.6026 O.co2          1 <1>               -1.0000
     15 H15          0.8355 -15.1953  13.3026 H              1 <1>                0.0000
     16 H16         -0.9377 -15.1551  13.4519 H              1 <1>                0.0000
     17 H17         -0.1450 -16.5166  12.6236 H              1 <1>                0.0000
     18 H18          0.7425 -16.2585  10.3789 H              1 <1>                0.0000
     19 H19         -0.4365 -12.8077   8.1640 H              1 <1>                0.0000
     20 H20         -1.1627 -12.9988  12.3622 H              1 <1>                0.0000
     21 H21         -3.5714 -10.5479  10.1157 H              1 <1>                0.0000
     22 H22         -3.4610 -12.1863  10.9553 H              1 <1>                0.0000
     23 H23         -1.6232 -11.2925  12.4579 H              1 <1>                0.0000
     24 H24         -1.7336  -9.6541  11.6183 H              1 <1>                0.0000
@<TRIPOS>BOND
    1    1    2 1     
    2    1   15 1     
    3    1   16 1     
    4    1   17 1     
    5    2    3 ar    
    6    2    8 ar    
    7    3    4 ar    
    8    3   18 1     
    9    4    5 1     
   10    4    6 ar    
   11    6    7 ar    
   12    6   19 1     
   13    7    8 ar    
   14    7    9 1     
   15    8   20 1     
   16    9   10 1     
   17    9   11 1     
   18    9   12 1     
   19   10   11 1     
   20   10   21 1     
   21   10   22 1     
   22   11   23 1     
   23   11   24 1     
   24   12   13 ar    
   25   12   14 ar    
@<TRIPOS>SUBSTRUCTURE
      1 ****           1
@<TRIPOS>COMMENT
> <Gold.Version>
2022.2.0

> <Gold.Id.Protein>
3pbl|protein|mol2

> <Gold.Protein.RotatedTorsions>
[ 1303 1298 1297 1294 ] final  104.34 input  179.99 | X-H torsion
[ 2461 2456 2455 2452 ] final -124.46 input   30.03 | X-H torsion
[ 2515 2510 2509 2506 ] final   -2.95 input  -89.99 | X-H torsion
[ 3721 3712 3711 3710 ] final   44.60 input -179.91 | X-H torsion
[ 3841 3832 3831 3830 ] final  -41.77 input -179.91 | X-H torsion
[ 3767 3762 3761 3758 ] final  149.82 input  -89.99 | X-H torsion
[ 2472 2467 2466 2463 ] final   23.05 input  -89.97 | X-H torsion

> <Gold.Protein.ActiveResidues>
 VAL82   VAL86   LEU89   PHE106  VAL107  ASP110  VAL111  MET112  CYS114  THR115 
 CYS181  SER182  ILE183  PHE188  VAL189  ILE190  SER192  SER193  SER196  TRP342 
 PHE345  PHE346  HIS349  VAL350  TYR365  THR369  GLY372  TYR373 

> <Gold.Protein.RotatedAtoms>
    4.5873   -9.9737    4.9214 H   0  0  0  0  0  0  0  0  0  0  0  0  # atno 1303 bound_to 1298
    0.6261   -9.2020    8.0984 H   0  0  0  0  0  0  0  0  0  0  0  0  # atno 2461 bound_to 2456
   -4.0668   -4.8132    7.8169 H   0  0  0  0  0  0  0  0  0  0  0  0  # atno 2472 bound_to 2467
    2.5608   -7.6608    4.5771 H   0  0  0  0  0  0  0  0  0  0  0  0  # atno 2515 bound_to 2510
   -2.5225  -17.9963   13.5872 H   0  0  0  0  0  0  0  0  0  0  0  0  # atno 3721 bound_to 3712
   -3.9184  -22.8994   11.2914 H   0  0  0  0  0  0  0  0  0  0  0  0  # atno 3767 bound_to 3762
    1.5621  -19.9961    9.2273 H   0  0  0  0  0  0  0  0  0  0  0  0  # atno 3841 bound_to 3832
    3.3341   -9.6525    3.9252 LP  0  0  0  0  0  0  0  0  0  0  0  0  # atno 4297 bound_to 1298
    4.4406   -8.4949    4.2448 LP  0  0  0  0  0  0  0  0  0  0  0  0  # atno 4298 bound_to 1298
    2.1392   -8.5924    8.0175 LP  0  0  0  0  0  0  0  0  0  0  0  0  # atno 4299 bound_to 2456
    0.9723   -8.0140    7.0324 LP  0  0  0  0  0  0  0  0  0  0  0  0  # atno 4300 bound_to 2456
    2.6994   -9.2191    5.0446 LP  0  0  0  0  0  0  0  0  0  0  0  0  # atno 4301 bound_to 2510
    2.0365   -8.1196    6.0538 LP  0  0  0  0  0  0  0  0  0  0  0  0  # atno 4302 bound_to 2510
   -3.1123  -17.1976   14.8490 LP  0  0  0  0  0  0  0  0  0  0  0  0  # atno 4306 bound_to 3712
   -3.5031  -16.7518   13.3274 LP  0  0  0  0  0  0  0  0  0  0  0  0  # atno 4307 bound_to 3712
    2.7477  -19.9567    8.1462 LP  0  0  0  0  0  0  0  0  0  0  0  0  # atno 4314 bound_to 3832
    2.6771  -21.1501    9.2585 LP  0  0  0  0  0  0  0  0  0  0  0  0  # atno 4315 bound_to 3832
   -4.9855  -23.0554   10.0651 LP  0  0  0  0  0  0  0  0  0  0  0  0  # atno 4318 bound_to 3762
   -5.2232  -21.9203   11.2147 LP  0  0  0  0  0  0  0  0  0  0  0  0  # atno 4319 bound_to 3762
   -4.1410   -5.3728    9.3491 LP  0  0  0  0  0  0  0  0  0  0  0  0  # atno 4320 bound_to 2467
   -5.5091   -5.2075    8.4730 LP  0  0  0  0  0  0  0  0  0  0  0  0  # atno 4321 bound_to 2467

> <Gold.Score>
     Score     S(PLP)   S(hbond)     S(cho)   S(metal)  DE(clash)   DE(tors)     intcor
     45.85     -42.93       1.00       0.00       0.00       0.01       0.86       1.65

> <Gold.PLP.Fitness>
45.8526

> <Gold.PLP.PLP>
-42.9312

> <Gold.PLP.part.hbond>
-2.4129

> <Gold.PLP.part.metal>
0.0000

> <Gold.PLP.part.buried>
-1.4449

> <Gold.PLP.part.nonpolar>
-41.4428

> <Gold.PLP.part.repulsive>
0.1106

> <Gold.PLP.ligand.clash>
0.0137

> <Gold.PLP.ligand.torsion>
0.8577

> <Gold.PLP.Chemscore.Hbond>
1.0000

> <Gold.PLP.Chemscore.CHOScore>
0.0000

> <Gold.PLP.Chemscore.Metal>
0.0000

> <Gold.Chemscore.Hbonds>
donor molecule, donor type, donor heavy atom, donor atom, acceptor molecule, acceptor atom, score
      P1  H  2456  2461       L1    14  1.00

> <Gold.PLP.Chemscore.Internal.Correction>
1.6506

