#       Name:                EN300-1897507_i001
#       Creating user name   fsindt
#       Creation time:       Wed Mar  1 14:00:31 2023


#       File generated by GOLD software.
#

@<TRIPOS>MOLECULE
EN300-1897507_i001|acide_1|mol2|8761|dock3
    24    25     1
SMALL
USER_CHARGES


@<TRIPOS>ATOM
      1 C1          -1.7527 -11.3793  11.0506 C.3            1 <1>                0.0000
      2 C2          -0.9458 -12.5755  10.6156 C.ar           1 <1>                0.0000
      3 C3          -0.4163 -12.6250   9.3400 C.ar           1 <1>                0.0000
      4 C4           0.3244 -13.7231   8.9409 C.ar           1 <1>                0.0000
      5 Br5          1.0498 -13.7911   7.1959 Br             1 <1>                0.0000
      6 C6           0.5347 -14.7710   9.8187 C.ar           1 <1>                0.0000
      7 C7           0.0046 -14.7206  11.0945 C.ar           1 <1>                0.0000
      8 C8          -0.7306 -13.6208  11.4947 C.ar           1 <1>                0.0000
      9 C9           0.2337 -15.8624  12.0510 C.3            1 <1>                0.0000
     10 C10          1.5876 -15.9287  12.7606 C.3            1 <1>                0.0000
     11 C11          0.3340 -15.5269  13.5404 C.3            1 <1>                0.0000
     12 C12         -0.4189 -17.1673  11.6737 C.2            1 <1>                0.0000
     13 O13         -0.3970 -17.5472  10.5154 O.co2          1 <1>                0.0000
     14 O14         -0.9686 -17.8431  12.5267 O.co2          1 <1>               -1.0000
     15 H15         -2.8043 -11.5462  10.8173 H              1 <1>                0.0000
     16 H16         -1.6375 -11.2343  12.1247 H              1 <1>                0.0000
     17 H17         -1.4001 -10.4924  10.5242 H              1 <1>                0.0000
     18 H18         -0.5811 -11.8066   8.6548 H              1 <1>                0.0000
     19 H19          1.1126 -15.6286   9.5074 H              1 <1>                0.0000
     20 H20         -1.1443 -13.5816  12.4915 H              1 <1>                0.0000
     21 H21          2.0061 -16.9163  12.9548 H              1 <1>                0.0000
     22 H22          2.3125 -15.1466  12.5356 H              1 <1>                0.0000
     23 H23          0.2344 -14.4804  13.8284 H              1 <1>                0.0000
     24 H24         -0.0721 -16.2501  14.2476 H              1 <1>                0.0000
@<TRIPOS>BOND
    1    1    2 1     
    2    1   15 1     
    3    1   16 1     
    4    1   17 1     
    5    2    3 ar    
    6    2    8 ar    
    7    3    4 ar    
    8    3   18 1     
    9    4    5 1     
   10    4    6 ar    
   11    6    7 ar    
   12    6   19 1     
   13    7    8 ar    
   14    7    9 1     
   15    8   20 1     
   16    9   10 1     
   17    9   11 1     
   18    9   12 1     
   19   10   11 1     
   20   10   21 1     
   21   10   22 1     
   22   11   23 1     
   23   11   24 1     
   24   12   13 ar    
   25   12   14 ar    
@<TRIPOS>SUBSTRUCTURE
      1 ****           1
@<TRIPOS>COMMENT
> <Gold.Version>
2022.2.0

> <Gold.Id.Protein>
3pbl|protein|mol2

> <Gold.Protein.RotatedTorsions>
[ 1303 1298 1297 1294 ] final -116.11 input  179.99 | X-H torsion
[ 2461 2456 2455 2452 ] final   16.67 input   30.03 | X-H torsion
[ 2515 2510 2509 2506 ] final  -23.13 input  -89.99 | X-H torsion
[ 3721 3712 3711 3710 ] final   69.02 input -179.91 | X-H torsion
[ 3841 3832 3831 3830 ] final   60.21 input -179.91 | X-H torsion
[ 3767 3762 3761 3758 ] final   95.62 input  -89.99 | X-H torsion
[ 2472 2467 2466 2463 ] final   32.92 input  -89.97 | X-H torsion

> <Gold.Protein.ActiveResidues>
 VAL82   VAL86   LEU89   PHE106  VAL107  ASP110  VAL111  MET112  CYS114  THR115 
 CYS181  SER182  ILE183  PHE188  VAL189  ILE190  SER192  SER193  SER196  TRP342 
 PHE345  PHE346  HIS349  VAL350  TYR365  THR369  GLY372  TYR373 

> <Gold.Protein.RotatedAtoms>
    4.1796   -8.4835    4.0597 H   0  0  0  0  0  0  0  0  0  0  0  0  # atno 1303 bound_to 1298
    1.3055   -7.9265    7.0614 H   0  0  0  0  0  0  0  0  0  0  0  0  # atno 2461 bound_to 2456
   -4.2096   -4.8015    7.7410 H   0  0  0  0  0  0  0  0  0  0  0  0  # atno 2472 bound_to 2467
    2.6849   -7.9210    4.4160 H   0  0  0  0  0  0  0  0  0  0  0  0  # atno 2515 bound_to 2510
   -2.6424  -17.8346   13.2810 H   0  0  0  0  0  0  0  0  0  0  0  0  # atno 3721 bound_to 3712
   -4.1352  -23.3170   10.5726 H   0  0  0  0  0  0  0  0  0  0  0  0  # atno 3767 bound_to 3762
    2.4737  -20.9438    9.5114 H   0  0  0  0  0  0  0  0  0  0  0  0  # atno 3841 bound_to 3832
    4.7746   -9.7157    4.9507 LP  0  0  0  0  0  0  0  0  0  0  0  0  # atno 4297 bound_to 1298
    3.4079   -9.9224    4.0812 LP  0  0  0  0  0  0  0  0  0  0  0  0  # atno 4298 bound_to 1298
    0.4251   -9.0412    7.8675 LP  0  0  0  0  0  0  0  0  0  0  0  0  # atno 4299 bound_to 2456
    2.0071   -8.8403    8.2190 LP  0  0  0  0  0  0  0  0  0  0  0  0  # atno 4300 bound_to 2456
    2.5785   -9.2560    5.3499 LP  0  0  0  0  0  0  0  0  0  0  0  0  # atno 4301 bound_to 2510
    2.0332   -7.8223    5.9098 LP  0  0  0  0  0  0  0  0  0  0  0  0  # atno 4302 bound_to 2510
   -2.9118  -17.5493   14.8379 LP  0  0  0  0  0  0  0  0  0  0  0  0  # atno 4306 bound_to 3712
   -3.5652  -16.5867   13.6920 LP  0  0  0  0  0  0  0  0  0  0  0  0  # atno 4307 bound_to 3712
    1.4542  -19.8787    8.8773 LP  0  0  0  0  0  0  0  0  0  0  0  0  # atno 4314 bound_to 3832
    2.9177  -20.1334    8.1992 LP  0  0  0  0  0  0  0  0  0  0  0  0  # atno 4315 bound_to 3832
   -5.4816  -22.4182   10.3577 LP  0  0  0  0  0  0  0  0  0  0  0  0  # atno 4318 bound_to 3762
   -4.5104  -22.1401   11.6407 LP  0  0  0  0  0  0  0  0  0  0  0  0  # atno 4319 bound_to 3762
   -4.0047   -5.3301    9.2724 LP  0  0  0  0  0  0  0  0  0  0  0  0  # atno 4320 bound_to 2467
   -5.5026   -5.2618    8.6256 LP  0  0  0  0  0  0  0  0  0  0  0  0  # atno 4321 bound_to 2467

> <Gold.Score>
     Score     S(PLP)   S(hbond)     S(cho)   S(metal)  DE(clash)   DE(tors)     intcor
     47.88     -45.62       1.00       0.00       0.00       0.00       1.20       1.65

> <Gold.PLP.Fitness>
47.8779

> <Gold.PLP.PLP>
-45.6235

> <Gold.PLP.part.hbond>
-1.0000

> <Gold.PLP.part.metal>
0.0000

> <Gold.PLP.part.buried>
-4.4820

> <Gold.PLP.part.nonpolar>
-41.4122

> <Gold.PLP.part.repulsive>
0.1400

> <Gold.PLP.ligand.clash>
0.0000

> <Gold.PLP.ligand.torsion>
1.1981

> <Gold.PLP.Chemscore.Hbond>
1.0000

> <Gold.PLP.Chemscore.CHOScore>
0.0000

> <Gold.PLP.Chemscore.Metal>
0.0000

> <Gold.Chemscore.Hbonds>
donor molecule, donor type, donor heavy atom, donor atom, acceptor molecule, acceptor atom, score
      P1  H  3712  3721       L1    14  1.00

> <Gold.PLP.Chemscore.Internal.Correction>
1.6506

