#       Name:                EN300-1897507_i001
#       Creating user name   fsindt
#       Creation time:       Wed Mar  1 14:00:34 2023


#       File generated by GOLD software.
#

@<TRIPOS>MOLECULE
EN300-1897507_i001|acide_1|mol2|8761|dock14
    24    25     1
SMALL
USER_CHARGES


@<TRIPOS>ATOM
      1 C1           1.6829 -11.8113   5.6785 C.3            1 <1>                0.0000
      2 C2           0.9097 -12.4157   6.8222 C.ar           1 <1>                0.0000
      3 C3           0.7784 -13.7880   6.9186 C.ar           1 <1>                0.0000
      4 C4           0.0687 -14.3427   7.9686 C.ar           1 <1>                0.0000
      5 Br5         -0.1109 -16.2204   8.1014 Br             1 <1>                0.0000
      6 C6          -0.5092 -13.5235   8.9214 C.ar           1 <1>                0.0000
      7 C7          -0.3772 -12.1507   8.8241 C.ar           1 <1>                0.0000
      8 C8           0.3367 -11.5972   7.7780 C.ar           1 <1>                0.0000
      9 C9          -1.0067 -11.2580   9.8623 C.3            1 <1>                0.0000
     10 C10         -2.3872 -10.6765   9.5507 C.3            1 <1>                0.0000
     11 C11         -2.2424 -11.7869  10.5933 C.3            1 <1>                0.0000
     12 C12         -0.0496 -10.3970  10.6457 C.2            1 <1>                0.0000
     13 O13          1.0779 -10.2009  10.2252 O.co2          1 <1>                0.0000
     14 O14         -0.4028  -9.8966  11.6999 O.co2          1 <1>               -1.0000
     15 H15          1.0081 -11.6224   4.8435 H              1 <1>                0.0000
     16 H16          2.1339 -10.8727   6.0005 H              1 <1>                0.0000
     17 H17          2.4656 -12.5016   5.3641 H              1 <1>                0.0000
     18 H18          1.2295 -14.4273   6.1741 H              1 <1>                0.0000
     19 H19         -1.0636 -13.9560   9.7411 H              1 <1>                0.0000
     20 H20          0.4399 -10.5249   7.7026 H              1 <1>                0.0000
     21 H21         -2.6032  -9.6713   9.9127 H              1 <1>                0.0000
     22 H22         -2.8401 -10.9397   8.5949 H              1 <1>                0.0000
     23 H23         -2.6000 -12.7805  10.3234 H              1 <1>                0.0000
     24 H24         -2.3631 -11.5122  11.6412 H              1 <1>                0.0000
@<TRIPOS>BOND
    1    1    2 1     
    2    1   15 1     
    3    1   16 1     
    4    1   17 1     
    5    2    3 ar    
    6    2    8 ar    
    7    3    4 ar    
    8    3   18 1     
    9    4    5 1     
   10    4    6 ar    
   11    6    7 ar    
   12    6   19 1     
   13    7    8 ar    
   14    7    9 1     
   15    8   20 1     
   16    9   10 1     
   17    9   11 1     
   18    9   12 1     
   19   10   11 1     
   20   10   21 1     
   21   10   22 1     
   22   11   23 1     
   23   11   24 1     
   24   12   13 ar    
   25   12   14 ar    
@<TRIPOS>SUBSTRUCTURE
      1 ****           1
@<TRIPOS>COMMENT
> <Gold.Version>
2022.2.0

> <Gold.Id.Protein>
3pbl|protein|mol2

> <Gold.Protein.RotatedTorsions>
[ 1303 1298 1297 1294 ] final   39.36 input  179.99 | X-H torsion
[ 2461 2456 2455 2452 ] final -163.56 input   30.03 | X-H torsion
[ 2515 2510 2509 2506 ] final  101.20 input  -89.99 | X-H torsion
[ 3721 3712 3711 3710 ] final  134.07 input -179.91 | X-H torsion
[ 3841 3832 3831 3830 ] final  -79.45 input -179.91 | X-H torsion
[ 3767 3762 3761 3758 ] final -146.96 input  -89.99 | X-H torsion
[ 2472 2467 2466 2463 ] final  -69.69 input  -89.97 | X-H torsion

> <Gold.Protein.ActiveResidues>
 VAL82   VAL86   LEU89   PHE106  VAL107  ASP110  VAL111  MET112  CYS114  THR115 
 CYS181  SER182  ILE183  PHE188  VAL189  ILE190  SER192  SER193  SER196  TRP342 
 PHE345  PHE346  HIS349  VAL350  TYR365  THR369  GLY372  TYR373 

> <Gold.Protein.RotatedAtoms>
    3.7393  -10.2330    4.4326 H   0  0  0  0  0  0  0  0  0  0  0  0  # atno 1303 bound_to 1298
    1.1900   -9.2784    8.3716 H   0  0  0  0  0  0  0  0  0  0  0  0  # atno 2461 bound_to 2456
   -3.8074   -5.2422    9.0863 H   0  0  0  0  0  0  0  0  0  0  0  0  # atno 2472 bound_to 2467
    2.0300   -7.8820    5.9483 H   0  0  0  0  0  0  0  0  0  0  0  0  # atno 2515 bound_to 2510
   -3.1081  -17.0521   13.0847 H   0  0  0  0  0  0  0  0  0  0  0  0  # atno 3721 bound_to 3712
   -4.4753  -22.1633   11.6453 H   0  0  0  0  0  0  0  0  0  0  0  0  # atno 3767 bound_to 3762
    1.7488  -19.6661    8.8163 H   0  0  0  0  0  0  0  0  0  0  0  0  # atno 3841 bound_to 3832
    3.7111   -8.7178    3.8245 LP  0  0  0  0  0  0  0  0  0  0  0  0  # atno 4297 bound_to 1298
    4.9119   -9.1702    4.8345 LP  0  0  0  0  0  0  0  0  0  0  0  0  # atno 4298 bound_to 1298
    2.0651   -8.1622    7.5619 LP  0  0  0  0  0  0  0  0  0  0  0  0  # atno 4299 bound_to 2456
    0.4827   -8.3678    7.2149 LP  0  0  0  0  0  0  0  0  0  0  0  0  # atno 4300 bound_to 2456
    2.6603   -7.8596    4.4423 LP  0  0  0  0  0  0  0  0  0  0  0  0  # atno 4301 bound_to 2510
    2.6066   -9.2577    5.2843 LP  0  0  0  0  0  0  0  0  0  0  0  0  # atno 4302 bound_to 2510
   -2.6079  -18.1948   14.0955 LP  0  0  0  0  0  0  0  0  0  0  0  0  # atno 4306 bound_to 3712
   -3.3314  -16.8445   14.6610 LP  0  0  0  0  0  0  0  0  0  0  0  0  # atno 4307 bound_to 3712
    3.0853  -20.4287    8.3598 LP  0  0  0  0  0  0  0  0  0  0  0  0  # atno 4314 bound_to 3832
    2.1240  -21.0592    9.5196 LP  0  0  0  0  0  0  0  0  0  0  0  0  # atno 4315 bound_to 3832
   -4.1614  -23.3238   10.5401 LP  0  0  0  0  0  0  0  0  0  0  0  0  # atno 4318 bound_to 3762
   -5.4905  -22.3878   10.3860 LP  0  0  0  0  0  0  0  0  0  0  0  0  # atno 4319 bound_to 3762
   -5.4247   -5.3472    8.8864 LP  0  0  0  0  0  0  0  0  0  0  0  0  # atno 4320 bound_to 2467
   -4.4847   -4.8042    7.6665 LP  0  0  0  0  0  0  0  0  0  0  0  0  # atno 4321 bound_to 2467

> <Gold.Score>
     Score     S(PLP)   S(hbond)     S(cho)   S(metal)  DE(clash)   DE(tors)     intcor
     50.67     -48.99       0.83       0.00       0.00       0.00       1.23       1.65

> <Gold.PLP.Fitness>
50.6716

> <Gold.PLP.PLP>
-48.9884

> <Gold.PLP.part.hbond>
-1.0000

> <Gold.PLP.part.metal>
0.0000

> <Gold.PLP.part.buried>
-2.9625

> <Gold.PLP.part.nonpolar>
-46.7221

> <Gold.PLP.part.repulsive>
0.0710

> <Gold.PLP.ligand.clash>
0.0000

> <Gold.PLP.ligand.torsion>
1.2317

> <Gold.PLP.Chemscore.Hbond>
0.8320

> <Gold.PLP.Chemscore.CHOScore>
0.0000

> <Gold.PLP.Chemscore.Metal>
0.0000

> <Gold.Chemscore.Hbonds>
donor molecule, donor type, donor heavy atom, donor atom, acceptor molecule, acceptor atom, score
      P1  H  2456  2461       L1    13  0.83

> <Gold.PLP.Chemscore.Internal.Correction>
1.6506

