#       Name:                EN300-74934_i001
#       Creating user name   aseyller
#       Creation time:       Fri Apr 21 16:26:01 2023


#       File generated by GOLD software.
#

@<TRIPOS>MOLECULE
EN300-74934_i001|aminophenols|mol2|15|dock5
    15    15     1
SMALL
USER_CHARGES


@<TRIPOS>ATOM
      1 N1          29.4121  36.0301  42.1499 N.pl3          1 <1>                0.0000
      2 C2          28.9566  36.3541  40.8667 C.ar           1 <1>                0.0000
      3 C3          29.8467  36.3984  39.8033 C.ar           1 <1>                0.0000
      4 C4          29.3951  36.7190  38.5369 C.ar           1 <1>                0.0000
      5 C5          28.0570  36.9957  38.3258 C.ar           1 <1>                0.0000
      6 C6          27.1632  36.9530  39.3813 C.ar           1 <1>                0.0000
      7 Cl7         25.4840  37.3012  39.1114 Cl             1 <1>                0.0000
      8 C8          27.6077  36.6271  40.6531 C.ar           1 <1>                0.0000
      9 O9          26.7304  36.5844  41.6920 O.3            1 <1>                0.0000
     10 H10         30.8925  36.1828  39.9651 H              1 <1>                0.0000
     11 H11         30.0893  36.7537  37.7104 H              1 <1>                0.0000
     12 H12         27.7086  37.2460  37.3347 H              1 <1>                0.0000
     13 H13         30.3511  35.8363  42.2967 H              1 <1>                0.0000
     14 H14         28.7895  36.0035  42.8933 H              1 <1>                0.0000
     15 H15         26.7422  35.7511  42.1825 H              1 <1>                0.0000
@<TRIPOS>BOND
    1    1    2 1     
    2    1   13 1     
    3    1   14 1     
    4    2    3 ar    
    5    2    8 ar    
    6    3    4 ar    
    7    3   10 1     
    8    4    5 ar    
    9    4   11 1     
   10    5    6 ar    
   11    5   12 1     
   12    6    7 1     
   13    6    8 ar    
   14    8    9 1     
   15    9   15 1     
@<TRIPOS>SUBSTRUCTURE
      1 ****           1
@<TRIPOS>SET
DONOR_HYDROGENS      STATIC     ATOMS    <user>   **** ""
3 13 14 15
ATOM$RED        STATIC     ATOMS    COLORGROUP SYSTEM
3 13 14 15
@<TRIPOS>COMMENT
> <Gold.Version>
2022.2.0

> <Gold.Id.Protein>
1qkm|1qkm_protein|mol2

> <Gold.Protein.RotatedTorsions>
[  496  491  490  487 ] final  158.04 input  -89.99 | X-H torsion

> <Gold.Protein.ActiveResidues>
 MET295  LEU298  THR299  LEU301  ALA302  GLU305  TRP335  MET336  LEU339  MET340 
 GLY342  LEU343  ARG346  PHE356  ILE373  ILE376  PHE377  LEU380  LYS471  GLY472 
 MET473  HIS475  LEU476  LEU477  ASN478  MET479  VAL484  VAL487 

> <Gold.Protein.RotatedAtoms>
   37.2912   33.1839   41.0938 H   0  0  0  0  0  0  0  0  0  0  0  0  # atno 496  bound_to 491 

> <Gold.Score>
     Score     S(PLP)   S(hbond)     S(cho)   S(metal)  DE(clash)   DE(tors)     intcor
     36.38     -30.94       1.81       0.00       0.00       0.00       0.00       0.00

> <Gold.PLP.Fitness>
36.3822

> <Gold.PLP.PLP>
-30.9447

> <Gold.PLP.part.hbond>
-2.0000

> <Gold.PLP.part.metal>
0.0000

> <Gold.PLP.part.buried>
-2.6503

> <Gold.PLP.part.nonpolar>
-27.4745

> <Gold.PLP.part.repulsive>
0.1211

> <Gold.PLP.ligand.clash>
0.0000

> <Gold.PLP.ligand.torsion>
0.0000

> <Gold.PLP.Chemscore.Hbond>
1.8125

> <Gold.PLP.Chemscore.CHOScore>
0.0000

> <Gold.PLP.Chemscore.Metal>
0.0000

> <Gold.Chemscore.Hbonds>
donor molecule, donor type, donor heavy atom, donor atom, acceptor molecule, acceptor atom, score
      L1  H     1    13       P1   470  1.00
      L1  H     9    15       P1   582  0.81

> <Gold.PLP.Chemscore.Internal.Correction>
0.0000

