#       Name:                EN300-74934_i001
#       Creating user name   aseyller
#       Creation time:       Fri Apr 21 16:26:05 2023


#       File generated by GOLD software.
#

@<TRIPOS>MOLECULE
EN300-74934_i001|aminophenols|mol2|15|dock18
    15    15     1
SMALL
USER_CHARGES


@<TRIPOS>ATOM
      1 N1          28.0112  35.0918  42.4002 N.pl3          1 <1>                0.0000
      2 C2          27.9786  35.6459  41.1153 C.ar           1 <1>                0.0000
      3 C3          29.0972  35.5726  40.2976 C.ar           1 <1>                0.0000
      4 C4          29.0631  36.1208  39.0292 C.ar           1 <1>                0.0000
      5 C5          27.9162  36.7426  38.5716 C.ar           1 <1>                0.0000
      6 C6          26.7965  36.8192  39.3811 C.ar           1 <1>                0.0000
      7 Cl7         25.3586  37.6009  38.8021 Cl             1 <1>                0.0000
      8 C8          26.8213  36.2671  40.6522 C.ar           1 <1>                0.0000
      9 O9          25.7214  36.3412  41.4494 O.3            1 <1>                0.0000
     10 H10         29.9945  35.0875  40.6523 H              1 <1>                0.0000
     11 H11         29.9348  36.0635  38.3942 H              1 <1>                0.0000
     12 H12         27.8942  37.1698  37.5799 H              1 <1>                0.0000
     13 H13         28.8166  34.6559  42.7200 H              1 <1>                0.0000
     14 H14         27.2300  35.1473  42.9723 H              1 <1>                0.0000
     15 H15         25.8626  36.0081  42.3462 H              1 <1>                0.0000
@<TRIPOS>BOND
    1    1    2 1     
    2    1   13 1     
    3    1   14 1     
    4    2    3 ar    
    5    2    8 ar    
    6    3    4 ar    
    7    3   10 1     
    8    4    5 ar    
    9    4   11 1     
   10    5    6 ar    
   11    5   12 1     
   12    6    7 1     
   13    6    8 ar    
   14    8    9 1     
   15    9   15 1     
@<TRIPOS>SUBSTRUCTURE
      1 ****           1
@<TRIPOS>SET
DONOR_HYDROGENS      STATIC     ATOMS    <user>   **** ""
3 13 14 15
ATOM$RED        STATIC     ATOMS    COLORGROUP SYSTEM
3 13 14 15
@<TRIPOS>COMMENT
> <Gold.Version>
2022.2.0

> <Gold.Id.Protein>
1qkm|1qkm_protein|mol2

> <Gold.Protein.RotatedTorsions>
[  496  491  490  487 ] final  144.57 input  -89.99 | X-H torsion

> <Gold.Protein.ActiveResidues>
 MET295  LEU298  THR299  LEU301  ALA302  GLU305  TRP335  MET336  LEU339  MET340 
 GLY342  LEU343  ARG346  PHE356  ILE373  ILE376  PHE377  LEU380  LYS471  GLY472 
 MET473  HIS475  LEU476  LEU477  ASN478  MET479  VAL484  VAL487 

> <Gold.Protein.RotatedAtoms>
   37.2381   33.0584   41.2681 H   0  0  0  0  0  0  0  0  0  0  0  0  # atno 496  bound_to 491 

> <Gold.Score>
     Score     S(PLP)   S(hbond)     S(cho)   S(metal)  DE(clash)   DE(tors)     intcor
     34.28     -28.43       1.95       0.00       0.00       0.00       0.00       0.00

> <Gold.PLP.Fitness>
34.2813

> <Gold.PLP.PLP>
-28.4313

> <Gold.PLP.part.hbond>
-1.6576

> <Gold.PLP.part.metal>
0.0000

> <Gold.PLP.part.buried>
-2.5895

> <Gold.PLP.part.nonpolar>
-26.0985

> <Gold.PLP.part.repulsive>
0.3550

> <Gold.PLP.ligand.clash>
0.0000

> <Gold.PLP.ligand.torsion>
0.0000

> <Gold.PLP.Chemscore.Hbond>
1.9500

> <Gold.PLP.Chemscore.CHOScore>
0.0000

> <Gold.PLP.Chemscore.Metal>
0.0000

> <Gold.Chemscore.Hbonds>
donor molecule, donor type, donor heavy atom, donor atom, acceptor molecule, acceptor atom, score
      L1  H     1    14       P1   582  0.99
      L1  H     9    15       P1   582  0.96

> <Gold.PLP.Chemscore.Internal.Correction>
0.0000

