#       Name:                EN300-74934_i001
#       Creating user name   aseyller
#       Creation time:       Fri Apr 21 16:26:03 2023


#       File generated by GOLD software.
#

@<TRIPOS>MOLECULE
EN300-74934_i001|aminophenols|mol2|15|dock9
    15    15     1
SMALL
USER_CHARGES


@<TRIPOS>ATOM
      1 N1          30.0582  36.0861  40.1992 N.pl3          1 <1>                0.0000
      2 C2          28.7087  36.3695  39.9597 C.ar           1 <1>                0.0000
      3 C3          28.3316  37.0261  38.7969 C.ar           1 <1>                0.0000
      4 C4          26.9984  37.3055  38.5624 C.ar           1 <1>                0.0000
      5 C5          26.0377  36.9320  39.4838 C.ar           1 <1>                0.0000
      6 C6          26.4060  36.2765  40.6455 C.ar           1 <1>                0.0000
      7 Cl7         25.1961  35.8096  41.7996 Cl             1 <1>                0.0000
      8 C8          27.7404  35.9881  40.8852 C.ar           1 <1>                0.0000
      9 O9          28.1044  35.3435  42.0265 O.3            1 <1>                0.0000
     10 H10         29.0798  37.3190  38.0753 H              1 <1>                0.0000
     11 H11         26.7066  37.8172  37.6572 H              1 <1>                0.0000
     12 H12         24.9972  37.1527  39.2966 H              1 <1>                0.0000
     13 H13         30.7313  36.3487  39.5519 H              1 <1>                0.0000
     14 H14         30.3210  35.6307  41.0143 H              1 <1>                0.0000
     15 H15         27.3857  34.8512  42.4463 H              1 <1>                0.0000
@<TRIPOS>BOND
    1    1    2 1     
    2    1   13 1     
    3    1   14 1     
    4    2    3 ar    
    5    2    8 ar    
    6    3    4 ar    
    7    3   10 1     
    8    4    5 ar    
    9    4   11 1     
   10    5    6 ar    
   11    5   12 1     
   12    6    7 1     
   13    6    8 ar    
   14    8    9 1     
   15    9   15 1     
@<TRIPOS>SUBSTRUCTURE
      1 ****           1
@<TRIPOS>SET
DONOR_HYDROGENS      STATIC     ATOMS    <user>   **** ""
3 13 14 15
ATOM$RED        STATIC     ATOMS    COLORGROUP SYSTEM
3 13 14 15
@<TRIPOS>COMMENT
> <Gold.Version>
2022.2.0

> <Gold.Id.Protein>
1qkm|1qkm_protein|mol2

> <Gold.Protein.RotatedTorsions>
[  496  491  490  487 ] final -139.02 input  -89.99 | X-H torsion

> <Gold.Protein.ActiveResidues>
 MET295  LEU298  THR299  LEU301  ALA302  GLU305  TRP335  MET336  LEU339  MET340 
 GLY342  LEU343  ARG346  PHE356  ILE373  ILE376  PHE377  LEU380  LYS471  GLY472 
 MET473  HIS475  LEU476  LEU477  ASN478  MET479  VAL484  VAL487 

> <Gold.Protein.RotatedAtoms>
   37.1675   34.0888   40.7253 H   0  0  0  0  0  0  0  0  0  0  0  0  # atno 496  bound_to 491 

> <Gold.Score>
     Score     S(PLP)   S(hbond)     S(cho)   S(metal)  DE(clash)   DE(tors)     intcor
     34.22     -28.58       1.88       0.00       0.00       0.00       0.00       0.00

> <Gold.PLP.Fitness>
34.2179

> <Gold.PLP.PLP>
-28.5779

> <Gold.PLP.part.hbond>
-2.0000

> <Gold.PLP.part.metal>
0.0000

> <Gold.PLP.part.buried>
1.7095

> <Gold.PLP.part.nonpolar>
-28.4425

> <Gold.PLP.part.repulsive>
0.0621

> <Gold.PLP.ligand.clash>
0.0000

> <Gold.PLP.ligand.torsion>
0.0000

> <Gold.PLP.Chemscore.Hbond>
1.8800

> <Gold.PLP.Chemscore.CHOScore>
0.0000

> <Gold.PLP.Chemscore.Metal>
0.0000

> <Gold.Chemscore.Hbonds>
donor molecule, donor type, donor heavy atom, donor atom, acceptor molecule, acceptor atom, score
      L1  H     1    14       P1   470  0.88
      L1  H     9    15       P1   582  1.00

> <Gold.PLP.Chemscore.Internal.Correction>
0.0000

