#       Name:                EN300-74934_i001
#       Creating user name   aseyller
#       Creation time:       Fri Apr 21 16:26:05 2023


#       File generated by GOLD software.
#

@<TRIPOS>MOLECULE
EN300-74934_i001|aminophenols|mol2|15|dock16
    15    15     1
SMALL
USER_CHARGES


@<TRIPOS>ATOM
      1 N1          29.8600  36.9975  37.1662 N.pl3          1 <1>                0.0000
      2 C2          28.8545  36.9314  38.1376 C.ar           1 <1>                0.0000
      3 C3          27.5672  37.3522  37.8360 C.ar           1 <1>                0.0000
      4 C4          26.5758  37.2867  38.7969 C.ar           1 <1>                0.0000
      5 C5          26.8628  36.8020  40.0595 C.ar           1 <1>                0.0000
      6 C6          28.1442  36.3800  40.3676 C.ar           1 <1>                0.0000
      7 Cl7         28.4999  35.7722  41.9544 Cl             1 <1>                0.0000
      8 C8          29.1424  36.4378  39.4077 C.ar           1 <1>                0.0000
      9 O9          30.4026  36.0231  39.7086 O.3            1 <1>                0.0000
     10 H10         27.3400  37.7313  36.8506 H              1 <1>                0.0000
     11 H11         25.5745  37.6152  38.5608 H              1 <1>                0.0000
     12 H12         26.0851  36.7528  40.8072 H              1 <1>                0.0000
     13 H13         29.6572  37.3378  36.2807 H              1 <1>                0.0000
     14 H14         30.7604  36.7068  37.3795 H              1 <1>                0.0000
     15 H15         30.5091  35.7182  40.6201 H              1 <1>                0.0000
@<TRIPOS>BOND
    1    1    2 1     
    2    1   13 1     
    3    1   14 1     
    4    2    3 ar    
    5    2    8 ar    
    6    3    4 ar    
    7    3   10 1     
    8    4    5 ar    
    9    4   11 1     
   10    5    6 ar    
   11    5   12 1     
   12    6    7 1     
   13    6    8 ar    
   14    8    9 1     
   15    9   15 1     
@<TRIPOS>SUBSTRUCTURE
      1 ****           1
@<TRIPOS>SET
DONOR_HYDROGENS      STATIC     ATOMS    <user>   **** ""
3 13 14 15
ATOM$RED        STATIC     ATOMS    COLORGROUP SYSTEM
3 13 14 15
@<TRIPOS>COMMENT
> <Gold.Version>
2022.2.0

> <Gold.Id.Protein>
1qkm|1qkm_protein|mol2

> <Gold.Protein.RotatedTorsions>
[  496  491  490  487 ] final   73.18 input  -89.99 | X-H torsion

> <Gold.Protein.ActiveResidues>
 MET295  LEU298  THR299  LEU301  ALA302  GLU305  TRP335  MET336  LEU339  MET340 
 GLY342  LEU343  ARG346  PHE356  ILE373  ILE376  PHE377  LEU380  LYS471  GLY472 
 MET473  HIS475  LEU476  LEU477  ASN478  MET479  VAL484  VAL487 

> <Gold.Protein.RotatedAtoms>
   36.6658   33.1657   42.2020 H   0  0  0  0  0  0  0  0  0  0  0  0  # atno 496  bound_to 491 

> <Gold.Score>
     Score     S(PLP)   S(hbond)     S(cho)   S(metal)  DE(clash)   DE(tors)     intcor
     33.72     -31.05       0.89       0.00       0.00       0.00       0.00       0.00

> <Gold.PLP.Fitness>
33.7227

> <Gold.PLP.PLP>
-31.0536

> <Gold.PLP.part.hbond>
-1.0000

> <Gold.PLP.part.metal>
0.0000

> <Gold.PLP.part.buried>
-1.5979

> <Gold.PLP.part.nonpolar>
-28.9006

> <Gold.PLP.part.repulsive>
0.0000

> <Gold.PLP.ligand.clash>
0.0000

> <Gold.PLP.ligand.torsion>
0.0000

> <Gold.PLP.Chemscore.Hbond>
0.8897

> <Gold.PLP.Chemscore.CHOScore>
0.0000

> <Gold.PLP.Chemscore.Metal>
0.0000

> <Gold.Chemscore.Hbonds>
donor molecule, donor type, donor heavy atom, donor atom, acceptor molecule, acceptor atom, score
      L1  H     9    15       P1   470  0.89

> <Gold.PLP.Chemscore.Internal.Correction>
0.0000

