#       Name:                EN300-74934_i001
#       Creating user name   aseyller
#       Creation time:       Fri Apr 21 16:26:00 2023


#       File generated by GOLD software.
#

@<TRIPOS>MOLECULE
EN300-74934_i001|aminophenols|mol2|15|dock2
    15    15     1
SMALL
USER_CHARGES


@<TRIPOS>ATOM
      1 N1          25.4984  36.3917  42.0983 N.pl3          1 <1>                0.0000
      2 C2          26.2153  36.5775  40.9107 C.ar           1 <1>                0.0000
      3 C3          25.6649  37.3182  39.8745 C.ar           1 <1>                0.0000
      4 C4          26.3743  37.5001  38.7023 C.ar           1 <1>                0.0000
      5 C5          27.6327  36.9459  38.5586 C.ar           1 <1>                0.0000
      6 C6          28.1884  36.2063  39.5877 C.ar           1 <1>                0.0000
      7 Cl7         29.7689  35.5123  39.4026 Cl             1 <1>                0.0000
      8 C8          27.4854  36.0240  40.7682 C.ar           1 <1>                0.0000
      9 O9          28.0302  35.2975  41.7812 O.3            1 <1>                0.0000
     10 H10         24.6821  37.7523  39.9839 H              1 <1>                0.0000
     11 H11         25.9442  38.0763  37.8965 H              1 <1>                0.0000
     12 H12         28.1833  37.0903  37.6408 H              1 <1>                0.0000
     13 H13         24.6155  36.7811  42.1978 H              1 <1>                0.0000
     14 H14         25.8826  35.8703  42.8204 H              1 <1>                0.0000
     15 H15         27.3889  35.0001  42.4409 H              1 <1>                0.0000
@<TRIPOS>BOND
    1    1    2 1     
    2    1   13 1     
    3    1   14 1     
    4    2    3 ar    
    5    2    8 ar    
    6    3    4 ar    
    7    3   10 1     
    8    4    5 ar    
    9    4   11 1     
   10    5    6 ar    
   11    5   12 1     
   12    6    7 1     
   13    6    8 ar    
   14    8    9 1     
   15    9   15 1     
@<TRIPOS>SUBSTRUCTURE
      1 ****           1
@<TRIPOS>SET
DONOR_HYDROGENS      STATIC     ATOMS    <user>   **** ""
3 13 14 15
ATOM$RED        STATIC     ATOMS    COLORGROUP SYSTEM
3 13 14 15
@<TRIPOS>COMMENT
> <Gold.Version>
2022.2.0

> <Gold.Id.Protein>
1qkm|1qkm_protein|mol2

> <Gold.Protein.RotatedTorsions>
[  496  491  490  487 ] final   62.84 input  -89.99 | X-H torsion

> <Gold.Protein.ActiveResidues>
 MET295  LEU298  THR299  LEU301  ALA302  GLU305  TRP335  MET336  LEU339  MET340 
 GLY342  LEU343  ARG346  PHE356  ILE373  ILE376  PHE377  LEU380  LYS471  GLY472 
 MET473  HIS475  LEU476  LEU477  ASN478  MET479  VAL484  VAL487 

> <Gold.Protein.RotatedAtoms>
   36.5753   33.2835   42.2845 H   0  0  0  0  0  0  0  0  0  0  0  0  # atno 496  bound_to 491 

> <Gold.Score>
     Score     S(PLP)   S(hbond)     S(cho)   S(metal)  DE(clash)   DE(tors)     intcor
     40.19     -34.19       2.00       0.00       0.00       0.00       0.00       0.00

> <Gold.PLP.Fitness>
40.1943

> <Gold.PLP.PLP>
-34.1943

> <Gold.PLP.part.hbond>
-2.0000

> <Gold.PLP.part.metal>
0.0000

> <Gold.PLP.part.buried>
-4.3880

> <Gold.PLP.part.nonpolar>
-29.3634

> <Gold.PLP.part.repulsive>
1.1311

> <Gold.PLP.ligand.clash>
0.0000

> <Gold.PLP.ligand.torsion>
0.0000

> <Gold.PLP.Chemscore.Hbond>
2.0000

> <Gold.PLP.Chemscore.CHOScore>
0.0000

> <Gold.PLP.Chemscore.Metal>
0.0000

> <Gold.Chemscore.Hbonds>
donor molecule, donor type, donor heavy atom, donor atom, acceptor molecule, acceptor atom, score
      L1  H     1    14       P1   582  1.00
      L1  H     9    15       P1   582  1.00

> <Gold.PLP.Chemscore.Internal.Correction>
0.0000

