#       Name:                EN300-74934_i001
#       Creating user name   aseyller
#       Creation time:       Fri Apr 21 16:26:06 2023


#       File generated by GOLD software.
#

@<TRIPOS>MOLECULE
EN300-74934_i001|aminophenols|mol2|15|dock19
    15    15     1
SMALL
USER_CHARGES


@<TRIPOS>ATOM
      1 N1          29.1955  35.7978  42.0947 N.pl3          1 <1>                0.0000
      2 C2          28.4142  36.1432  40.9860 C.ar           1 <1>                0.0000
      3 C3          28.9219  35.9934  39.7034 C.ar           1 <1>                0.0000
      4 C4          28.1490  36.3355  38.6098 C.ar           1 <1>                0.0000
      5 C5          26.8693  36.8270  38.7899 C.ar           1 <1>                0.0000
      6 C6          26.3559  36.9789  40.0659 C.ar           1 <1>                0.0000
      7 Cl7         24.7486  37.5965  40.2870 Cl             1 <1>                0.0000
      8 C8          27.1230  36.6329  41.1673 C.ar           1 <1>                0.0000
      9 O9          26.6199  36.7812  42.4224 O.3            1 <1>                0.0000
     10 H10         29.9211  35.6096  39.5597 H              1 <1>                0.0000
     11 H11         28.5459  36.2189  37.6122 H              1 <1>                0.0000
     12 H12         26.2691  37.0934  37.9325 H              1 <1>                0.0000
     13 H13         30.0932  35.4530  41.9670 H              1 <1>                0.0000
     14 H14         28.8409  35.9069  42.9909 H              1 <1>                0.0000
     15 H15         26.4409  35.9459  42.8755 H              1 <1>                0.0000
@<TRIPOS>BOND
    1    1    2 1     
    2    1   13 1     
    3    1   14 1     
    4    2    3 ar    
    5    2    8 ar    
    6    3    4 ar    
    7    3   10 1     
    8    4    5 ar    
    9    4   11 1     
   10    5    6 ar    
   11    5   12 1     
   12    6    7 1     
   13    6    8 ar    
   14    8    9 1     
   15    9   15 1     
@<TRIPOS>SUBSTRUCTURE
      1 ****           1
@<TRIPOS>SET
DONOR_HYDROGENS      STATIC     ATOMS    <user>   **** ""
3 13 14 15
ATOM$RED        STATIC     ATOMS    COLORGROUP SYSTEM
3 13 14 15
@<TRIPOS>COMMENT
> <Gold.Version>
2022.2.0

> <Gold.Id.Protein>
1qkm|1qkm_protein|mol2

> <Gold.Protein.RotatedTorsions>
[  496  491  490  487 ] final  -73.05 input  -89.99 | X-H torsion

> <Gold.Protein.ActiveResidues>
 MET295  LEU298  THR299  LEU301  ALA302  GLU305  TRP335  MET336  LEU339  MET340 
 GLY342  LEU343  ARG346  PHE356  ILE373  ILE376  PHE377  LEU380  LYS471  GLY472 
 MET473  HIS475  LEU476  LEU477  ASN478  MET479  VAL484  VAL487 

> <Gold.Protein.RotatedAtoms>
   36.6044   34.7275   41.2993 H   0  0  0  0  0  0  0  0  0  0  0  0  # atno 496  bound_to 491 

> <Gold.Score>
     Score     S(PLP)   S(hbond)     S(cho)   S(metal)  DE(clash)   DE(tors)     intcor
     33.89     -27.89       2.00       0.00       0.00       0.00       0.00       0.00

> <Gold.PLP.Fitness>
33.8857

> <Gold.PLP.PLP>
-27.8857

> <Gold.PLP.part.hbond>
-2.0000

> <Gold.PLP.part.metal>
0.0000

> <Gold.PLP.part.buried>
-0.5416

> <Gold.PLP.part.nonpolar>
-25.4789

> <Gold.PLP.part.repulsive>
0.1137

> <Gold.PLP.ligand.clash>
0.0000

> <Gold.PLP.ligand.torsion>
0.0000

> <Gold.PLP.Chemscore.Hbond>
2.0000

> <Gold.PLP.Chemscore.CHOScore>
0.0000

> <Gold.PLP.Chemscore.Metal>
0.0000

> <Gold.Chemscore.Hbonds>
donor molecule, donor type, donor heavy atom, donor atom, acceptor molecule, acceptor atom, score
      L1  H     1    13       P1   470  1.00
      L1  H     9    15       P1   582  1.00

> <Gold.PLP.Chemscore.Internal.Correction>
0.0000

