#       Name:                EN300-74934_i001
#       Creating user name   aseyller
#       Creation time:       Fri Apr 21 16:26:04 2023


#       File generated by GOLD software.
#

@<TRIPOS>MOLECULE
EN300-74934_i001|aminophenols|mol2|15|dock13
    15    15     1
SMALL
USER_CHARGES


@<TRIPOS>ATOM
      1 N1          29.4330  35.9793  40.7334 N.pl3          1 <1>                0.0000
      2 C2          29.5712  36.4286  39.4150 C.ar           1 <1>                0.0000
      3 C3          28.6386  37.3039  38.8771 C.ar           1 <1>                0.0000
      4 C4          28.7766  37.7461  37.5748 C.ar           1 <1>                0.0000
      5 C5          29.8427  37.3187  36.8052 C.ar           1 <1>                0.0000
      6 C6          30.7770  36.4461  37.3348 C.ar           1 <1>                0.0000
      7 Cl7         32.1139  35.9122  36.3646 Cl             1 <1>                0.0000
      8 C8          30.6483  36.0025  38.6417 C.ar           1 <1>                0.0000
      9 O9          31.5660  35.1449  39.1642 O.3            1 <1>                0.0000
     10 H10         27.8048  37.6395  39.4759 H              1 <1>                0.0000
     11 H11         28.0495  38.4269  37.1574 H              1 <1>                0.0000
     12 H12         29.9463  37.6665  35.7880 H              1 <1>                0.0000
     13 H13         28.6845  36.2799  41.2722 H              1 <1>                0.0000
     14 H14         30.0833  35.3642  41.1069 H              1 <1>                0.0000
     15 H15         31.4011  34.9069  40.0868 H              1 <1>                0.0000
@<TRIPOS>BOND
    1    1    2 1     
    2    1   13 1     
    3    1   14 1     
    4    2    3 ar    
    5    2    8 ar    
    6    3    4 ar    
    7    3   10 1     
    8    4    5 ar    
    9    4   11 1     
   10    5    6 ar    
   11    5   12 1     
   12    6    7 1     
   13    6    8 ar    
   14    8    9 1     
   15    9   15 1     
@<TRIPOS>SUBSTRUCTURE
      1 ****           1
@<TRIPOS>SET
DONOR_HYDROGENS      STATIC     ATOMS    <user>   **** ""
3 13 14 15
ATOM$RED        STATIC     ATOMS    COLORGROUP SYSTEM
3 13 14 15
@<TRIPOS>COMMENT
> <Gold.Version>
2022.2.0

> <Gold.Id.Protein>
1qkm|1qkm_protein|mol2

> <Gold.Protein.RotatedTorsions>
[  496  491  490  487 ] final  151.80 input  -89.99 | X-H torsion

> <Gold.Protein.ActiveResidues>
 MET295  LEU298  THR299  LEU301  ALA302  GLU305  TRP335  MET336  LEU339  MET340 
 GLY342  LEU343  ARG346  PHE356  ILE373  ILE376  PHE377  LEU380  LYS471  GLY472 
 MET473  HIS475  LEU476  LEU477  ASN478  MET479  VAL484  VAL487 

> <Gold.Protein.RotatedAtoms>
   37.2699   33.1208   41.1719 H   0  0  0  0  0  0  0  0  0  0  0  0  # atno 496  bound_to 491 

> <Gold.Score>
     Score     S(PLP)   S(hbond)     S(cho)   S(metal)  DE(clash)   DE(tors)     intcor
     31.22     -25.51       1.90       0.00       0.00       0.00       0.00       0.00

> <Gold.PLP.Fitness>
31.2196

> <Gold.PLP.PLP>
-25.5124

> <Gold.PLP.part.hbond>
-2.0000

> <Gold.PLP.part.metal>
0.0000

> <Gold.PLP.part.buried>
-1.6105

> <Gold.PLP.part.nonpolar>
-21.5489

> <Gold.PLP.part.repulsive>
0.0603

> <Gold.PLP.ligand.clash>
0.0000

> <Gold.PLP.ligand.torsion>
0.0000

> <Gold.PLP.Chemscore.Hbond>
1.9024

> <Gold.PLP.Chemscore.CHOScore>
0.0000

> <Gold.PLP.Chemscore.Metal>
0.0000

> <Gold.Chemscore.Hbonds>
donor molecule, donor type, donor heavy atom, donor atom, acceptor molecule, acceptor atom, score
      L1  H     1    14       P1   470  0.96
      L1  H     9    15       P1   470  0.94

> <Gold.PLP.Chemscore.Internal.Correction>
0.0000

