#       Name:                EN300-74934_i001
#       Creating user name   aseyller
#       Creation time:       Fri Apr 21 16:26:01 2023


#       File generated by GOLD software.
#

@<TRIPOS>MOLECULE
EN300-74934_i001|aminophenols|mol2|15|dock4
    15    15     1
SMALL
USER_CHARGES


@<TRIPOS>ATOM
      1 N1          24.9780  35.9028  41.5137 N.pl3          1 <1>                0.0000
      2 C2          26.2157  36.1182  40.8966 C.ar           1 <1>                0.0000
      3 C3          27.3775  35.6335  41.4801 C.ar           1 <1>                0.0000
      4 C4          28.5988  35.8477  40.8693 C.ar           1 <1>                0.0000
      5 C5          28.6668  36.5440  39.6769 C.ar           1 <1>                0.0000
      6 C6          27.5123  37.0300  39.0887 C.ar           1 <1>                0.0000
      7 Cl7         27.6026  37.9038  37.5913 Cl             1 <1>                0.0000
      8 C8          26.2834  36.8146  39.6924 C.ar           1 <1>                0.0000
      9 O9          25.1474  37.2914  39.1155 O.3            1 <1>                0.0000
     10 H10         27.3275  35.0893  42.4115 H              1 <1>                0.0000
     11 H11         29.5023  35.4704  41.3251 H              1 <1>                0.0000
     12 H12         29.6233  36.7092  39.2034 H              1 <1>                0.0000
     13 H13         24.9317  35.4141  42.3504 H              1 <1>                0.0000
     14 H14         24.1669  36.2456  41.1069 H              1 <1>                0.0000
     15 H15         24.3332  36.9384  39.4998 H              1 <1>                0.0000
@<TRIPOS>BOND
    1    1    2 1     
    2    1   13 1     
    3    1   14 1     
    4    2    3 ar    
    5    2    8 ar    
    6    3    4 ar    
    7    3   10 1     
    8    4    5 ar    
    9    4   11 1     
   10    5    6 ar    
   11    5   12 1     
   12    6    7 1     
   13    6    8 ar    
   14    8    9 1     
   15    9   15 1     
@<TRIPOS>SUBSTRUCTURE
      1 ****           1
@<TRIPOS>SET
DONOR_HYDROGENS      STATIC     ATOMS    <user>   **** ""
3 13 14 15
ATOM$RED        STATIC     ATOMS    COLORGROUP SYSTEM
3 13 14 15
@<TRIPOS>COMMENT
> <Gold.Version>
2022.2.0

> <Gold.Id.Protein>
1qkm|1qkm_protein|mol2

> <Gold.Protein.RotatedTorsions>
[  496  491  490  487 ] final    8.55 input  -89.99 | X-H torsion

> <Gold.Protein.ActiveResidues>
 MET295  LEU298  THR299  LEU301  ALA302  GLU305  TRP335  MET336  LEU339  MET340 
 GLY342  LEU343  ARG346  PHE356  ILE373  ILE376  PHE377  LEU380  LYS471  GLY472 
 MET473  HIS475  LEU476  LEU477  ASN478  MET479  VAL484  VAL487 

> <Gold.Protein.RotatedAtoms>
   36.2703   34.0882   42.2987 H   0  0  0  0  0  0  0  0  0  0  0  0  # atno 496  bound_to 491 

> <Gold.Score>
     Score     S(PLP)   S(hbond)     S(cho)   S(metal)  DE(clash)   DE(tors)     intcor
     37.38     -30.33       2.35       0.00       0.00       0.00       0.00       0.00

> <Gold.PLP.Fitness>
37.3755

> <Gold.PLP.PLP>
-30.3283

> <Gold.PLP.part.hbond>
-3.0000

> <Gold.PLP.part.metal>
0.0000

> <Gold.PLP.part.buried>
0.9438

> <Gold.PLP.part.nonpolar>
-29.2155

> <Gold.PLP.part.repulsive>
0.1495

> <Gold.PLP.ligand.clash>
0.0000

> <Gold.PLP.ligand.torsion>
0.0000

> <Gold.PLP.Chemscore.Hbond>
2.3490

> <Gold.PLP.Chemscore.CHOScore>
0.0000

> <Gold.PLP.Chemscore.Metal>
0.0000

> <Gold.Chemscore.Hbonds>
donor molecule, donor type, donor heavy atom, donor atom, acceptor molecule, acceptor atom, score
      L1  H     1    13       P1   582  0.90
      L1  H     1    14       P1  1131  0.72
      L1  H     9    15       P1  1131  0.73

> <Gold.PLP.Chemscore.Internal.Correction>
0.0000

