#       Name:                EN300-74934_i001
#       Creating user name   aseyller
#       Creation time:       Fri Apr 21 16:26:02 2023


#       File generated by GOLD software.
#

@<TRIPOS>MOLECULE
EN300-74934_i001|aminophenols|mol2|15|dock7
    15    15     1
SMALL
USER_CHARGES


@<TRIPOS>ATOM
      1 N1          30.2547  35.4304  39.6689 N.pl3          1 <1>                0.0000
      2 C2          28.9031  35.7763  39.7820 C.ar           1 <1>                0.0000
      3 C3          28.0717  35.7049  38.6734 C.ar           1 <1>                0.0000
      4 C4          26.7375  36.0473  38.7870 C.ar           1 <1>                0.0000
      5 C5          26.2275  36.4610  40.0037 C.ar           1 <1>                0.0000
      6 C6          27.0503  36.5343  41.1138 C.ar           1 <1>                0.0000
      7 Cl7         26.4054  37.0543  42.6395 Cl             1 <1>                0.0000
      8 C8          28.3882  36.1874  41.0090 C.ar           1 <1>                0.0000
      9 O9          29.1986  36.2585  42.0993 O.3            1 <1>                0.0000
     10 H10         28.4673  35.3821  37.7217 H              1 <1>                0.0000
     11 H11         26.0918  35.9919  37.9231 H              1 <1>                0.0000
     12 H12         25.1844  36.7279  40.0878 H              1 <1>                0.0000
     13 H13         30.6112  35.1404  38.8146 H              1 <1>                0.0000
     14 H14         30.8357  35.4846  40.4436 H              1 <1>                0.0000
     15 H15         30.0339  35.7816  42.0002 H              1 <1>                0.0000
@<TRIPOS>BOND
    1    1    2 1     
    2    1   13 1     
    3    1   14 1     
    4    2    3 ar    
    5    2    8 ar    
    6    3    4 ar    
    7    3   10 1     
    8    4    5 ar    
    9    4   11 1     
   10    5    6 ar    
   11    5   12 1     
   12    6    7 1     
   13    6    8 ar    
   14    8    9 1     
   15    9   15 1     
@<TRIPOS>SUBSTRUCTURE
      1 ****           1
@<TRIPOS>SET
DONOR_HYDROGENS      STATIC     ATOMS    <user>   **** ""
3 13 14 15
ATOM$RED        STATIC     ATOMS    COLORGROUP SYSTEM
3 13 14 15
@<TRIPOS>COMMENT
> <Gold.Version>
2022.2.0

> <Gold.Id.Protein>
1qkm|1qkm_protein|mol2

> <Gold.Protein.RotatedTorsions>
[  496  491  490  487 ] final  -13.02 input  -89.99 | X-H torsion

> <Gold.Protein.ActiveResidues>
 MET295  LEU298  THR299  LEU301  ALA302  GLU305  TRP335  MET336  LEU339  MET340 
 GLY342  LEU343  ARG346  PHE356  ILE373  ILE376  PHE377  LEU380  LYS471  GLY472 
 MET473  HIS475  LEU476  LEU477  ASN478  MET479  VAL484  VAL487 

> <Gold.Protein.RotatedAtoms>
   36.2662   34.3877   42.1120 H   0  0  0  0  0  0  0  0  0  0  0  0  # atno 496  bound_to 491 

> <Gold.Score>
     Score     S(PLP)   S(hbond)     S(cho)   S(metal)  DE(clash)   DE(tors)     intcor
     35.15     -29.15       2.00       0.00       0.00       0.00       0.00       0.00

> <Gold.PLP.Fitness>
35.1507

> <Gold.PLP.PLP>
-29.1507

> <Gold.PLP.part.hbond>
-2.0000

> <Gold.PLP.part.metal>
0.0000

> <Gold.PLP.part.buried>
0.4513

> <Gold.PLP.part.nonpolar>
-27.8594

> <Gold.PLP.part.repulsive>
0.0627

> <Gold.PLP.ligand.clash>
0.0000

> <Gold.PLP.ligand.torsion>
0.0000

> <Gold.PLP.Chemscore.Hbond>
2.0000

> <Gold.PLP.Chemscore.CHOScore>
0.0000

> <Gold.PLP.Chemscore.Metal>
0.0000

> <Gold.Chemscore.Hbonds>
donor molecule, donor type, donor heavy atom, donor atom, acceptor molecule, acceptor atom, score
      L1  H     1    14       P1   470  1.00
      L1  H     9    15       P1   470  1.00

> <Gold.PLP.Chemscore.Internal.Correction>
0.0000

