#       Name:                EN300-74934_i001
#       Creating user name   aseyller
#       Creation time:       Fri Apr 21 16:26:04 2023


#       File generated by GOLD software.
#

@<TRIPOS>MOLECULE
EN300-74934_i001|aminophenols|mol2|15|dock12
    15    15     1
SMALL
USER_CHARGES


@<TRIPOS>ATOM
      1 N1          34.7644  36.5201  34.8686 N.pl3          1 <1>                0.0000
      2 C2          33.5360  36.5608  35.5382 C.ar           1 <1>                0.0000
      3 C3          33.3227  35.7579  36.6496 C.ar           1 <1>                0.0000
      4 C4          32.1088  35.7992  37.3092 C.ar           1 <1>                0.0000
      5 C5          31.1048  36.6396  36.8649 C.ar           1 <1>                0.0000
      6 C6          31.3103  37.4436  35.7576 C.ar           1 <1>                0.0000
      7 Cl7         30.0467  38.4971  35.2034 Cl             1 <1>                0.0000
      8 C8          32.5268  37.4116  35.0941 C.ar           1 <1>                0.0000
      9 O9          32.7307  38.2015  34.0055 O.3            1 <1>                0.0000
     10 H10         34.1051  35.1005  36.9990 H              1 <1>                0.0000
     11 H11         31.9441  35.1732  38.1737 H              1 <1>                0.0000
     12 H12         30.1578  36.6683  37.3833 H              1 <1>                0.0000
     13 H13         35.4680  35.9300  35.1814 H              1 <1>                0.0000
     14 H14         34.9109  37.0789  34.0894 H              1 <1>                0.0000
     15 H15         33.6598  38.2900  33.7524 H              1 <1>                0.0000
@<TRIPOS>BOND
    1    1    2 1     
    2    1   13 1     
    3    1   14 1     
    4    2    3 ar    
    5    2    8 ar    
    6    3    4 ar    
    7    3   10 1     
    8    4    5 ar    
    9    4   11 1     
   10    5    6 ar    
   11    5   12 1     
   12    6    7 1     
   13    6    8 ar    
   14    8    9 1     
   15    9   15 1     
@<TRIPOS>SUBSTRUCTURE
      1 ****           1
@<TRIPOS>SET
DONOR_HYDROGENS      STATIC     ATOMS    <user>   **** ""
3 13 14 15
ATOM$RED        STATIC     ATOMS    COLORGROUP SYSTEM
3 13 14 15
@<TRIPOS>COMMENT
> <Gold.Version>
2022.2.0

> <Gold.Id.Protein>
1qkm|1qkm_protein|mol2

> <Gold.Protein.RotatedTorsions>
[  496  491  490  487 ] final -101.24 input  -89.99 | X-H torsion

> <Gold.Protein.ActiveResidues>
 MET295  LEU298  THR299  LEU301  ALA302  GLU305  TRP335  MET336  LEU339  MET340 
 GLY342  LEU343  ARG346  PHE356  ILE373  ILE376  PHE377  LEU380  LYS471  GLY472 
 MET473  HIS475  LEU476  LEU477  ASN478  MET479  VAL484  VAL487 

> <Gold.Protein.RotatedAtoms>
   36.8610   34.5644   40.9550 H   0  0  0  0  0  0  0  0  0  0  0  0  # atno 496  bound_to 491 

> <Gold.Score>
     Score     S(PLP)   S(hbond)     S(cho)   S(metal)  DE(clash)   DE(tors)     intcor
     30.87     -24.87       2.00       0.00       0.00       0.00       0.00       0.00

> <Gold.PLP.Fitness>
30.8689

> <Gold.PLP.PLP>
-24.8689

> <Gold.PLP.part.hbond>
-2.0000

> <Gold.PLP.part.metal>
0.0000

> <Gold.PLP.part.buried>
-0.0675

> <Gold.PLP.part.nonpolar>
-23.1613

> <Gold.PLP.part.repulsive>
0.0853

> <Gold.PLP.ligand.clash>
0.0000

> <Gold.PLP.ligand.torsion>
0.0000

> <Gold.PLP.Chemscore.Hbond>
2.0000

> <Gold.PLP.Chemscore.CHOScore>
0.0000

> <Gold.PLP.Chemscore.Metal>
0.0000

> <Gold.Chemscore.Hbonds>
donor molecule, donor type, donor heavy atom, donor atom, acceptor molecule, acceptor atom, score
      L1  H     1    14       P1  3229  1.00
      L1  H     9    15       P1  3229  1.00

> <Gold.PLP.Chemscore.Internal.Correction>
0.0000

