#       Name:                EN300-74934_i001
#       Creating user name   aseyller
#       Creation time:       Fri Apr 21 16:26:04 2023


#       File generated by GOLD software.
#

@<TRIPOS>MOLECULE
EN300-74934_i001|aminophenols|mol2|15|dock14
    15    15     1
SMALL
USER_CHARGES


@<TRIPOS>ATOM
      1 N1          32.8550  35.5228  37.2666 N.pl3          1 <1>                0.0000
      2 C2          31.7446  36.3135  37.5840 C.ar           1 <1>                0.0000
      3 C3          31.4551  37.4411  36.8291 C.ar           1 <1>                0.0000
      4 C4          30.3584  38.2210  37.1444 C.ar           1 <1>                0.0000
      5 C5          29.5473  37.8805  38.2110 C.ar           1 <1>                0.0000
      6 C6          29.8294  36.7572  38.9683 C.ar           1 <1>                0.0000
      7 Cl7         28.8080  36.3337  40.3067 Cl             1 <1>                0.0000
      8 C8          30.9243  35.9672  38.6549 C.ar           1 <1>                0.0000
      9 O9          31.2030  34.8624  39.3980 O.3            1 <1>                0.0000
     10 H10         32.0869  37.7096  35.9953 H              1 <1>                0.0000
     11 H11         30.1348  39.0987  36.5563 H              1 <1>                0.0000
     12 H12         28.6916  38.4930  38.4540 H              1 <1>                0.0000
     13 H13         33.4233  35.7628  36.5180 H              1 <1>                0.0000
     14 H14         33.0587  34.7370  37.7977 H              1 <1>                0.0000
     15 H15         31.3126  35.0408  40.3421 H              1 <1>                0.0000
@<TRIPOS>BOND
    1    1    2 1     
    2    1   13 1     
    3    1   14 1     
    4    2    3 ar    
    5    2    8 ar    
    6    3    4 ar    
    7    3   10 1     
    8    4    5 ar    
    9    4   11 1     
   10    5    6 ar    
   11    5   12 1     
   12    6    7 1     
   13    6    8 ar    
   14    8    9 1     
   15    9   15 1     
@<TRIPOS>SUBSTRUCTURE
      1 ****           1
@<TRIPOS>SET
DONOR_HYDROGENS      STATIC     ATOMS    <user>   **** ""
3 13 14 15
ATOM$RED        STATIC     ATOMS    COLORGROUP SYSTEM
3 13 14 15
@<TRIPOS>COMMENT
> <Gold.Version>
2022.2.0

> <Gold.Id.Protein>
1qkm|1qkm_protein|mol2

> <Gold.Protein.RotatedTorsions>
[  496  491  490  487 ] final  -82.14 input  -89.99 | X-H torsion

> <Gold.Protein.ActiveResidues>
 MET295  LEU298  THR299  LEU301  ALA302  GLU305  TRP335  MET336  LEU339  MET340 
 GLY342  LEU343  ARG346  PHE356  ILE373  ILE376  PHE377  LEU380  LYS471  GLY472 
 MET473  HIS475  LEU476  LEU477  ASN478  MET479  VAL484  VAL487 

> <Gold.Protein.RotatedAtoms>
   36.6853   34.6971   41.1773 H   0  0  0  0  0  0  0  0  0  0  0  0  # atno 496  bound_to 491 

> <Gold.Score>
     Score     S(PLP)   S(hbond)     S(cho)   S(metal)  DE(clash)   DE(tors)     intcor
     30.18     -27.18       1.00       0.00       0.00       0.00       0.00       0.00

> <Gold.PLP.Fitness>
30.1834

> <Gold.PLP.PLP>
-27.1834

> <Gold.PLP.part.hbond>
-1.0000

> <Gold.PLP.part.metal>
0.0000

> <Gold.PLP.part.buried>
-1.8552

> <Gold.PLP.part.nonpolar>
-24.2264

> <Gold.PLP.part.repulsive>
0.0191

> <Gold.PLP.ligand.clash>
0.0000

> <Gold.PLP.ligand.torsion>
0.0000

> <Gold.PLP.Chemscore.Hbond>
1.0000

> <Gold.PLP.Chemscore.CHOScore>
0.0000

> <Gold.PLP.Chemscore.Metal>
0.0000

> <Gold.Chemscore.Hbonds>
donor molecule, donor type, donor heavy atom, donor atom, acceptor molecule, acceptor atom, score
      L1  H     9    15       P1   470  1.00

> <Gold.PLP.Chemscore.Internal.Correction>
0.0000

