#       Name:                EN300-74934_i001
#       Creating user name   aseyller
#       Creation time:       Fri Apr 21 16:26:04 2023


#       File generated by GOLD software.
#

@<TRIPOS>MOLECULE
EN300-74934_i001|aminophenols|mol2|15|dock15
    15    15     1
SMALL
USER_CHARGES


@<TRIPOS>ATOM
      1 N1          30.0036  38.0543  38.4877 N.pl3          1 <1>                0.0000
      2 C2          30.8962  37.1413  37.9142 C.ar           1 <1>                0.0000
      3 C3          31.6546  37.5088  36.8119 C.ar           1 <1>                0.0000
      4 C4          32.5351  36.6056  36.2468 C.ar           1 <1>                0.0000
      5 C5          32.6634  35.3354  36.7773 C.ar           1 <1>                0.0000
      6 C6          31.9107  34.9617  37.8768 C.ar           1 <1>                0.0000
      7 Cl7         32.0751  33.3656  38.5394 Cl             1 <1>                0.0000
      8 C8          31.0295  35.8637  38.4522 C.ar           1 <1>                0.0000
      9 O9          30.2890  35.4983  39.5334 O.3            1 <1>                0.0000
     10 H10         31.5566  38.5004  36.3954 H              1 <1>                0.0000
     11 H11         33.1242  36.8929  35.3884 H              1 <1>                0.0000
     12 H12         33.3524  34.6328  36.3323 H              1 <1>                0.0000
     13 H13         29.9146  38.9452  38.1144 H              1 <1>                0.0000
     14 H14         29.4711  37.7949  39.2557 H              1 <1>                0.0000
     15 H15         30.8059  35.3791  40.3419 H              1 <1>                0.0000
@<TRIPOS>BOND
    1    1    2 1     
    2    1   13 1     
    3    1   14 1     
    4    2    3 ar    
    5    2    8 ar    
    6    3    4 ar    
    7    3   10 1     
    8    4    5 ar    
    9    4   11 1     
   10    5    6 ar    
   11    5   12 1     
   12    6    7 1     
   13    6    8 ar    
   14    8    9 1     
   15    9   15 1     
@<TRIPOS>SUBSTRUCTURE
      1 ****           1
@<TRIPOS>SET
DONOR_HYDROGENS      STATIC     ATOMS    <user>   **** ""
3 13 14 15
ATOM$RED        STATIC     ATOMS    COLORGROUP SYSTEM
3 13 14 15
@<TRIPOS>COMMENT
> <Gold.Version>
2022.2.0

> <Gold.Id.Protein>
1qkm|1qkm_protein|mol2

> <Gold.Protein.RotatedTorsions>
[  496  491  490  487 ] final  157.94 input  -89.99 | X-H torsion

> <Gold.Protein.ActiveResidues>
 MET295  LEU298  THR299  LEU301  ALA302  GLU305  TRP335  MET336  LEU339  MET340 
 GLY342  LEU343  ARG346  PHE356  ILE373  ILE376  PHE377  LEU380  LYS471  GLY472 
 MET473  HIS475  LEU476  LEU477  ASN478  MET479  VAL484  VAL487 

> <Gold.Protein.RotatedAtoms>
   37.2909   33.1828   41.0950 H   0  0  0  0  0  0  0  0  0  0  0  0  # atno 496  bound_to 491 

> <Gold.Score>
     Score     S(PLP)   S(hbond)     S(cho)   S(metal)  DE(clash)   DE(tors)     intcor
     31.69     -28.69       1.00       0.00       0.00       0.00       0.00       0.00

> <Gold.PLP.Fitness>
31.6939

> <Gold.PLP.PLP>
-28.6939

> <Gold.PLP.part.hbond>
-1.0000

> <Gold.PLP.part.metal>
0.0000

> <Gold.PLP.part.buried>
-2.4953

> <Gold.PLP.part.nonpolar>
-25.5900

> <Gold.PLP.part.repulsive>
0.0000

> <Gold.PLP.ligand.clash>
0.0000

> <Gold.PLP.ligand.torsion>
0.0000

> <Gold.PLP.Chemscore.Hbond>
1.0000

> <Gold.PLP.Chemscore.CHOScore>
0.0000

> <Gold.PLP.Chemscore.Metal>
0.0000

> <Gold.Chemscore.Hbonds>
donor molecule, donor type, donor heavy atom, donor atom, acceptor molecule, acceptor atom, score
      L1  H     9    15       P1   470  1.00

> <Gold.PLP.Chemscore.Internal.Correction>
0.0000

