#       Name:                EN300-74934_i001
#       Creating user name   aseyller
#       Creation time:       Fri Apr 21 16:26:06 2023


#       File generated by GOLD software.
#

@<TRIPOS>MOLECULE
EN300-74934_i001|aminophenols|mol2|15|dock20
    15    15     1
SMALL
USER_CHARGES


@<TRIPOS>ATOM
      1 N1          31.1943  35.4958  39.3778 N.pl3          1 <1>                0.0000
      2 C2          29.9967  36.1111  38.9957 C.ar           1 <1>                0.0000
      3 C3          29.8823  36.6911  37.7404 C.ar           1 <1>                0.0000
      4 C4          28.6989  37.2987  37.3651 C.ar           1 <1>                0.0000
      5 C5          27.6268  37.3301  38.2375 C.ar           1 <1>                0.0000
      6 C6          27.7331  36.7533  39.4908 C.ar           1 <1>                0.0000
      7 Cl7         26.3842  36.7953  40.5829 Cl             1 <1>                0.0000
      8 C8          28.9148  36.1376  39.8724 C.ar           1 <1>                0.0000
      9 O9          29.0211  35.5698  41.1040 O.3            1 <1>                0.0000
     10 H10         30.7181  36.6681  37.0568 H              1 <1>                0.0000
     11 H11         28.6117  37.7503  36.3880 H              1 <1>                0.0000
     12 H12         26.7041  37.8062  37.9401 H              1 <1>                0.0000
     13 H13         31.9458  35.4745  38.7648 H              1 <1>                0.0000
     14 H14         31.2743  35.0942  40.2571 H              1 <1>                0.0000
     15 H15         29.9323  35.4543  41.4065 H              1 <1>                0.0000
@<TRIPOS>BOND
    1    1    2 1     
    2    1   13 1     
    3    1   14 1     
    4    2    3 ar    
    5    2    8 ar    
    6    3    4 ar    
    7    3   10 1     
    8    4    5 ar    
    9    4   11 1     
   10    5    6 ar    
   11    5   12 1     
   12    6    7 1     
   13    6    8 ar    
   14    8    9 1     
   15    9   15 1     
@<TRIPOS>SUBSTRUCTURE
      1 ****           1
@<TRIPOS>SET
DONOR_HYDROGENS      STATIC     ATOMS    <user>   **** ""
3 13 14 15
ATOM$RED        STATIC     ATOMS    COLORGROUP SYSTEM
3 13 14 15
@<TRIPOS>COMMENT
> <Gold.Version>
2022.2.0

> <Gold.Id.Protein>
1qkm|1qkm_protein|mol2

> <Gold.Protein.RotatedTorsions>
[  496  491  490  487 ] final  152.15 input  -89.99 | X-H torsion

> <Gold.Protein.ActiveResidues>
 MET295  LEU298  THR299  LEU301  ALA302  GLU305  TRP335  MET336  LEU339  MET340 
 GLY342  LEU343  ARG346  PHE356  ILE373  ILE376  PHE377  LEU380  LYS471  GLY472 
 MET473  HIS475  LEU476  LEU477  ASN478  MET479  VAL484  VAL487 

> <Gold.Protein.RotatedAtoms>
   37.2713   33.1241   41.1674 H   0  0  0  0  0  0  0  0  0  0  0  0  # atno 496  bound_to 491 

> <Gold.Score>
     Score     S(PLP)   S(hbond)     S(cho)   S(metal)  DE(clash)   DE(tors)     intcor
     32.89     -26.89       2.00       0.00       0.00       0.00       0.00       0.00

> <Gold.PLP.Fitness>
32.8918

> <Gold.PLP.PLP>
-26.8918

> <Gold.PLP.part.hbond>
-2.0000

> <Gold.PLP.part.metal>
0.0000

> <Gold.PLP.part.buried>
-1.0511

> <Gold.PLP.part.nonpolar>
-24.0820

> <Gold.PLP.part.repulsive>
0.0755

> <Gold.PLP.ligand.clash>
0.0000

> <Gold.PLP.ligand.torsion>
0.0000

> <Gold.PLP.Chemscore.Hbond>
2.0000

> <Gold.PLP.Chemscore.CHOScore>
0.0000

> <Gold.PLP.Chemscore.Metal>
0.0000

> <Gold.Chemscore.Hbonds>
donor molecule, donor type, donor heavy atom, donor atom, acceptor molecule, acceptor atom, score
      L1  H     1    14       P1   470  1.00
      L1  H     9    15       P1   470  1.00

> <Gold.PLP.Chemscore.Internal.Correction>
0.0000

