#       Name:                EN300-74934_i001
#       Creating user name   aseyller
#       Creation time:       Fri Apr 21 16:26:03 2023


#       File generated by GOLD software.
#

@<TRIPOS>MOLECULE
EN300-74934_i001|aminophenols|mol2|15|dock11
    15    15     1
SMALL
USER_CHARGES


@<TRIPOS>ATOM
      1 N1          26.3168  36.0059  41.4018 N.pl3          1 <1>                0.0000
      2 C2          27.0781  36.3470  40.2780 C.ar           1 <1>                0.0000
      3 C3          26.4728  36.9497  39.1845 C.ar           1 <1>                0.0000
      4 C4          27.2263  37.2853  38.0755 C.ar           1 <1>                0.0000
      5 C5          28.5834  37.0226  38.0521 C.ar           1 <1>                0.0000
      6 C6          29.1943  36.4222  39.1389 C.ar           1 <1>                0.0000
      7 Cl7         30.8987  36.0942  39.1050 Cl             1 <1>                0.0000
      8 C8          28.4463  36.0875  40.2568 C.ar           1 <1>                0.0000
      9 O9          29.0451  35.4976  41.3264 O.3            1 <1>                0.0000
     10 H10         25.4128  37.1562  39.2000 H              1 <1>                0.0000
     11 H11         26.7535  37.7537  37.2249 H              1 <1>                0.0000
     12 H12         29.1682  37.2863  37.1833 H              1 <1>                0.0000
     13 H13         25.3646  36.1908  41.4169 H              1 <1>                0.0000
     14 H14         26.7404  35.5810  42.1639 H              1 <1>                0.0000
     15 H15         29.9781  35.2852  41.1870 H              1 <1>                0.0000
@<TRIPOS>BOND
    1    1    2 1     
    2    1   13 1     
    3    1   14 1     
    4    2    3 ar    
    5    2    8 ar    
    6    3    4 ar    
    7    3   10 1     
    8    4    5 ar    
    9    4   11 1     
   10    5    6 ar    
   11    5   12 1     
   12    6    7 1     
   13    6    8 ar    
   14    8    9 1     
   15    9   15 1     
@<TRIPOS>SUBSTRUCTURE
      1 ****           1
@<TRIPOS>SET
DONOR_HYDROGENS      STATIC     ATOMS    <user>   **** ""
3 13 14 15
ATOM$RED        STATIC     ATOMS    COLORGROUP SYSTEM
3 13 14 15
@<TRIPOS>COMMENT
> <Gold.Version>
2022.2.0

> <Gold.Id.Protein>
1qkm|1qkm_protein|mol2

> <Gold.Protein.RotatedTorsions>
[  496  491  490  487 ] final   65.88 input  -89.99 | X-H torsion

> <Gold.Protein.ActiveResidues>
 MET295  LEU298  THR299  LEU301  ALA302  GLU305  TRP335  MET336  LEU339  MET340 
 GLY342  LEU343  ARG346  PHE356  ILE373  ILE376  PHE377  LEU380  LYS471  GLY472 
 MET473  HIS475  LEU476  LEU477  ASN478  MET479  VAL484  VAL487 

> <Gold.Protein.RotatedAtoms>
   36.6013   33.2468   42.2626 H   0  0  0  0  0  0  0  0  0  0  0  0  # atno 496  bound_to 491 

> <Gold.Score>
     Score     S(PLP)   S(hbond)     S(cho)   S(metal)  DE(clash)   DE(tors)     intcor
     35.20     -30.55       1.55       0.00       0.00       0.00       0.00       0.00

> <Gold.PLP.Fitness>
35.1964

> <Gold.PLP.PLP>
-30.5510

> <Gold.PLP.part.hbond>
-2.0000

> <Gold.PLP.part.metal>
0.0000

> <Gold.PLP.part.buried>
-2.9370

> <Gold.PLP.part.nonpolar>
-25.7286

> <Gold.PLP.part.repulsive>
0.0466

> <Gold.PLP.ligand.clash>
0.0000

> <Gold.PLP.ligand.torsion>
0.0000

> <Gold.PLP.Chemscore.Hbond>
1.5485

> <Gold.PLP.Chemscore.CHOScore>
0.0000

> <Gold.PLP.Chemscore.Metal>
0.0000

> <Gold.Chemscore.Hbonds>
donor molecule, donor type, donor heavy atom, donor atom, acceptor molecule, acceptor atom, score
      L1  H     1    14       P1   582  0.70
      L1  H     9    15       P1   470  0.84

> <Gold.PLP.Chemscore.Internal.Correction>
0.0000

