#       Name:                EN300-74934_i001
#       Creating user name   aseyller
#       Creation time:       Fri Apr 21 16:26:05 2023


#       File generated by GOLD software.
#

@<TRIPOS>MOLECULE
EN300-74934_i001|aminophenols|mol2|15|dock17
    15    15     1
SMALL
USER_CHARGES


@<TRIPOS>ATOM
      1 N1          25.0263  37.2141  39.6021 N.pl3          1 <1>                0.0000
      2 C2          26.4045  36.9766  39.5462 C.ar           1 <1>                0.0000
      3 C3          27.0695  37.0226  38.3293 C.ar           1 <1>                0.0000
      4 C4          28.4304  36.7873  38.2761 C.ar           1 <1>                0.0000
      5 C5          29.1327  36.5062  39.4334 C.ar           1 <1>                0.0000
      6 C6          28.4765  36.4590  40.6508 C.ar           1 <1>                0.0000
      7 Cl7         29.3625  36.1056  42.1013 Cl             1 <1>                0.0000
      8 C8          27.1128  36.6991  40.7128 C.ar           1 <1>                0.0000
      9 O9          26.4661  36.6535  41.9088 O.3            1 <1>                0.0000
     10 H10         26.5235  37.2419  37.4236 H              1 <1>                0.0000
     11 H11         28.9464  36.8228  37.3280 H              1 <1>                0.0000
     12 H12         30.1960  36.3226  39.3871 H              1 <1>                0.0000
     13 H13         24.5348  37.4112  38.7893 H              1 <1>                0.0000
     14 H14         24.5619  37.1776  40.4529 H              1 <1>                0.0000
     15 H15         26.4269  35.7706  42.3012 H              1 <1>                0.0000
@<TRIPOS>BOND
    1    1    2 1     
    2    1   13 1     
    3    1   14 1     
    4    2    3 ar    
    5    2    8 ar    
    6    3    4 ar    
    7    3   10 1     
    8    4    5 ar    
    9    4   11 1     
   10    5    6 ar    
   11    5   12 1     
   12    6    7 1     
   13    6    8 ar    
   14    8    9 1     
   15    9   15 1     
@<TRIPOS>SUBSTRUCTURE
      1 ****           1
@<TRIPOS>SET
DONOR_HYDROGENS      STATIC     ATOMS    <user>   **** ""
3 13 14 15
ATOM$RED        STATIC     ATOMS    COLORGROUP SYSTEM
3 13 14 15
@<TRIPOS>COMMENT
> <Gold.Version>
2022.2.0

> <Gold.Id.Protein>
1qkm|1qkm_protein|mol2

> <Gold.Protein.RotatedTorsions>
[  496  491  490  487 ] final -171.31 input  -89.99 | X-H torsion

> <Gold.Protein.ActiveResidues>
 MET295  LEU298  THR299  LEU301  ALA302  GLU305  TRP335  MET336  LEU339  MET340 
 GLY342  LEU343  ARG346  PHE356  ILE373  ILE376  PHE377  LEU380  LYS471  GLY472 
 MET473  HIS475  LEU476  LEU477  ASN478  MET479  VAL484  VAL487 

> <Gold.Protein.RotatedAtoms>
   37.3070   33.5892   40.8039 H   0  0  0  0  0  0  0  0  0  0  0  0  # atno 496  bound_to 491 

> <Gold.Score>
     Score     S(PLP)   S(hbond)     S(cho)   S(metal)  DE(clash)   DE(tors)     intcor
     31.11     -28.11       1.00       0.00       0.00       0.00       0.00       0.00

> <Gold.PLP.Fitness>
31.1054

> <Gold.PLP.PLP>
-28.1054

> <Gold.PLP.part.hbond>
-2.0000

> <Gold.PLP.part.metal>
0.0000

> <Gold.PLP.part.buried>
2.3162

> <Gold.PLP.part.nonpolar>
-28.9241

> <Gold.PLP.part.repulsive>
0.1463

> <Gold.PLP.ligand.clash>
0.0000

> <Gold.PLP.ligand.torsion>
0.0000

> <Gold.PLP.Chemscore.Hbond>
1.0000

> <Gold.PLP.Chemscore.CHOScore>
0.0000

> <Gold.PLP.Chemscore.Metal>
0.0000

> <Gold.Chemscore.Hbonds>
donor molecule, donor type, donor heavy atom, donor atom, acceptor molecule, acceptor atom, score
      L1  H     9    15       P1   582  1.00

> <Gold.PLP.Chemscore.Internal.Correction>
0.0000

