#       Name:                EN300-74934_i001
#       Creating user name   aseyller
#       Creation time:       Fri Apr 21 16:26:01 2023


#       File generated by GOLD software.
#

@<TRIPOS>MOLECULE
EN300-74934_i001|aminophenols|mol2|15|dock3
    15    15     1
SMALL
USER_CHARGES


@<TRIPOS>ATOM
      1 N1          30.6097  35.8050  39.4741 N.pl3          1 <1>                0.0000
      2 C2          29.2911  36.2505  39.3260 C.ar           1 <1>                0.0000
      3 C3          28.8116  36.5995  38.0716 C.ar           1 <1>                0.0000
      4 C4          27.5093  37.0396  37.9275 C.ar           1 <1>                0.0000
      5 C5          26.6813  37.1330  39.0308 C.ar           1 <1>                0.0000
      6 C6          27.1522  36.7862  40.2849 C.ar           1 <1>                0.0000
      7 Cl7         26.1088  36.9051  41.6673 Cl             1 <1>                0.0000
      8 C8          28.4553  36.3390  40.4366 C.ar           1 <1>                0.0000
      9 O9          28.9199  35.9973  41.6687 O.3            1 <1>                0.0000
     10 H10         29.4560  36.5276  37.2080 H              1 <1>                0.0000
     11 H11         27.1378  37.3116  36.9506 H              1 <1>                0.0000
     12 H12         25.6645  37.4777  38.9135 H              1 <1>                0.0000
     13 H13         31.1896  35.7400  38.6992 H              1 <1>                0.0000
     14 H14         30.9449  35.5652  40.3522 H              1 <1>                0.0000
     15 H15         29.8413  35.7038  41.6740 H              1 <1>                0.0000
@<TRIPOS>BOND
    1    1    2 1     
    2    1   13 1     
    3    1   14 1     
    4    2    3 ar    
    5    2    8 ar    
    6    3    4 ar    
    7    3   10 1     
    8    4    5 ar    
    9    4   11 1     
   10    5    6 ar    
   11    5   12 1     
   12    6    7 1     
   13    6    8 ar    
   14    8    9 1     
   15    9   15 1     
@<TRIPOS>SUBSTRUCTURE
      1 ****           1
@<TRIPOS>SET
DONOR_HYDROGENS      STATIC     ATOMS    <user>   **** ""
3 13 14 15
ATOM$RED        STATIC     ATOMS    COLORGROUP SYSTEM
3 13 14 15
@<TRIPOS>COMMENT
> <Gold.Version>
2022.2.0

> <Gold.Id.Protein>
1qkm|1qkm_protein|mol2

> <Gold.Protein.RotatedTorsions>
[  496  491  490  487 ] final  109.42 input  -89.99 | X-H torsion

> <Gold.Protein.ActiveResidues>
 MET295  LEU298  THR299  LEU301  ALA302  GLU305  TRP335  MET336  LEU339  MET340 
 GLY342  LEU343  ARG346  PHE356  ILE373  ILE376  PHE377  LEU380  LYS471  GLY472 
 MET473  HIS475  LEU476  LEU477  ASN478  MET479  VAL484  VAL487 

> <Gold.Protein.RotatedAtoms>
   36.9943   32.9434   41.7699 H   0  0  0  0  0  0  0  0  0  0  0  0  # atno 496  bound_to 491 

> <Gold.Score>
     Score     S(PLP)   S(hbond)     S(cho)   S(metal)  DE(clash)   DE(tors)     intcor
     36.69     -31.15       1.84       0.00       0.00       0.00       0.00       0.00

> <Gold.PLP.Fitness>
36.6871

> <Gold.PLP.PLP>
-31.1521

> <Gold.PLP.part.hbond>
-1.9406

> <Gold.PLP.part.metal>
0.0000

> <Gold.PLP.part.buried>
-2.4937

> <Gold.PLP.part.nonpolar>
-27.6859

> <Gold.PLP.part.repulsive>
0.0507

> <Gold.PLP.ligand.clash>
0.0000

> <Gold.PLP.ligand.torsion>
0.0000

> <Gold.PLP.Chemscore.Hbond>
1.8450

> <Gold.PLP.Chemscore.CHOScore>
0.0000

> <Gold.PLP.Chemscore.Metal>
0.0000

> <Gold.Chemscore.Hbonds>
donor molecule, donor type, donor heavy atom, donor atom, acceptor molecule, acceptor atom, score
      L1  H     1    14       P1   470  1.00
      L1  H     9    15       P1   470  0.84

> <Gold.PLP.Chemscore.Internal.Correction>
0.0000

