#       Name:                EN300-74934_i001
#       Creating user name   aseyller
#       Creation time:       Fri Apr 21 16:26:02 2023


#       File generated by GOLD software.
#

@<TRIPOS>MOLECULE
EN300-74934_i001|aminophenols|mol2|15|dock8
    15    15     1
SMALL
USER_CHARGES


@<TRIPOS>ATOM
      1 N1          24.5554  36.6973  41.0684 N.pl3          1 <1>                0.0000
      2 C2          25.8013  36.6937  40.4307 C.ar           1 <1>                0.0000
      3 C3          25.8734  36.6974  39.0450 C.ar           1 <1>                0.0000
      4 C4          27.1047  36.6934  38.4171 C.ar           1 <1>                0.0000
      5 C5          28.2667  36.6861  39.1663 C.ar           1 <1>                0.0000
      6 C6          28.2028  36.6828  40.5486 C.ar           1 <1>                0.0000
      7 Cl7         29.6645  36.6736  41.4851 Cl             1 <1>                0.0000
      8 C8          26.9717  36.6922  41.1855 C.ar           1 <1>                0.0000
      9 O9          26.9069  36.6894  42.5443 O.3            1 <1>                0.0000
     10 H10         24.9674  36.7031  38.4572 H              1 <1>                0.0000
     11 H11         27.1592  36.6955  37.3385 H              1 <1>                0.0000
     12 H12         29.2266  36.6826  38.6714 H              1 <1>                0.0000
     13 H13         23.7408  36.7024  40.5416 H              1 <1>                0.0000
     14 H14         24.5063  36.6906  42.0371 H              1 <1>                0.0000
     15 H15         26.7664  35.8136  42.9294 H              1 <1>                0.0000
@<TRIPOS>BOND
    1    1    2 1     
    2    1   13 1     
    3    1   14 1     
    4    2    3 ar    
    5    2    8 ar    
    6    3    4 ar    
    7    3   10 1     
    8    4    5 ar    
    9    4   11 1     
   10    5    6 ar    
   11    5   12 1     
   12    6    7 1     
   13    6    8 ar    
   14    8    9 1     
   15    9   15 1     
@<TRIPOS>SUBSTRUCTURE
      1 ****           1
@<TRIPOS>SET
DONOR_HYDROGENS      STATIC     ATOMS    <user>   **** ""
3 13 14 15
ATOM$RED        STATIC     ATOMS    COLORGROUP SYSTEM
3 13 14 15
@<TRIPOS>COMMENT
> <Gold.Version>
2022.2.0

> <Gold.Id.Protein>
1qkm|1qkm_protein|mol2

> <Gold.Protein.RotatedTorsions>
[  496  491  490  487 ] final   21.60 input  -89.99 | X-H torsion

> <Gold.Protein.ActiveResidues>
 MET295  LEU298  THR299  LEU301  ALA302  GLU305  TRP335  MET336  LEU339  MET340 
 GLY342  LEU343  ARG346  PHE356  ILE373  ILE376  PHE377  LEU380  LYS471  GLY472 
 MET473  HIS475  LEU476  LEU477  ASN478  MET479  VAL484  VAL487 

> <Gold.Protein.RotatedAtoms>
   36.3084   33.8870   42.3619 H   0  0  0  0  0  0  0  0  0  0  0  0  # atno 496  bound_to 491 

> <Gold.Score>
     Score     S(PLP)   S(hbond)     S(cho)   S(metal)  DE(clash)   DE(tors)     intcor
     34.63     -28.63       2.00       0.00       0.00       0.00       0.00       0.00

> <Gold.PLP.Fitness>
34.6327

> <Gold.PLP.PLP>
-28.6327

> <Gold.PLP.part.hbond>
-1.9863

> <Gold.PLP.part.metal>
0.0000

> <Gold.PLP.part.buried>
2.1929

> <Gold.PLP.part.nonpolar>
-29.9852

> <Gold.PLP.part.repulsive>
1.0681

> <Gold.PLP.ligand.clash>
0.0000

> <Gold.PLP.ligand.torsion>
0.0000

> <Gold.PLP.Chemscore.Hbond>
2.0000

> <Gold.PLP.Chemscore.CHOScore>
0.0000

> <Gold.PLP.Chemscore.Metal>
0.0000

> <Gold.Chemscore.Hbonds>
donor molecule, donor type, donor heavy atom, donor atom, acceptor molecule, acceptor atom, score
      L1  H     1    13       P1  1131  1.00
      L1  H     9    15       P1   582  1.00

> <Gold.PLP.Chemscore.Internal.Correction>
0.0000

