#       Name:                EN300-74934_i001
#       Creating user name   aseyller
#       Creation time:       Fri Apr 21 16:26:02 2023


#       File generated by GOLD software.
#

@<TRIPOS>MOLECULE
EN300-74934_i001|aminophenols|mol2|15|dock6
    15    15     1
SMALL
USER_CHARGES


@<TRIPOS>ATOM
      1 N1          26.5847  36.7075  42.4719 N.pl3          1 <1>                0.0000
      2 C2          26.9847  36.5786  41.1369 C.ar           1 <1>                0.0000
      3 C3          26.0393  36.6057  40.1217 C.ar           1 <1>                0.0000
      4 C4          26.4363  36.4778  38.8039 C.ar           1 <1>                0.0000
      5 C5          27.7746  36.3230  38.4934 C.ar           1 <1>                0.0000
      6 C6          28.7234  36.2955  39.5003 C.ar           1 <1>                0.0000
      7 Cl7         30.4027  36.1010  39.1055 Cl             1 <1>                0.0000
      8 C8          28.3335  36.4286  40.8238 C.ar           1 <1>                0.0000
      9 O9          29.2648  36.4021  41.8150 O.3            1 <1>                0.0000
     10 H10         24.9931  36.7264  40.3612 H              1 <1>                0.0000
     11 H11         25.6991  36.4983  38.0150 H              1 <1>                0.0000
     12 H12         28.0803  36.2231  37.4624 H              1 <1>                0.0000
     13 H13         25.6453  36.8160  42.6884 H              1 <1>                0.0000
     14 H14         27.2462  36.6844  43.1809 H              1 <1>                0.0000
     15 H15         30.0340  35.8505  41.6172 H              1 <1>                0.0000
@<TRIPOS>BOND
    1    1    2 1     
    2    1   13 1     
    3    1   14 1     
    4    2    3 ar    
    5    2    8 ar    
    6    3    4 ar    
    7    3   10 1     
    8    4    5 ar    
    9    4   11 1     
   10    5    6 ar    
   11    5   12 1     
   12    6    7 1     
   13    6    8 ar    
   14    8    9 1     
   15    9   15 1     
@<TRIPOS>SUBSTRUCTURE
      1 ****           1
@<TRIPOS>SET
DONOR_HYDROGENS      STATIC     ATOMS    <user>   **** ""
3 13 14 15
ATOM$RED        STATIC     ATOMS    COLORGROUP SYSTEM
3 13 14 15
@<TRIPOS>COMMENT
> <Gold.Version>
2022.2.0

> <Gold.Id.Protein>
1qkm|1qkm_protein|mol2

> <Gold.Protein.RotatedTorsions>
[  496  491  490  487 ] final  129.80 input  -89.99 | X-H torsion

> <Gold.Protein.ActiveResidues>
 MET295  LEU298  THR299  LEU301  ALA302  GLU305  TRP335  MET336  LEU339  MET340 
 GLY342  LEU343  ARG346  PHE356  ILE373  ILE376  PHE377  LEU380  LYS471  GLY472 
 MET473  HIS475  LEU476  LEU477  ASN478  MET479  VAL484  VAL487 

> <Gold.Protein.RotatedAtoms>
   37.1516   32.9703   41.4767 H   0  0  0  0  0  0  0  0  0  0  0  0  # atno 496  bound_to 491 

> <Gold.Score>
     Score     S(PLP)   S(hbond)     S(cho)   S(metal)  DE(clash)   DE(tors)     intcor
     37.47     -34.47       1.00       0.00       0.00       0.00       0.00       0.00

> <Gold.PLP.Fitness>
37.4669

> <Gold.PLP.PLP>
-34.4669

> <Gold.PLP.part.hbond>
-2.0000

> <Gold.PLP.part.metal>
0.0000

> <Gold.PLP.part.buried>
-3.3583

> <Gold.PLP.part.nonpolar>
-29.5359

> <Gold.PLP.part.repulsive>
0.0758

> <Gold.PLP.ligand.clash>
0.0000

> <Gold.PLP.ligand.torsion>
0.0000

> <Gold.PLP.Chemscore.Hbond>
1.0000

> <Gold.PLP.Chemscore.CHOScore>
0.0000

> <Gold.PLP.Chemscore.Metal>
0.0000

> <Gold.Chemscore.Hbonds>
donor molecule, donor type, donor heavy atom, donor atom, acceptor molecule, acceptor atom, score
      L1  H     9    15       P1   470  1.00

> <Gold.PLP.Chemscore.Internal.Correction>
0.0000

