#       Name:                EN300-74934_i001
#       Creating user name   aseyller
#       Creation time:       Fri Apr 21 16:26:03 2023


#       File generated by GOLD software.
#

@<TRIPOS>MOLECULE
EN300-74934_i001|aminophenols|mol2|15|dock10
    15    15     1
SMALL
USER_CHARGES


@<TRIPOS>ATOM
      1 N1          28.9641  35.7843  41.7032 N.pl3          1 <1>                0.0000
      2 C2          28.4779  36.2809  40.4882 C.ar           1 <1>                0.0000
      3 C3          27.1589  36.6991  40.3856 C.ar           1 <1>                0.0000
      4 C4          26.6806  37.1888  39.1849 C.ar           1 <1>                0.0000
      5 C5          27.5135  37.2638  38.0839 C.ar           1 <1>                0.0000
      6 C6          28.8302  36.8490  38.1786 C.ar           1 <1>                0.0000
      7 Cl7         29.8723  36.9451  36.7934 Cl             1 <1>                0.0000
      8 C8          29.3186  36.3618  39.3808 C.ar           1 <1>                0.0000
      9 O9          30.6129  35.9540  39.4759 O.3            1 <1>                0.0000
     10 H10         26.5060  36.6417  41.2440 H              1 <1>                0.0000
     11 H11         25.6535  37.5132  39.1065 H              1 <1>                0.0000
     12 H12         27.1354  37.6467  37.1475 H              1 <1>                0.0000
     13 H13         28.3786  35.7322  42.4749 H              1 <1>                0.0000
     14 H14         29.8852  35.4885  41.7725 H              1 <1>                0.0000
     15 H15         30.8782  35.6923  40.3682 H              1 <1>                0.0000
@<TRIPOS>BOND
    1    1    2 1     
    2    1   13 1     
    3    1   14 1     
    4    2    3 ar    
    5    2    8 ar    
    6    3    4 ar    
    7    3   10 1     
    8    4    5 ar    
    9    4   11 1     
   10    5    6 ar    
   11    5   12 1     
   12    6    7 1     
   13    6    8 ar    
   14    8    9 1     
   15    9   15 1     
@<TRIPOS>SUBSTRUCTURE
      1 ****           1
@<TRIPOS>SET
DONOR_HYDROGENS      STATIC     ATOMS    <user>   **** ""
3 13 14 15
ATOM$RED        STATIC     ATOMS    COLORGROUP SYSTEM
3 13 14 15
@<TRIPOS>COMMENT
> <Gold.Version>
2022.2.0

> <Gold.Id.Protein>
1qkm|1qkm_protein|mol2

> <Gold.Protein.RotatedTorsions>
[  496  491  490  487 ] final -158.06 input  -89.99 | X-H torsion

> <Gold.Protein.ActiveResidues>
 MET295  LEU298  THR299  LEU301  ALA302  GLU305  TRP335  MET336  LEU339  MET340 
 GLY342  LEU343  ARG346  PHE356  ILE373  ILE376  PHE377  LEU380  LYS471  GLY472 
 MET473  HIS475  LEU476  LEU477  ASN478  MET479  VAL484  VAL487 

> <Gold.Protein.RotatedAtoms>
   37.2678   33.7936   40.7404 H   0  0  0  0  0  0  0  0  0  0  0  0  # atno 496  bound_to 491 

> <Gold.Score>
     Score     S(PLP)   S(hbond)     S(cho)   S(metal)  DE(clash)   DE(tors)     intcor
     35.01     -29.01       2.00       0.00       0.00       0.00       0.00       0.00

> <Gold.PLP.Fitness>
35.0070

> <Gold.PLP.PLP>
-29.0070

> <Gold.PLP.part.hbond>
-2.0000

> <Gold.PLP.part.metal>
0.0000

> <Gold.PLP.part.buried>
-2.5330

> <Gold.PLP.part.nonpolar>
-24.8469

> <Gold.PLP.part.repulsive>
0.0855

> <Gold.PLP.ligand.clash>
0.0000

> <Gold.PLP.ligand.torsion>
0.0000

> <Gold.PLP.Chemscore.Hbond>
2.0000

> <Gold.PLP.Chemscore.CHOScore>
0.0000

> <Gold.PLP.Chemscore.Metal>
0.0000

> <Gold.Chemscore.Hbonds>
donor molecule, donor type, donor heavy atom, donor atom, acceptor molecule, acceptor atom, score
      L1  H     1    14       P1   470  1.00
      L1  H     9    15       P1   470  1.00

> <Gold.PLP.Chemscore.Internal.Correction>
0.0000

