#       Name:                EN300-74934_i001
#       Creating user name   aseyller
#       Creation time:       Fri Apr 21 16:26:00 2023


#       File generated by GOLD software.
#

@<TRIPOS>MOLECULE
EN300-74934_i001|aminophenols|mol2|15|dock1
    15    15     1
SMALL
USER_CHARGES


@<TRIPOS>ATOM
      1 N1          28.2465  35.4989  42.2490 N.pl3          1 <1>                0.0000
      2 C2          27.7521  36.0447  41.0588 C.ar           1 <1>                0.0000
      3 C3          26.3872  36.2316  40.8935 C.ar           1 <1>                0.0000
      4 C4          25.9009  36.7704  39.7172 C.ar           1 <1>                0.0000
      5 C5          26.7713  37.1247  38.7032 C.ar           1 <1>                0.0000
      6 C6          28.1338  36.9417  38.8608 C.ar           1 <1>                0.0000
      7 Cl7         29.2230  37.3881  37.5847 Cl             1 <1>                0.0000
      8 C8          28.6295  36.4070  40.0396 C.ar           1 <1>                0.0000
      9 O9          29.9687  36.2267  40.1966 O.3            1 <1>                0.0000
     10 H10         25.7048  35.9558  41.6839 H              1 <1>                0.0000
     11 H11         24.8382  36.9146  39.5899 H              1 <1>                0.0000
     12 H12         26.3868  37.5450  37.7856 H              1 <1>                0.0000
     13 H13         27.6347  35.2507  42.9597 H              1 <1>                0.0000
     14 H14         29.2006  35.3650  42.3617 H              1 <1>                0.0000
     15 H15         30.2168  35.8454  41.0499 H              1 <1>                0.0000
@<TRIPOS>BOND
    1    1    2 1     
    2    1   13 1     
    3    1   14 1     
    4    2    3 ar    
    5    2    8 ar    
    6    3    4 ar    
    7    3   10 1     
    8    4    5 ar    
    9    4   11 1     
   10    5    6 ar    
   11    5   12 1     
   12    6    7 1     
   13    6    8 ar    
   14    8    9 1     
   15    9   15 1     
@<TRIPOS>SUBSTRUCTURE
      1 ****           1
@<TRIPOS>SET
DONOR_HYDROGENS      STATIC     ATOMS    <user>   **** ""
3 13 14 15
ATOM$RED        STATIC     ATOMS    COLORGROUP SYSTEM
3 13 14 15
@<TRIPOS>COMMENT
> <Gold.Version>
2022.2.0

> <Gold.Id.Protein>
1qkm|1qkm_protein|mol2

> <Gold.Protein.RotatedTorsions>
[  496  491  490  487 ] final   79.78 input  -89.99 | X-H torsion

> <Gold.Protein.ActiveResidues>
 MET295  LEU298  THR299  LEU301  ALA302  GLU305  TRP335  MET336  LEU339  MET340 
 GLY342  LEU343  ARG346  PHE356  ILE373  ILE376  PHE377  LEU380  LYS471  GLY472 
 MET473  HIS475  LEU476  LEU477  ASN478  MET479  VAL484  VAL487 

> <Gold.Protein.RotatedAtoms>
   36.7259   33.1016   42.1381 H   0  0  0  0  0  0  0  0  0  0  0  0  # atno 496  bound_to 491 

> <Gold.Score>
     Score     S(PLP)   S(hbond)     S(cho)   S(metal)  DE(clash)   DE(tors)     intcor
     38.75     -33.23       1.84       0.00       0.00       0.00       0.00       0.00

> <Gold.PLP.Fitness>
38.7490

> <Gold.PLP.PLP>
-33.2273

> <Gold.PLP.part.hbond>
-2.0000

> <Gold.PLP.part.metal>
0.0000

> <Gold.PLP.part.buried>
-3.0809

> <Gold.PLP.part.nonpolar>
-28.8195

> <Gold.PLP.part.repulsive>
0.0923

> <Gold.PLP.ligand.clash>
0.0000

> <Gold.PLP.ligand.torsion>
0.0000

> <Gold.PLP.Chemscore.Hbond>
1.8406

> <Gold.PLP.Chemscore.CHOScore>
0.0000

> <Gold.PLP.Chemscore.Metal>
0.0000

> <Gold.Chemscore.Hbonds>
donor molecule, donor type, donor heavy atom, donor atom, acceptor molecule, acceptor atom, score
      L1  H     1    13       P1   582  1.00
      L1  H     9    15       P1   470  0.84

> <Gold.PLP.Chemscore.Internal.Correction>
0.0000

