#       Name:                EN300-00970_i001
#       Creating user name   aseyller
#       Creation time:       Fri Apr 21 18:49:25 2023


#       File generated by GOLD software.
#

@<TRIPOS>MOLECULE
EN300-00970_i001|benzaldehydes|mol2|638|dock17
    28    29     1
SMALL
USER_CHARGES


@<TRIPOS>ATOM
      1 C1          31.2615  34.0808  38.4866 C.3            1 <1>                0.0000
      2 C2          31.4997  35.3270  37.6734 C.2            1 <1>                0.0000
      3 C3          32.5061  35.5076  36.8020 C.2            1 <1>                0.0000
      4 C4          32.3392  36.8587  36.2493 C.2            1 <1>                0.0000
      5 C5          33.1905  37.5169  35.2563 C.2            1 <1>                0.0000
      6 O6          32.6912  38.1986  34.3855 O.2            1 <1>                0.0000
      7 C7          31.2134  37.3811  36.8584 C.2            1 <1>                0.0000
      8 C8          30.6322  38.7504  36.6168 C.3            1 <1>                0.0000
      9 N9          30.7227  36.4515  37.7007 N.pl3          1 <1>                0.0000
     10 C10         29.5821  36.6170  38.4987 C.ar           1 <1>                0.0000
     11 C11         29.6796  36.5185  39.8799 C.ar           1 <1>                0.0000
     12 C12         28.5531  36.6822  40.6642 C.ar           1 <1>                0.0000
     13 Cl13        28.6739  36.5592  42.3916 Cl             1 <1>                0.0000
     14 C14         27.3291  36.9443  40.0735 C.ar           1 <1>                0.0000
     15 C15         27.2290  37.0429  38.6984 C.ar           1 <1>                0.0000
     16 C16         28.3531  36.8854  37.9091 C.ar           1 <1>                0.0000
     17 Cl17        28.2266  37.0099  36.1822 Cl             1 <1>                0.0000
     18 H18         31.7887  34.1610  39.4372 H              1 <1>                0.0000
     19 H19         30.1934  33.9665  38.6720 H              1 <1>                0.0000
     20 H20         31.6299  33.2135  37.9388 H              1 <1>                0.0000
     21 H21         33.2841  34.7998  36.5565 H              1 <1>                0.0000
     22 H22         34.2629  37.3956  35.2991 H              1 <1>                0.0000
     23 H23         29.9074  38.6992  35.8042 H              1 <1>                0.0000
     24 H24         30.1379  39.1004  37.5231 H              1 <1>                0.0000
     25 H25         31.4308  39.4419  36.3484 H              1 <1>                0.0000
     26 H26         30.6344  36.3141  40.3412 H              1 <1>                0.0000
     27 H27         26.4503  37.0717  40.6883 H              1 <1>                0.0000
     28 H28         26.2726  37.2471  38.2403 H              1 <1>                0.0000
@<TRIPOS>BOND
    1    1    2 1     
    2    1   18 1     
    3    1   19 1     
    4    1   20 1     
    5    2    3 2     
    6    2    9 1     
    7    3    4 1     
    8    3   21 1     
    9    4    5 1     
   10    4    7 2     
   11    5    6 2     
   12    5   22 1     
   13    7    8 1     
   14    7    9 1     
   15    8   23 1     
   16    8   24 1     
   17    8   25 1     
   18    9   10 1     
   19   10   11 ar    
   20   10   16 ar    
   21   11   12 ar    
   22   11   26 1     
   23   12   13 1     
   24   12   14 ar    
   25   14   15 ar    
   26   14   27 1     
   27   15   16 ar    
   28   15   28 1     
   29   16   17 1     
@<TRIPOS>SUBSTRUCTURE
      1 ****           1
@<TRIPOS>COMMENT
> <Gold.Version>
2022.2.0

> <Gold.Id.Protein>
1qkm|1qkm_protein|mol2

> <Gold.Protein.RotatedTorsions>
[  496  491  490  487 ] final   41.87 input  -89.99 | X-H torsion

> <Gold.Protein.ActiveResidues>
 MET295  LEU298  THR299  LEU301  ALA302  GLU305  TRP335  MET336  LEU339  MET340 
 GLY342  LEU343  ARG346  PHE356  ILE373  ILE376  PHE377  LEU380  LYS471  GLY472 
 MET473  HIS475  LEU476  LEU477  ASN478  MET479  VAL484  VAL487 

> <Gold.Protein.RotatedAtoms>
   36.4158   33.5731   42.3767 H   0  0  0  0  0  0  0  0  0  0  0  0  # atno 496  bound_to 491 

> <Gold.Score>
     Score     S(PLP)   S(hbond)     S(cho)   S(metal)  DE(clash)   DE(tors)     intcor
     46.06     -46.67       0.00       0.00       0.00       0.00       1.41       2.21

> <Gold.PLP.Fitness>
46.0575

> <Gold.PLP.PLP>
-46.6696

> <Gold.PLP.part.hbond>
0.0000

> <Gold.PLP.part.metal>
0.0000

> <Gold.PLP.part.buried>
-3.1486

> <Gold.PLP.part.nonpolar>
-43.6603

> <Gold.PLP.part.repulsive>
0.1511

> <Gold.PLP.ligand.clash>
0.0000

> <Gold.PLP.ligand.torsion>
1.4115

> <Gold.PLP.Chemscore.Hbond>
0.0000

> <Gold.PLP.Chemscore.CHOScore>
0.0000

> <Gold.PLP.Chemscore.Metal>
0.0000

> <Gold.PLP.Chemscore.Internal.Correction>
2.2109

