#       Name:                EN300-00970_i001
#       Creating user name   aseyller
#       Creation time:       Fri Apr 21 18:49:21 2023


#       File generated by GOLD software.
#

@<TRIPOS>MOLECULE
EN300-00970_i001|benzaldehydes|mol2|638|dock8
    28    29     1
SMALL
USER_CHARGES


@<TRIPOS>ATOM
      1 C1          32.2843  35.8157  38.4999 C.3            1 <1>                0.0000
      2 C2          30.8028  36.0412  38.6592 C.2            1 <1>                0.0000
      3 C3          30.0327  35.5057  39.6209 C.2            1 <1>                0.0000
      4 C4          28.6692  35.9990  39.3835 C.2            1 <1>                0.0000
      5 C5          27.4717  35.6943  40.1691 C.2            1 <1>                0.0000
      6 O6          26.4240  36.2536  39.9199 O.2            1 <1>                0.0000
      7 C7          28.7485  36.8102  38.2669 C.2            1 <1>                0.0000
      8 C8          27.6018  37.5516  37.6291 C.3            1 <1>                0.0000
      9 N9          30.0297  36.8279  37.8515 N.pl3          1 <1>                0.0000
     10 C10         30.5018  37.5444  36.7429 C.ar           1 <1>                0.0000
     11 C11         30.3614  38.9246  36.6959 C.ar           1 <1>                0.0000
     12 C12         30.8279  39.6284  35.6014 C.ar           1 <1>                0.0000
     13 Cl13        30.6527  41.3545  35.5416 Cl             1 <1>                0.0000
     14 C14         31.4349  38.9583  34.5534 C.ar           1 <1>                0.0000
     15 C15         31.5761  37.5840  34.5976 C.ar           1 <1>                0.0000
     16 C16         31.1162  36.8752  35.6919 C.ar           1 <1>                0.0000
     17 Cl17        31.2945  35.1492  35.7466 Cl             1 <1>                0.0000
     18 H18         32.4533  34.9505  37.8588 H              1 <1>                0.0000
     19 H19         32.7395  36.6971  38.0481 H              1 <1>                0.0000
     20 H20         32.7318  35.6365  39.4775 H              1 <1>                0.0000
     21 H21         30.3524  34.8434  40.4118 H              1 <1>                0.0000
     22 H22         27.5209  34.9717  40.9702 H              1 <1>                0.0000
     23 H23         27.5143  38.5410  38.0781 H              1 <1>                0.0000
     24 H24         27.7848  37.6529  36.5594 H              1 <1>                0.0000
     25 H25         26.6771  36.9970  37.7886 H              1 <1>                0.0000
     26 H26         29.8879  39.4480  37.5133 H              1 <1>                0.0000
     27 H27         31.7986  39.5103  33.6993 H              1 <1>                0.0000
     28 H28         32.0498  37.0637  33.7782 H              1 <1>                0.0000
@<TRIPOS>BOND
    1    1    2 1     
    2    1   18 1     
    3    1   19 1     
    4    1   20 1     
    5    2    3 2     
    6    2    9 1     
    7    3    4 1     
    8    3   21 1     
    9    4    5 1     
   10    4    7 2     
   11    5    6 2     
   12    5   22 1     
   13    7    8 1     
   14    7    9 1     
   15    8   23 1     
   16    8   24 1     
   17    8   25 1     
   18    9   10 1     
   19   10   11 ar    
   20   10   16 ar    
   21   11   12 ar    
   22   11   26 1     
   23   12   13 1     
   24   12   14 ar    
   25   14   15 ar    
   26   14   27 1     
   27   15   16 ar    
   28   15   28 1     
   29   16   17 1     
@<TRIPOS>SUBSTRUCTURE
      1 ****           1
@<TRIPOS>COMMENT
> <Gold.Version>
2022.2.0

> <Gold.Id.Protein>
1qkm|1qkm_protein|mol2

> <Gold.Protein.RotatedTorsions>
[  496  491  490  487 ] final  149.82 input  -89.99 | X-H torsion

> <Gold.Protein.ActiveResidues>
 MET295  LEU298  THR299  LEU301  ALA302  GLU305  TRP335  MET336  LEU339  MET340 
 GLY342  LEU343  ARG346  PHE356  ILE373  ILE376  PHE377  LEU380  LYS471  GLY472 
 MET473  HIS475  LEU476  LEU477  ASN478  MET479  VAL484  VAL487 

> <Gold.Protein.RotatedAtoms>
   37.2620   33.1026   41.1977 H   0  0  0  0  0  0  0  0  0  0  0  0  # atno 496  bound_to 491 

> <Gold.Score>
     Score     S(PLP)   S(hbond)     S(cho)   S(metal)  DE(clash)   DE(tors)     intcor
     44.93     -44.95       0.00       0.00       0.00       0.00       1.12       2.21

> <Gold.PLP.Fitness>
44.9298

> <Gold.PLP.PLP>
-44.9492

> <Gold.PLP.part.hbond>
0.0000

> <Gold.PLP.part.metal>
0.0000

> <Gold.PLP.part.buried>
-1.6700

> <Gold.PLP.part.nonpolar>
-43.4151

> <Gold.PLP.part.repulsive>
0.0963

> <Gold.PLP.ligand.clash>
0.0000

> <Gold.PLP.ligand.torsion>
1.1151

> <Gold.PLP.Chemscore.Hbond>
0.0000

> <Gold.PLP.Chemscore.CHOScore>
0.0000

> <Gold.PLP.Chemscore.Metal>
0.0000

> <Gold.PLP.Chemscore.Internal.Correction>
2.2109

