#       Name:                EN300-00970_i001
#       Creating user name   aseyller
#       Creation time:       Fri Apr 21 18:49:22 2023


#       File generated by GOLD software.
#

@<TRIPOS>MOLECULE
EN300-00970_i001|benzaldehydes|mol2|638|dock10
    28    29     1
SMALL
USER_CHARGES


@<TRIPOS>ATOM
      1 C1          26.6762  35.7759  37.4899 C.3            1 <1>                0.0000
      2 C2          26.9642  36.1648  38.9171 C.2            1 <1>                0.0000
      3 C3          26.0398  36.4733  39.8418 C.2            1 <1>                0.0000
      4 C4          26.7745  36.7843  41.0757 C.2            1 <1>                0.0000
      5 C5          26.2050  37.1775  42.3660 C.2            1 <1>                0.0000
      6 O6          25.1993  37.8554  42.4041 O.2            1 <1>                0.0000
      7 C7          28.1135  36.6291  40.7689 C.2            1 <1>                0.0000
      8 C8          29.2675  36.8368  41.7157 C.3            1 <1>                0.0000
      9 N9          28.2075  36.2542  39.4786 N.pl3          1 <1>                0.0000
     10 C10         29.4101  36.0001  38.8045 C.ar           1 <1>                0.0000
     11 C11         30.1062  34.8232  39.0438 C.ar           1 <1>                0.0000
     12 C12         31.2918  34.5754  38.3777 C.ar           1 <1>                0.0000
     13 Cl13        32.1631  33.1039  38.6763 Cl             1 <1>                0.0000
     14 C14         31.7847  35.4993  37.4725 C.ar           1 <1>                0.0000
     15 C15         31.0937  36.6721  37.2322 C.ar           1 <1>                0.0000
     16 C16         29.9048  36.9230  37.8915 C.ar           1 <1>                0.0000
     17 Cl17        29.0374  38.3960  37.5886 Cl             1 <1>                0.0000
     18 H18         26.6574  36.6698  36.8665 H              1 <1>                0.0000
     19 H19         27.4540  35.1005  37.1334 H              1 <1>                0.0000
     20 H20         25.7090  35.2760  37.4377 H              1 <1>                0.0000
     21 H21         24.9685  36.4898  39.7052 H              1 <1>                0.0000
     22 H22         26.6801  36.8641  43.2839 H              1 <1>                0.0000
     23 H23         29.4948  35.8991  42.2227 H              1 <1>                0.0000
     24 H24         30.1419  37.1683  41.1556 H              1 <1>                0.0000
     25 H25         29.0005  37.5934  42.4535 H              1 <1>                0.0000
     26 H26         29.7220  34.1020  39.7500 H              1 <1>                0.0000
     27 H27         32.7113  35.3036  36.9532 H              1 <1>                0.0000
     28 H28         31.4809  37.3914  36.5256 H              1 <1>                0.0000
@<TRIPOS>BOND
    1    1    2 1     
    2    1   18 1     
    3    1   19 1     
    4    1   20 1     
    5    2    3 2     
    6    2    9 1     
    7    3    4 1     
    8    3   21 1     
    9    4    5 1     
   10    4    7 2     
   11    5    6 2     
   12    5   22 1     
   13    7    8 1     
   14    7    9 1     
   15    8   23 1     
   16    8   24 1     
   17    8   25 1     
   18    9   10 1     
   19   10   11 ar    
   20   10   16 ar    
   21   11   12 ar    
   22   11   26 1     
   23   12   13 1     
   24   12   14 ar    
   25   14   15 ar    
   26   14   27 1     
   27   15   16 ar    
   28   15   28 1     
   29   16   17 1     
@<TRIPOS>SUBSTRUCTURE
      1 ****           1
@<TRIPOS>COMMENT
> <Gold.Version>
2022.2.0

> <Gold.Id.Protein>
1qkm|1qkm_protein|mol2

> <Gold.Protein.RotatedTorsions>
[  496  491  490  487 ] final  110.60 input  -89.99 | X-H torsion

> <Gold.Protein.ActiveResidues>
 MET295  LEU298  THR299  LEU301  ALA302  GLU305  TRP335  MET336  LEU339  MET340 
 GLY342  LEU343  ARG346  PHE356  ILE373  ILE376  PHE377  LEU380  LYS471  GLY472 
 MET473  HIS475  LEU476  LEU477  ASN478  MET479  VAL484  VAL487 

> <Gold.Protein.RotatedAtoms>
   37.0044   32.9418   41.7532 H   0  0  0  0  0  0  0  0  0  0  0  0  # atno 496  bound_to 491 

> <Gold.Score>
     Score     S(PLP)   S(hbond)     S(cho)   S(metal)  DE(clash)   DE(tors)     intcor
     51.34     -52.41       0.00       0.00       0.00       0.00       1.64       2.21

> <Gold.PLP.Fitness>
51.3442

> <Gold.PLP.PLP>
-52.4074

> <Gold.PLP.part.hbond>
0.7947

> <Gold.PLP.part.metal>
0.0000

> <Gold.PLP.part.buried>
-0.0425

> <Gold.PLP.part.nonpolar>
-54.1286

> <Gold.PLP.part.repulsive>
0.2530

> <Gold.PLP.ligand.clash>
0.0000

> <Gold.PLP.ligand.torsion>
1.6370

> <Gold.PLP.Chemscore.Hbond>
0.0000

> <Gold.PLP.Chemscore.CHOScore>
0.0000

> <Gold.PLP.Chemscore.Metal>
0.0000

> <Gold.PLP.Chemscore.Internal.Correction>
2.2109

