#       Name:                EN300-00970_i001
#       Creating user name   aseyller
#       Creation time:       Fri Apr 21 18:49:23 2023


#       File generated by GOLD software.
#

@<TRIPOS>MOLECULE
EN300-00970_i001|benzaldehydes|mol2|638|dock12
    28    29     1
SMALL
USER_CHARGES


@<TRIPOS>ATOM
      1 C1          27.8051  38.8228  36.9779 C.3            1 <1>                0.0000
      2 C2          29.1025  38.0611  36.8905 C.2            1 <1>                0.0000
      3 C3          29.9926  38.1516  35.8884 C.2            1 <1>                0.0000
      4 C4          31.0927  37.2381  36.2264 C.2            1 <1>                0.0000
      5 C5          32.3028  36.9862  35.4415 C.2            1 <1>                0.0000
      6 O6          32.5082  37.6155  34.4245 O.2            1 <1>                0.0000
      7 C7          30.7514  36.6655  37.4376 C.2            1 <1>                0.0000
      8 C8          31.5694  35.6550  38.1997 C.3            1 <1>                0.0000
      9 N9          29.5637  37.1722  37.8212 N.pl3          1 <1>                0.0000
     10 C10         28.8918  36.8300  39.0029 C.ar           1 <1>                0.0000
     11 C11         29.4221  37.1909  40.2339 C.ar           1 <1>                0.0000
     12 C12         28.7572  36.8521  41.3975 C.ar           1 <1>                0.0000
     13 Cl13        29.4197  37.3030  42.9374 Cl             1 <1>                0.0000
     14 C14         27.5636  36.1540  41.3359 C.ar           1 <1>                0.0000
     15 C15         27.0331  35.7932  40.1115 C.ar           1 <1>                0.0000
     16 C16         27.6909  36.1339  38.9442 C.ar           1 <1>                0.0000
     17 Cl17        27.0236  35.6808  37.4069 Cl             1 <1>                0.0000
     18 H18         27.0119  38.2449  36.5038 H              1 <1>                0.0000
     19 H19         27.5541  38.9939  38.0248 H              1 <1>                0.0000
     20 H20         27.9111  39.7806  36.4686 H              1 <1>                0.0000
     21 H21         29.9149  38.7728  35.0083 H              1 <1>                0.0000
     22 H22         33.0126  36.2404  35.7679 H              1 <1>                0.0000
     23 H23         32.2466  36.1733  38.8786 H              1 <1>                0.0000
     24 H24         30.9053  35.0078  38.7728 H              1 <1>                0.0000
     25 H25         32.1477  35.0529  37.4990 H              1 <1>                0.0000
     26 H26         30.3534  37.7356  40.2825 H              1 <1>                0.0000
     27 H27         27.0459  35.8903  42.2463 H              1 <1>                0.0000
     28 H28         26.1018  35.2482  40.0665 H              1 <1>                0.0000
@<TRIPOS>BOND
    1    1    2 1     
    2    1   18 1     
    3    1   19 1     
    4    1   20 1     
    5    2    3 2     
    6    2    9 1     
    7    3    4 1     
    8    3   21 1     
    9    4    5 1     
   10    4    7 2     
   11    5    6 2     
   12    5   22 1     
   13    7    8 1     
   14    7    9 1     
   15    8   23 1     
   16    8   24 1     
   17    8   25 1     
   18    9   10 1     
   19   10   11 ar    
   20   10   16 ar    
   21   11   12 ar    
   22   11   26 1     
   23   12   13 1     
   24   12   14 ar    
   25   14   15 ar    
   26   14   27 1     
   27   15   16 ar    
   28   15   28 1     
   29   16   17 1     
@<TRIPOS>SUBSTRUCTURE
      1 ****           1
@<TRIPOS>COMMENT
> <Gold.Version>
2022.2.0

> <Gold.Id.Protein>
1qkm|1qkm_protein|mol2

> <Gold.Protein.RotatedTorsions>
[  496  491  490  487 ] final  -64.13 input  -89.99 | X-H torsion

> <Gold.Protein.ActiveResidues>
 MET295  LEU298  THR299  LEU301  ALA302  GLU305  TRP335  MET336  LEU339  MET340 
 GLY342  LEU343  ARG346  PHE356  ILE373  ILE376  PHE377  LEU380  LYS471  GLY472 
 MET473  HIS475  LEU476  LEU477  ASN478  MET479  VAL484  VAL487 

> <Gold.Protein.RotatedAtoms>
   36.5297   34.7356   41.4251 H   0  0  0  0  0  0  0  0  0  0  0  0  # atno 496  bound_to 491 

> <Gold.Score>
     Score     S(PLP)   S(hbond)     S(cho)   S(metal)  DE(clash)   DE(tors)     intcor
     44.17     -44.51       0.00       0.00       0.00       0.00       1.28       2.21

> <Gold.PLP.Fitness>
44.1676

> <Gold.PLP.PLP>
-44.5073

> <Gold.PLP.part.hbond>
0.0000

> <Gold.PLP.part.metal>
0.0000

> <Gold.PLP.part.buried>
-3.3892

> <Gold.PLP.part.nonpolar>
-42.2372

> <Gold.PLP.part.repulsive>
0.1600

> <Gold.PLP.ligand.clash>
0.0000

> <Gold.PLP.ligand.torsion>
1.2752

> <Gold.PLP.Chemscore.Hbond>
0.0000

> <Gold.PLP.Chemscore.CHOScore>
0.0000

> <Gold.PLP.Chemscore.Metal>
0.0000

> <Gold.PLP.Chemscore.Internal.Correction>
2.2109

