#       Name:                EN300-00970_i001
#       Creating user name   aseyller
#       Creation time:       Fri Apr 21 18:49:25 2023


#       File generated by GOLD software.
#

@<TRIPOS>MOLECULE
EN300-00970_i001|benzaldehydes|mol2|638|dock15
    28    29     1
SMALL
USER_CHARGES


@<TRIPOS>ATOM
      1 C1          31.6461  34.7601  38.6847 C.3            1 <1>                0.0000
      2 C2          31.1920  35.8811  37.7858 C.2            1 <1>                0.0000
      3 C3          31.7831  36.2452  36.6357 C.2            1 <1>                0.0000
      4 C4          31.0030  37.3723  36.1066 C.2            1 <1>                0.0000
      5 C5          31.2533  38.1148  34.8697 C.2            1 <1>                0.0000
      6 O6          32.2126  37.8385  34.1798 O.2            1 <1>                0.0000
      7 C7          29.9840  37.5880  37.0157 C.2            1 <1>                0.0000
      8 C8          28.9146  38.6447  36.9110 C.3            1 <1>                0.0000
      9 N9          30.1093  36.6858  38.0080 N.pl3          1 <1>                0.0000
     10 C10         29.2557  36.5911  39.1160 C.ar           1 <1>                0.0000
     11 C11         29.6941  36.9989  40.3684 C.ar           1 <1>                0.0000
     12 C12         28.8501  36.9043  41.4591 C.ar           1 <1>                0.0000
     13 Cl13        29.3974  37.4140  43.0257 Cl             1 <1>                0.0000
     14 C14         27.5691  36.4039  41.3032 C.ar           1 <1>                0.0000
     15 C15         27.1298  35.9970  40.0573 C.ar           1 <1>                0.0000
     16 C16         27.9676  36.0941  38.9618 C.ar           1 <1>                0.0000
     17 Cl17        27.4149  35.5834  37.3974 Cl             1 <1>                0.0000
     18 H18         32.3546  35.1463  39.4175 H              1 <1>                0.0000
     19 H19         30.7845  34.3363  39.2007 H              1 <1>                0.0000
     20 H20         32.1276  33.9868  38.0862 H              1 <1>                0.0000
     21 H21         32.6586  35.7980  36.1886 H              1 <1>                0.0000
     22 H22         30.5841  38.9082  34.5713 H              1 <1>                0.0000
     23 H23         28.0580  38.2424  36.3700 H              1 <1>                0.0000
     24 H24         28.6035  38.9470  37.9110 H              1 <1>                0.0000
     25 H25         29.3088  39.5089  36.3764 H              1 <1>                0.0000
     26 H26         30.6935  37.3895  40.4905 H              1 <1>                0.0000
     27 H27         26.9115  36.3308  42.1568 H              1 <1>                0.0000
     28 H28         26.1299  35.6065  39.9388 H              1 <1>                0.0000
@<TRIPOS>BOND
    1    1    2 1     
    2    1   18 1     
    3    1   19 1     
    4    1   20 1     
    5    2    3 2     
    6    2    9 1     
    7    3    4 1     
    8    3   21 1     
    9    4    5 1     
   10    4    7 2     
   11    5    6 2     
   12    5   22 1     
   13    7    8 1     
   14    7    9 1     
   15    8   23 1     
   16    8   24 1     
   17    8   25 1     
   18    9   10 1     
   19   10   11 ar    
   20   10   16 ar    
   21   11   12 ar    
   22   11   26 1     
   23   12   13 1     
   24   12   14 ar    
   25   14   15 ar    
   26   14   27 1     
   27   15   16 ar    
   28   15   28 1     
   29   16   17 1     
@<TRIPOS>SUBSTRUCTURE
      1 ****           1
@<TRIPOS>COMMENT
> <Gold.Version>
2022.2.0

> <Gold.Id.Protein>
1qkm|1qkm_protein|mol2

> <Gold.Protein.RotatedTorsions>
[  496  491  490  487 ] final   44.86 input  -89.99 | X-H torsion

> <Gold.Protein.ActiveResidues>
 MET295  LEU298  THR299  LEU301  ALA302  GLU305  TRP335  MET336  LEU339  MET340 
 GLY342  LEU343  ARG346  PHE356  ILE373  ILE376  PHE377  LEU380  LYS471  GLY472 
 MET473  HIS475  LEU476  LEU477  ASN478  MET479  VAL484  VAL487 

> <Gold.Protein.RotatedAtoms>
   36.4359   33.5288   42.3701 H   0  0  0  0  0  0  0  0  0  0  0  0  # atno 496  bound_to 491 

> <Gold.Score>
     Score     S(PLP)   S(hbond)     S(cho)   S(metal)  DE(clash)   DE(tors)     intcor
     43.89     -44.41       0.00       0.00       0.00       0.00       1.36       2.21

> <Gold.PLP.Fitness>
43.8925

> <Gold.PLP.PLP>
-44.4074

> <Gold.PLP.part.hbond>
0.0000

> <Gold.PLP.part.metal>
0.0000

> <Gold.PLP.part.buried>
-3.7151

> <Gold.PLP.part.nonpolar>
-41.4740

> <Gold.PLP.part.repulsive>
0.1567

> <Gold.PLP.ligand.clash>
0.0000

> <Gold.PLP.ligand.torsion>
1.3629

> <Gold.PLP.Chemscore.Hbond>
0.0000

> <Gold.PLP.Chemscore.CHOScore>
0.0000

> <Gold.PLP.Chemscore.Metal>
0.0000

> <Gold.PLP.Chemscore.Internal.Correction>
2.2109

