#       Name:                EN300-00970_i001
#       Creating user name   aseyller
#       Creation time:       Fri Apr 21 18:49:24 2023


#       File generated by GOLD software.
#

@<TRIPOS>MOLECULE
EN300-00970_i001|benzaldehydes|mol2|638|dock14
    28    29     1
SMALL
USER_CHARGES


@<TRIPOS>ATOM
      1 C1          31.6355  33.3831  38.1245 C.3            1 <1>                0.0000
      2 C2          30.9164  34.6334  38.5613 C.2            1 <1>                0.0000
      3 C3          30.0055  34.7041  39.5462 C.2            1 <1>                0.0000
      4 C4          29.5788  36.1083  39.6170 C.2            1 <1>                0.0000
      5 C5          28.5969  36.6864  40.5365 C.2            1 <1>                0.0000
      6 O6          28.0957  35.9975  41.4007 O.2            1 <1>                0.0000
      7 C7          30.2947  36.7719  38.6381 C.2            1 <1>                0.0000
      8 C8          30.2045  38.2423  38.3201 C.3            1 <1>                0.0000
      9 N9          31.0914  35.8775  38.0220 N.pl3          1 <1>                0.0000
     10 C10         31.9692  36.1779  36.9711 C.ar           1 <1>                0.0000
     11 C11         33.3285  35.9323  37.1087 C.ar           1 <1>                0.0000
     12 C12         34.1916  36.2296  36.0706 C.ar           1 <1>                0.0000
     13 Cl13        35.8916  35.9229  36.2417 Cl             1 <1>                0.0000
     14 C14         33.7015  36.7713  34.8949 C.ar           1 <1>                0.0000
     15 C15         32.3485  37.0169  34.7552 C.ar           1 <1>                0.0000
     16 C16         31.4797  36.7168  35.7879 C.ar           1 <1>                0.0000
     17 Cl17        29.7804  37.0252  35.6112 Cl             1 <1>                0.0000
     18 H18         31.0612  32.8885  37.3412 H              1 <1>                0.0000
     19 H19         32.6214  33.6461  37.7412 H              1 <1>                0.0000
     20 H20         31.7440  32.7105  38.9753 H              1 <1>                0.0000
     21 H21         29.6558  33.8898  40.1635 H              1 <1>                0.0000
     22 H22         28.3187  37.7261  40.4457 H              1 <1>                0.0000
     23 H23         30.9306  38.7893  38.9214 H              1 <1>                0.0000
     24 H24         30.4167  38.3989  37.2625 H              1 <1>                0.0000
     25 H25         29.2007  38.6020  38.5463 H              1 <1>                0.0000
     26 H26         33.7113  35.5096  38.0258 H              1 <1>                0.0000
     27 H27         34.3778  37.0028  34.0853 H              1 <1>                0.0000
     28 H28         31.9690  37.4401  33.8368 H              1 <1>                0.0000
@<TRIPOS>BOND
    1    1    2 1     
    2    1   18 1     
    3    1   19 1     
    4    1   20 1     
    5    2    3 2     
    6    2    9 1     
    7    3    4 1     
    8    3   21 1     
    9    4    5 1     
   10    4    7 2     
   11    5    6 2     
   12    5   22 1     
   13    7    8 1     
   14    7    9 1     
   15    8   23 1     
   16    8   24 1     
   17    8   25 1     
   18    9   10 1     
   19   10   11 ar    
   20   10   16 ar    
   21   11   12 ar    
   22   11   26 1     
   23   12   13 1     
   24   12   14 ar    
   25   14   15 ar    
   26   14   27 1     
   27   15   16 ar    
   28   15   28 1     
   29   16   17 1     
@<TRIPOS>SUBSTRUCTURE
      1 ****           1
@<TRIPOS>COMMENT
> <Gold.Version>
2022.2.0

> <Gold.Id.Protein>
1qkm|1qkm_protein|mol2

> <Gold.Protein.RotatedTorsions>
[  496  491  490  487 ] final  110.90 input  -89.99 | X-H torsion

> <Gold.Protein.ActiveResidues>
 MET295  LEU298  THR299  LEU301  ALA302  GLU305  TRP335  MET336  LEU339  MET340 
 GLY342  LEU343  ARG346  PHE356  ILE373  ILE376  PHE377  LEU380  LYS471  GLY472 
 MET473  HIS475  LEU476  LEU477  ASN478  MET479  VAL484  VAL487 

> <Gold.Protein.RotatedAtoms>
   37.0069   32.9415   41.7490 H   0  0  0  0  0  0  0  0  0  0  0  0  # atno 496  bound_to 491 

> <Gold.Score>
     Score     S(PLP)   S(hbond)     S(cho)   S(metal)  DE(clash)   DE(tors)     intcor
     48.04     -48.07       0.00       0.00       0.00       0.00       1.12       2.21

> <Gold.PLP.Fitness>
48.0420

> <Gold.PLP.PLP>
-48.0684

> <Gold.PLP.part.hbond>
0.0000

> <Gold.PLP.part.metal>
0.0000

> <Gold.PLP.part.buried>
-2.4818

> <Gold.PLP.part.nonpolar>
-46.1937

> <Gold.PLP.part.repulsive>
0.1413

> <Gold.PLP.ligand.clash>
0.0044

> <Gold.PLP.ligand.torsion>
1.1164

> <Gold.PLP.Chemscore.Hbond>
0.0000

> <Gold.PLP.Chemscore.CHOScore>
0.0000

> <Gold.PLP.Chemscore.Metal>
0.0000

> <Gold.PLP.Chemscore.Internal.Correction>
2.2109

