#       Name:                EN300-00970_i001
#       Creating user name   aseyller
#       Creation time:       Fri Apr 21 18:49:18 2023


#       File generated by GOLD software.
#

@<TRIPOS>MOLECULE
EN300-00970_i001|benzaldehydes|mol2|638|dock1
    28    29     1
SMALL
USER_CHARGES


@<TRIPOS>ATOM
      1 C1          30.0810  39.7003  36.9482 C.3            1 <1>                0.0000
      2 C2          30.8613  38.4117  36.9035 C.2            1 <1>                0.0000
      3 C3          32.0132  38.2216  36.2389 C.2            1 <1>                0.0000
      4 C4          32.4053  36.8260  36.4787 C.2            1 <1>                0.0000
      5 C5          33.5938  36.1429  35.9641 C.2            1 <1>                0.0000
      6 O6          34.0852  36.4910  34.9106 O.2            1 <1>                0.0000
      7 C7          31.4226  36.2902  37.2901 C.2            1 <1>                0.0000
      8 C8          31.3805  34.8772  37.8126 C.3            1 <1>                0.0000
      9 N9          30.5126  37.2519  37.5377 N.pl3          1 <1>                0.0000
     10 C10         29.3660  37.0847  38.3267 C.ar           1 <1>                0.0000
     11 C11         29.4866  36.7162  39.6596 C.ar           1 <1>                0.0000
     12 C12         28.3541  36.5521  40.4350 C.ar           1 <1>                0.0000
     13 Cl13        28.5040  36.0913  42.1020 Cl             1 <1>                0.0000
     14 C14         27.1009  36.7552  39.8837 C.ar           1 <1>                0.0000
     15 C15         26.9777  37.1221  38.5568 C.ar           1 <1>                0.0000
     16 C16         28.1069  37.2929  37.7777 C.ar           1 <1>                0.0000
     17 Cl17        27.9512  37.7543  36.1113 Cl             1 <1>                0.0000
     18 H18         29.3645  39.7197  36.1270 H              1 <1>                0.0000
     19 H19         29.5485  39.7699  37.8967 H              1 <1>                0.0000
     20 H20         30.7656  40.5431  36.8531 H              1 <1>                0.0000
     21 H21         32.5455  38.9503  35.6455 H              1 <1>                0.0000
     22 H22         34.0330  35.3293  36.5222 H              1 <1>                0.0000
     23 H23         31.8985  34.8284  38.7704 H              1 <1>                0.0000
     24 H24         30.3431  34.5694  37.9444 H              1 <1>                0.0000
     25 H25         31.8692  34.2120  37.1008 H              1 <1>                0.0000
     26 H26         30.4643  36.5577  40.0902 H              1 <1>                0.0000
     27 H27         26.2175  36.6263  40.4915 H              1 <1>                0.0000
     28 H28         25.9984  37.2795  38.1292 H              1 <1>                0.0000
@<TRIPOS>BOND
    1    1    2 1     
    2    1   18 1     
    3    1   19 1     
    4    1   20 1     
    5    2    3 2     
    6    2    9 1     
    7    3    4 1     
    8    3   21 1     
    9    4    5 1     
   10    4    7 2     
   11    5    6 2     
   12    5   22 1     
   13    7    8 1     
   14    7    9 1     
   15    8   23 1     
   16    8   24 1     
   17    8   25 1     
   18    9   10 1     
   19   10   11 ar    
   20   10   16 ar    
   21   11   12 ar    
   22   11   26 1     
   23   12   13 1     
   24   12   14 ar    
   25   14   15 ar    
   26   14   27 1     
   27   15   16 ar    
   28   15   28 1     
   29   16   17 1     
@<TRIPOS>SUBSTRUCTURE
      1 ****           1
@<TRIPOS>COMMENT
> <Gold.Version>
2022.2.0

> <Gold.Id.Protein>
1qkm|1qkm_protein|mol2

> <Gold.Protein.RotatedTorsions>
[  496  491  490  487 ] final  126.43 input  -89.99 | X-H torsion

> <Gold.Protein.ActiveResidues>
 MET295  LEU298  THR299  LEU301  ALA302  GLU305  TRP335  MET336  LEU339  MET340 
 GLY342  LEU343  ARG346  PHE356  ILE373  ILE376  PHE377  LEU380  LYS471  GLY472 
 MET473  HIS475  LEU476  LEU477  ASN478  MET479  VAL484  VAL487 

> <Gold.Protein.RotatedAtoms>
   37.1283   32.9581   41.5255 H   0  0  0  0  0  0  0  0  0  0  0  0  # atno 496  bound_to 491 

> <Gold.Score>
     Score     S(PLP)   S(hbond)     S(cho)   S(metal)  DE(clash)   DE(tors)     intcor
     49.86     -50.20       0.00       0.00       0.00       0.00       1.28       2.22

> <Gold.PLP.Fitness>
49.8573

> <Gold.PLP.PLP>
-50.1962

> <Gold.PLP.part.hbond>
0.0000

> <Gold.PLP.part.metal>
0.0000

> <Gold.PLP.part.buried>
-2.0941

> <Gold.PLP.part.nonpolar>
-49.4126

> <Gold.PLP.part.repulsive>
0.1758

> <Gold.PLP.ligand.clash>
0.0000

> <Gold.PLP.ligand.torsion>
1.2819

> <Gold.PLP.Chemscore.Hbond>
0.0000

> <Gold.PLP.Chemscore.CHOScore>
0.0000

> <Gold.PLP.Chemscore.Metal>
0.0000

> <Gold.PLP.Chemscore.Internal.Correction>
2.2250

