#       Name:                EN300-00970_i001
#       Creating user name   aseyller
#       Creation time:       Fri Apr 21 18:49:20 2023


#       File generated by GOLD software.
#

@<TRIPOS>MOLECULE
EN300-00970_i001|benzaldehydes|mol2|638|dock6
    28    29     1
SMALL
USER_CHARGES


@<TRIPOS>ATOM
      1 C1          27.5533  37.4418  36.9743 C.3            1 <1>                0.0000
      2 C2          27.5186  37.1001  38.4417 C.2            1 <1>                0.0000
      3 C3          26.4583  37.2536  39.2521 C.2            1 <1>                0.0000
      4 C4          26.8820  36.7938  40.5817 C.2            1 <1>                0.0000
      5 C5          26.0753  36.7643  41.8033 C.2            1 <1>                0.0000
      6 O6          24.8956  37.0449  41.7583 O.2            1 <1>                0.0000
      7 C7          28.1982  36.3943  40.4431 C.2            1 <1>                0.0000
      8 C8          29.0745  35.8415  41.5374 C.3            1 <1>                0.0000
      9 N9          28.5595  36.5791  39.1587 N.pl3          1 <1>                0.0000
     10 C10         29.8260  36.2868  38.6336 C.ar           1 <1>                0.0000
     11 C11         30.5876  37.2924  38.0542 C.ar           1 <1>                0.0000
     12 C12         31.8361  37.0011  37.5373 C.ar           1 <1>                0.0000
     13 Cl13        32.7892  38.2581  36.8125 Cl             1 <1>                0.0000
     14 C14         32.3271  35.7084  37.5973 C.ar           1 <1>                0.0000
     15 C15         31.5709  34.7050  38.1736 C.ar           1 <1>                0.0000
     16 C16         30.3238  34.9913  38.6970 C.ar           1 <1>                0.0000
     17 Cl17        29.3751  33.7305  39.4210 Cl             1 <1>                0.0000
     18 H18         27.8748  38.4758  36.8496 H              1 <1>                0.0000
     19 H19         28.2524  36.7797  36.4635 H              1 <1>                0.0000
     20 H20         26.5577  37.3170  36.5486 H              1 <1>                0.0000
     21 H21         25.4867  37.6390  38.9802 H              1 <1>                0.0000
     22 H22         26.5303  36.4927  42.7444 H              1 <1>                0.0000
     23 H23         28.9725  34.7568  41.5716 H              1 <1>                0.0000
     24 H24         30.1138  36.1026  41.3375 H              1 <1>                0.0000
     25 H25         28.7712  36.2654  42.4947 H              1 <1>                0.0000
     26 H26         30.2050  38.3012  38.0072 H              1 <1>                0.0000
     27 H27         33.3028  35.4832  37.1927 H              1 <1>                0.0000
     28 H28         31.9564  33.6971  38.2186 H              1 <1>                0.0000
@<TRIPOS>BOND
    1    1    2 1     
    2    1   18 1     
    3    1   19 1     
    4    1   20 1     
    5    2    3 2     
    6    2    9 1     
    7    3    4 1     
    8    3   21 1     
    9    4    5 1     
   10    4    7 2     
   11    5    6 2     
   12    5   22 1     
   13    7    8 1     
   14    7    9 1     
   15    8   23 1     
   16    8   24 1     
   17    8   25 1     
   18    9   10 1     
   19   10   11 ar    
   20   10   16 ar    
   21   11   12 ar    
   22   11   26 1     
   23   12   13 1     
   24   12   14 ar    
   25   14   15 ar    
   26   14   27 1     
   27   15   16 ar    
   28   15   28 1     
   29   16   17 1     
@<TRIPOS>SUBSTRUCTURE
      1 ****           1
@<TRIPOS>COMMENT
> <Gold.Version>
2022.2.0

> <Gold.Id.Protein>
1qkm|1qkm_protein|mol2

> <Gold.Protein.RotatedTorsions>
[  496  491  490  487 ] final  141.58 input  -89.99 | X-H torsion

> <Gold.Protein.ActiveResidues>
 MET295  LEU298  THR299  LEU301  ALA302  GLU305  TRP335  MET336  LEU339  MET340 
 GLY342  LEU343  ARG346  PHE356  ILE373  ILE376  PHE377  LEU380  LYS471  GLY472 
 MET473  HIS475  LEU476  LEU477  ASN478  MET479  VAL484  VAL487 

> <Gold.Protein.RotatedAtoms>
   37.2228   33.0361   41.3093 H   0  0  0  0  0  0  0  0  0  0  0  0  # atno 496  bound_to 491 

> <Gold.Score>
     Score     S(PLP)   S(hbond)     S(cho)   S(metal)  DE(clash)   DE(tors)     intcor
     48.37     -47.15       0.42       0.00       0.00       0.00       1.12       2.21

> <Gold.PLP.Fitness>
48.3748

> <Gold.PLP.PLP>
-47.1471

> <Gold.PLP.part.hbond>
-0.8797

> <Gold.PLP.part.metal>
0.0000

> <Gold.PLP.part.buried>
0.5746

> <Gold.PLP.part.nonpolar>
-48.0390

> <Gold.PLP.part.repulsive>
0.2731

> <Gold.PLP.ligand.clash>
0.0000

> <Gold.PLP.ligand.torsion>
1.1156

> <Gold.PLP.Chemscore.Hbond>
0.4160

> <Gold.PLP.Chemscore.CHOScore>
0.0000

> <Gold.PLP.Chemscore.Metal>
0.0000

> <Gold.Chemscore.Hbonds>
donor molecule, donor type, donor heavy atom, donor atom, acceptor molecule, acceptor atom, score
      P1  H  1258  1270       L1     6  0.42

> <Gold.PLP.Chemscore.Internal.Correction>
2.2109

