#       Name:                EN300-00970_i001
#       Creating user name   aseyller
#       Creation time:       Fri Apr 21 18:49:21 2023


#       File generated by GOLD software.
#

@<TRIPOS>MOLECULE
EN300-00970_i001|benzaldehydes|mol2|638|dock7
    28    29     1
SMALL
USER_CHARGES


@<TRIPOS>ATOM
      1 C1          29.9977  36.3190  41.2870 C.3            1 <1>                0.0000
      2 C2          28.6060  36.5505  40.7573 C.2            1 <1>                0.0000
      3 C3          27.4707  36.4043  41.4606 C.2            1 <1>                0.0000
      4 C4          26.3699  36.7345  40.5453 C.2            1 <1>                0.0000
      5 C5          24.9374  36.7232  40.8482 C.2            1 <1>                0.0000
      6 O6          24.5592  36.5306  41.9851 O.2            1 <1>                0.0000
      7 C7          26.9636  37.0586  39.3395 C.2            1 <1>                0.0000
      8 C8          26.2431  37.4701  38.0815 C.3            1 <1>                0.0000
      9 N9          28.2980  36.9485  39.4861 N.pl3          1 <1>                0.0000
     10 C10         29.2374  37.1982  38.4760 C.ar           1 <1>                0.0000
     11 C11         29.3059  38.4522  37.8846 C.ar           1 <1>                0.0000
     12 C12         30.2333  38.6953  36.8888 C.ar           1 <1>                0.0000
     13 Cl13        30.3197  40.2632  36.1486 Cl             1 <1>                0.0000
     14 C14         31.0932  37.6901  36.4816 C.ar           1 <1>                0.0000
     15 C15         31.0273  36.4404  37.0687 C.ar           1 <1>                0.0000
     16 C16         30.1054  36.1928  38.0688 C.ar           1 <1>                0.0000
     17 Cl17        30.0236  34.6231  38.8059 Cl             1 <1>                0.0000
     18 H18         30.2801  35.2789  41.1238 H              1 <1>                0.0000
     19 H19         30.6981  36.9717  40.7659 H              1 <1>                0.0000
     20 H20         30.0215  36.5388  42.3543 H              1 <1>                0.0000
     21 H21         27.3844  36.1033  42.4943 H              1 <1>                0.0000
     22 H22         24.2174  36.8864  40.0598 H              1 <1>                0.0000
     23 H23         26.1230  38.5535  38.0694 H              1 <1>                0.0000
     24 H24         26.8229  37.1591  37.2124 H              1 <1>                0.0000
     25 H25         25.2624  36.9955  38.0526 H              1 <1>                0.0000
     26 H26         28.6353  39.2368  38.2020 H              1 <1>                0.0000
     27 H27         31.8169  37.8824  35.7033 H              1 <1>                0.0000
     28 H28         31.6992  35.6578  36.7486 H              1 <1>                0.0000
@<TRIPOS>BOND
    1    1    2 1     
    2    1   18 1     
    3    1   19 1     
    4    1   20 1     
    5    2    3 2     
    6    2    9 1     
    7    3    4 1     
    8    3   21 1     
    9    4    5 1     
   10    4    7 2     
   11    5    6 2     
   12    5   22 1     
   13    7    8 1     
   14    7    9 1     
   15    8   23 1     
   16    8   24 1     
   17    8   25 1     
   18    9   10 1     
   19   10   11 ar    
   20   10   16 ar    
   21   11   12 ar    
   22   11   26 1     
   23   12   13 1     
   24   12   14 ar    
   25   14   15 ar    
   26   14   27 1     
   27   15   16 ar    
   28   15   28 1     
   29   16   17 1     
@<TRIPOS>SUBSTRUCTURE
      1 ****           1
@<TRIPOS>COMMENT
> <Gold.Version>
2022.2.0

> <Gold.Id.Protein>
1qkm|1qkm_protein|mol2

> <Gold.Protein.RotatedTorsions>
[  496  491  490  487 ] final  122.78 input  -89.99 | X-H torsion

> <Gold.Protein.ActiveResidues>
 MET295  LEU298  THR299  LEU301  ALA302  GLU305  TRP335  MET336  LEU339  MET340 
 GLY342  LEU343  ARG346  PHE356  ILE373  ILE376  PHE377  LEU380  LYS471  GLY472 
 MET473  HIS475  LEU476  LEU477  ASN478  MET479  VAL484  VAL487 

> <Gold.Protein.RotatedAtoms>
   37.1017   32.9483   41.5784 H   0  0  0  0  0  0  0  0  0  0  0  0  # atno 496  bound_to 491 

> <Gold.Score>
     Score     S(PLP)   S(hbond)     S(cho)   S(metal)  DE(clash)   DE(tors)     intcor
     48.37     -46.05       0.78       0.00       0.00       0.00       1.12       2.21

> <Gold.PLP.Fitness>
48.3710

> <Gold.PLP.PLP>
-46.0513

> <Gold.PLP.part.hbond>
-0.5093

> <Gold.PLP.part.metal>
0.0000

> <Gold.PLP.part.buried>
5.5123

> <Gold.PLP.part.nonpolar>
-53.7283

> <Gold.PLP.part.repulsive>
1.3047

> <Gold.PLP.ligand.clash>
0.0000

> <Gold.PLP.ligand.torsion>
1.1216

> <Gold.PLP.Chemscore.Hbond>
0.7840

> <Gold.PLP.Chemscore.CHOScore>
0.0000

> <Gold.PLP.Chemscore.Metal>
0.0000

> <Gold.Chemscore.Hbonds>
donor molecule, donor type, donor heavy atom, donor atom, acceptor molecule, acceptor atom, score
      P1  H  1258  1270       L1     6  0.78

> <Gold.PLP.Chemscore.Internal.Correction>
2.2109

