#       Name:                EN300-00970_i001
#       Creating user name   aseyller
#       Creation time:       Fri Apr 21 18:49:27 2023


#       File generated by GOLD software.
#

@<TRIPOS>MOLECULE
EN300-00970_i001|benzaldehydes|mol2|638|dock20
    28    29     1
SMALL
USER_CHARGES


@<TRIPOS>ATOM
      1 C1          29.3973  40.3243  37.1064 C.3            1 <1>                0.0000
      2 C2          30.1588  39.2084  36.4386 C.2            1 <1>                0.0000
      3 C3          30.9678  39.3453  35.3749 C.2            1 <1>                0.0000
      4 C4          31.4884  38.0047  35.0739 C.2            1 <1>                0.0000
      5 C5          32.4130  37.6383  33.9993 C.2            1 <1>                0.0000
      6 O6          33.2828  36.8166  34.2012 O.2            1 <1>                0.0000
      7 C7          30.9270  37.1602  36.0136 C.2            1 <1>                0.0000
      8 C8          31.1594  35.6749  36.1186 C.3            1 <1>                0.0000
      9 N9          30.1410  37.8964  36.8226 N.pl3          1 <1>                0.0000
     10 C10         29.4024  37.3879  37.9002 C.ar           1 <1>                0.0000
     11 C11         28.0215  37.5273  37.9241 C.ar           1 <1>                0.0000
     12 C12         27.2959  37.0249  38.9881 C.ar           1 <1>                0.0000
     13 Cl13        25.5689  37.1987  39.0190 Cl             1 <1>                0.0000
     14 C14         27.9450  36.3830  40.0285 C.ar           1 <1>                0.0000
     15 C15         29.3200  36.2428  40.0074 C.ar           1 <1>                0.0000
     16 C16         30.0505  36.7386  38.9435 C.ar           1 <1>                0.0000
     17 Cl17        31.7772  36.5615  38.9176 Cl             1 <1>                0.0000
     18 H18         28.4172  40.4249  36.6403 H              1 <1>                0.0000
     19 H19         29.2746  40.0975  38.1655 H              1 <1>                0.0000
     20 H20         29.9496  41.2576  36.9964 H              1 <1>                0.0000
     21 H21         31.1910  40.2598  34.8454 H              1 <1>                0.0000
     22 H22         32.3206  38.0993  33.0270 H              1 <1>                0.0000
     23 H23         32.0118  35.4858  36.7712 H              1 <1>                0.0000
     24 H24         30.2717  35.1966  36.5326 H              1 <1>                0.0000
     25 H25         31.3628  35.2681  35.1281 H              1 <1>                0.0000
     26 H26         27.5146  38.0279  37.1125 H              1 <1>                0.0000
     27 H27         27.3760  35.9914  40.8588 H              1 <1>                0.0000
     28 H28         29.8238  35.7419  40.8209 H              1 <1>                0.0000
@<TRIPOS>BOND
    1    1    2 1     
    2    1   18 1     
    3    1   19 1     
    4    1   20 1     
    5    2    3 2     
    6    2    9 1     
    7    3    4 1     
    8    3   21 1     
    9    4    5 1     
   10    4    7 2     
   11    5    6 2     
   12    5   22 1     
   13    7    8 1     
   14    7    9 1     
   15    8   23 1     
   16    8   24 1     
   17    8   25 1     
   18    9   10 1     
   19   10   11 ar    
   20   10   16 ar    
   21   11   12 ar    
   22   11   26 1     
   23   12   13 1     
   24   12   14 ar    
   25   14   15 ar    
   26   14   27 1     
   27   15   16 ar    
   28   15   28 1     
   29   16   17 1     
@<TRIPOS>SUBSTRUCTURE
      1 ****           1
@<TRIPOS>COMMENT
> <Gold.Version>
2022.2.0

> <Gold.Id.Protein>
1qkm|1qkm_protein|mol2

> <Gold.Protein.RotatedTorsions>
[  496  491  490  487 ] final   -7.04 input  -89.99 | X-H torsion

> <Gold.Protein.ActiveResidues>
 MET295  LEU298  THR299  LEU301  ALA302  GLU305  TRP335  MET336  LEU339  MET340 
 GLY342  LEU343  ARG346  PHE356  ILE373  ILE376  PHE377  LEU380  LYS471  GLY472 
 MET473  HIS475  LEU476  LEU477  ASN478  MET479  VAL484  VAL487 

> <Gold.Protein.RotatedAtoms>
   36.2598   34.3108   42.1729 H   0  0  0  0  0  0  0  0  0  0  0  0  # atno 496  bound_to 491 

> <Gold.Score>
     Score     S(PLP)   S(hbond)     S(cho)   S(metal)  DE(clash)   DE(tors)     intcor
     47.26     -47.85       0.00       0.00       0.00       0.00       1.40       2.21

> <Gold.PLP.Fitness>
47.2576

> <Gold.PLP.PLP>
-47.8543

> <Gold.PLP.part.hbond>
0.0000

> <Gold.PLP.part.metal>
0.0000

> <Gold.PLP.part.buried>
-2.7139

> <Gold.PLP.part.nonpolar>
-47.3541

> <Gold.PLP.part.repulsive>
0.8027

> <Gold.PLP.ligand.clash>
0.0000

> <Gold.PLP.ligand.torsion>
1.4038

> <Gold.PLP.Chemscore.Hbond>
0.0000

> <Gold.PLP.Chemscore.CHOScore>
0.0000

> <Gold.PLP.Chemscore.Metal>
0.0000

> <Gold.PLP.Chemscore.Internal.Correction>
2.2109

