#       Name:                EN300-00970_i001
#       Creating user name   aseyller
#       Creation time:       Fri Apr 21 18:49:19 2023


#       File generated by GOLD software.
#

@<TRIPOS>MOLECULE
EN300-00970_i001|benzaldehydes|mol2|638|dock3
    28    29     1
SMALL
USER_CHARGES


@<TRIPOS>ATOM
      1 C1          29.9740  36.1940  42.1036 C.3            1 <1>                0.0000
      2 C2          28.7244  36.4199  41.2922 C.2            1 <1>                0.0000
      3 C3          27.5095  36.6972  41.7942 C.2            1 <1>                0.0000
      4 C4          26.6065  36.8357  40.6434 C.2            1 <1>                0.0000
      5 C5          25.1743  37.1384  40.6774 C.2            1 <1>                0.0000
      6 O6          24.6078  37.2730  41.7421 O.2            1 <1>                0.0000
      7 C7          27.3862  36.6223  39.5219 C.2            1 <1>                0.0000
      8 C8          26.9090  36.6599  38.0929 C.3            1 <1>                0.0000
      9 N9          28.6477  36.3811  39.9277 N.pl3          1 <1>                0.0000
     10 C10         29.7272  36.1186  39.0727 C.ar           1 <1>                0.0000
     11 C11         30.3225  34.8646  39.0691 C.ar           1 <1>                0.0000
     12 C12         31.3868  34.6088  38.2249 C.ar           1 <1>                0.0000
     13 Cl13        32.1320  33.0409  38.2197 Cl             1 <1>                0.0000
     14 C14         31.8586  35.6014  37.3835 C.ar           1 <1>                0.0000
     15 C15         31.2677  36.8511  37.3849 C.ar           1 <1>                0.0000
     16 C16         30.1996  37.1112  38.2233 C.ar           1 <1>                0.0000
     17 Cl17        29.4579  38.6808  38.2240 Cl             1 <1>                0.0000
     18 H18         30.0647  35.1347  42.3437 H              1 <1>                0.0000
     19 H19         30.8434  36.5118  41.5279 H              1 <1>                0.0000
     20 H20         29.9179  36.7722  43.0258 H              1 <1>                0.0000
     21 H21         27.2482  36.7981  42.8373 H              1 <1>                0.0000
     22 H22         24.6222  37.2418  39.7549 H              1 <1>                0.0000
     23 H23         27.0050  37.6737  37.7043 H              1 <1>                0.0000
     24 H24         27.5125  35.9811  37.4903 H              1 <1>                0.0000
     25 H25         25.8643  36.3519  38.0505 H              1 <1>                0.0000
     26 H26         29.9547  34.0898  39.7254 H              1 <1>                0.0000
     27 H27         32.6903  35.3993  36.7248 H              1 <1>                0.0000
     28 H28         31.6383  37.6238  36.7277 H              1 <1>                0.0000
@<TRIPOS>BOND
    1    1    2 1     
    2    1   18 1     
    3    1   19 1     
    4    1   20 1     
    5    2    3 2     
    6    2    9 1     
    7    3    4 1     
    8    3   21 1     
    9    4    5 1     
   10    4    7 2     
   11    5    6 2     
   12    5   22 1     
   13    7    8 1     
   14    7    9 1     
   15    8   23 1     
   16    8   24 1     
   17    8   25 1     
   18    9   10 1     
   19   10   11 ar    
   20   10   16 ar    
   21   11   12 ar    
   22   11   26 1     
   23   12   13 1     
   24   12   14 ar    
   25   14   15 ar    
   26   14   27 1     
   27   15   16 ar    
   28   15   28 1     
   29   16   17 1     
@<TRIPOS>SUBSTRUCTURE
      1 ****           1
@<TRIPOS>COMMENT
> <Gold.Version>
2022.2.0

> <Gold.Id.Protein>
1qkm|1qkm_protein|mol2

> <Gold.Protein.RotatedTorsions>
[  496  491  490  487 ] final  163.46 input  -89.99 | X-H torsion

> <Gold.Protein.ActiveResidues>
 MET295  LEU298  THR299  LEU301  ALA302  GLU305  TRP335  MET336  LEU339  MET340 
 GLY342  LEU343  ARG346  PHE356  ILE373  ILE376  PHE377  LEU380  LYS471  GLY472 
 MET473  HIS475  LEU476  LEU477  ASN478  MET479  VAL484  VAL487 

> <Gold.Protein.RotatedAtoms>
   37.3049   33.2450   41.0302 H   0  0  0  0  0  0  0  0  0  0  0  0  # atno 496  bound_to 491 

> <Gold.Score>
     Score     S(PLP)   S(hbond)     S(cho)   S(metal)  DE(clash)   DE(tors)     intcor
     49.87     -49.22       0.32       0.00       0.00       0.00       1.26       2.22

> <Gold.PLP.Fitness>
49.8684

> <Gold.PLP.PLP>
-49.2223

> <Gold.PLP.part.hbond>
-0.1388

> <Gold.PLP.part.metal>
0.0000

> <Gold.PLP.part.buried>
5.2279

> <Gold.PLP.part.nonpolar>
-55.8269

> <Gold.PLP.part.repulsive>
0.2591

> <Gold.PLP.ligand.clash>
0.0000

> <Gold.PLP.ligand.torsion>
1.2649

> <Gold.PLP.Chemscore.Hbond>
0.3200

> <Gold.PLP.Chemscore.CHOScore>
0.0000

> <Gold.PLP.Chemscore.Metal>
0.0000

> <Gold.Chemscore.Hbonds>
donor molecule, donor type, donor heavy atom, donor atom, acceptor molecule, acceptor atom, score
      P1  H  1258  1270       L1     6  0.32

> <Gold.PLP.Chemscore.Internal.Correction>
2.2159

