#       Name:                EN300-00970_i001
#       Creating user name   aseyller
#       Creation time:       Fri Apr 21 18:49:20 2023


#       File generated by GOLD software.
#

@<TRIPOS>MOLECULE
EN300-00970_i001|benzaldehydes|mol2|638|dock5
    28    29     1
SMALL
USER_CHARGES


@<TRIPOS>ATOM
      1 C1          28.1791  37.9129  36.0237 C.3            1 <1>                0.0000
      2 C2          27.8040  37.5695  37.4423 C.2            1 <1>                0.0000
      3 C3          26.6057  37.7933  38.0069 C.2            1 <1>                0.0000
      4 C4          26.6991  37.3008  39.3881 C.2            1 <1>                0.0000
      5 C5          25.6464  37.3231  40.4055 C.2            1 <1>                0.0000
      6 O6          25.8915  36.9689  41.5400 O.2            1 <1>                0.0000
      7 C7          27.9843  36.8116  39.5301 C.2            1 <1>                0.0000
      8 C8          28.5633  36.1958  40.7778 C.3            1 <1>                0.0000
      9 N9          28.6273  36.9752  38.3578 N.pl3          1 <1>                0.0000
     10 C10         29.9551  36.5977  38.1138 C.ar           1 <1>                0.0000
     11 C11         30.3379  35.2709  38.2548 C.ar           1 <1>                0.0000
     12 C12         31.6480  34.9016  38.0135 C.ar           1 <1>                0.0000
     13 Cl13        32.1277  33.2426  38.1896 Cl             1 <1>                0.0000
     14 C14         32.5775  35.8533  37.6313 C.ar           1 <1>                0.0000
     15 C15         32.1991  37.1753  37.4901 C.ar           1 <1>                0.0000
     16 C16         30.8892  37.5497  37.7250 C.ar           1 <1>                0.0000
     17 Cl17        30.4148  39.2102  37.5469 Cl             1 <1>                0.0000
     18 H18         28.5884  38.9226  35.9905 H              1 <1>                0.0000
     19 H19         28.9266  37.2057  35.6641 H              1 <1>                0.0000
     20 H20         27.2935  37.8588  35.3905 H              1 <1>                0.0000
     21 H21         25.7443  38.2460  37.5384 H              1 <1>                0.0000
     22 H22         24.6518  37.6550  40.1463 H              1 <1>                0.0000
     23 H23         28.3839  35.1206  40.7692 H              1 <1>                0.0000
     24 H24         29.6362  36.3849  40.8121 H              1 <1>                0.0000
     25 H25         28.0885  36.6364  41.6544 H              1 <1>                0.0000
     26 H26         29.6131  34.5279  38.5529 H              1 <1>                0.0000
     27 H27         33.6005  35.5625  37.4434 H              1 <1>                0.0000
     28 H28         32.9267  37.9158  37.1922 H              1 <1>                0.0000
@<TRIPOS>BOND
    1    1    2 1     
    2    1   18 1     
    3    1   19 1     
    4    1   20 1     
    5    2    3 2     
    6    2    9 1     
    7    3    4 1     
    8    3   21 1     
    9    4    5 1     
   10    4    7 2     
   11    5    6 2     
   12    5   22 1     
   13    7    8 1     
   14    7    9 1     
   15    8   23 1     
   16    8   24 1     
   17    8   25 1     
   18    9   10 1     
   19   10   11 ar    
   20   10   16 ar    
   21   11   12 ar    
   22   11   26 1     
   23   12   13 1     
   24   12   14 ar    
   25   14   15 ar    
   26   14   27 1     
   27   15   16 ar    
   28   15   28 1     
   29   16   17 1     
@<TRIPOS>SUBSTRUCTURE
      1 ****           1
@<TRIPOS>COMMENT
> <Gold.Version>
2022.2.0

> <Gold.Id.Protein>
1qkm|1qkm_protein|mol2

> <Gold.Protein.RotatedTorsions>
[  496  491  490  487 ] final  175.40 input  -89.99 | X-H torsion

> <Gold.Protein.ActiveResidues>
 MET295  LEU298  THR299  LEU301  ALA302  GLU305  TRP335  MET336  LEU339  MET340 
 GLY342  LEU343  ARG346  PHE356  ILE373  ILE376  PHE377  LEU380  LYS471  GLY472 
 MET473  HIS475  LEU476  LEU477  ASN478  MET479  VAL484  VAL487 

> <Gold.Protein.RotatedAtoms>
   37.3187   33.3974   40.9075 H   0  0  0  0  0  0  0  0  0  0  0  0  # atno 496  bound_to 491 

> <Gold.Score>
     Score     S(PLP)   S(hbond)     S(cho)   S(metal)  DE(clash)   DE(tors)     intcor
     52.10     -52.11       0.00       0.00       0.00       0.00       1.11       2.22

> <Gold.PLP.Fitness>
52.1022

> <Gold.PLP.PLP>
-52.1145

> <Gold.PLP.part.hbond>
0.0000

> <Gold.PLP.part.metal>
0.0000

> <Gold.PLP.part.buried>
-3.6426

> <Gold.PLP.part.nonpolar>
-50.3236

> <Gold.PLP.part.repulsive>
0.2073

> <Gold.PLP.ligand.clash>
0.0000

> <Gold.PLP.ligand.torsion>
1.1141

> <Gold.PLP.Chemscore.Hbond>
0.0000

> <Gold.PLP.Chemscore.CHOScore>
0.0000

> <Gold.PLP.Chemscore.Metal>
0.0000

> <Gold.PLP.Chemscore.Internal.Correction>
2.2159

