#       Name:                EN300-00970_i001
#       Creating user name   aseyller
#       Creation time:       Fri Apr 21 18:49:26 2023


#       File generated by GOLD software.
#

@<TRIPOS>MOLECULE
EN300-00970_i001|benzaldehydes|mol2|638|dock18
    28    29     1
SMALL
USER_CHARGES


@<TRIPOS>ATOM
      1 C1          27.5159  38.1026  36.2235 C.3            1 <1>                0.0000
      2 C2          27.6070  37.6396  37.6547 C.2            1 <1>                0.0000
      3 C3          26.5689  37.5027  38.4965 C.2            1 <1>                0.0000
      4 C4          27.1273  37.0307  39.7709 C.2            1 <1>                0.0000
      5 C5          26.3902  36.7334  41.0006 C.2            1 <1>                0.0000
      6 O6          25.2676  37.1674  41.1551 O.2            1 <1>                0.0000
      7 C7          28.4911  36.9243  39.5711 C.2            1 <1>                0.0000
      8 C8          29.5023  36.4746  40.5940 C.3            1 <1>                0.0000
      9 N9          28.7585  37.2863  38.3015 N.pl3          1 <1>                0.0000
     10 C10         30.0373  37.3065  37.7274 C.ar           1 <1>                0.0000
     11 C11         30.7879  36.1408  37.6604 C.ar           1 <1>                0.0000
     12 C12         32.0485  36.1638  37.0937 C.ar           1 <1>                0.0000
     13 Cl13        32.9880  34.7064  37.0095 Cl             1 <1>                0.0000
     14 C14         32.5622  37.3476  36.5932 C.ar           1 <1>                0.0000
     15 C15         31.8171  38.5099  36.6586 C.ar           1 <1>                0.0000
     16 C16         30.5535  38.4920  37.2194 C.ar           1 <1>                0.0000
     17 Cl17        29.6182  39.9523  37.3007 Cl             1 <1>                0.0000
     18 H18         27.6151  39.1873  36.1856 H              1 <1>                0.0000
     19 H19         28.3155  37.6440  35.6417 H              1 <1>                0.0000
     20 H20         26.5513  37.8111  35.8081 H              1 <1>                0.0000
     21 H21         25.5296  37.7008  38.2794 H              1 <1>                0.0000
     22 H22         26.8457  36.1277  41.7702 H              1 <1>                0.0000
     23 H23         29.6248  35.3932  40.5329 H              1 <1>                0.0000
     24 H24         30.4583  36.9602  40.3978 H              1 <1>                0.0000
     25 H25         29.1554  36.7453  41.5912 H              1 <1>                0.0000
     26 H26         30.3875  35.2169  38.0507 H              1 <1>                0.0000
     27 H27         33.5474  37.3632  36.1510 H              1 <1>                0.0000
     28 H28         32.2206  39.4323  36.2676 H              1 <1>                0.0000
@<TRIPOS>BOND
    1    1    2 1     
    2    1   18 1     
    3    1   19 1     
    4    1   20 1     
    5    2    3 2     
    6    2    9 1     
    7    3    4 1     
    8    3   21 1     
    9    4    5 1     
   10    4    7 2     
   11    5    6 2     
   12    5   22 1     
   13    7    8 1     
   14    7    9 1     
   15    8   23 1     
   16    8   24 1     
   17    8   25 1     
   18    9   10 1     
   19   10   11 ar    
   20   10   16 ar    
   21   11   12 ar    
   22   11   26 1     
   23   12   13 1     
   24   12   14 ar    
   25   14   15 ar    
   26   14   27 1     
   27   15   16 ar    
   28   15   28 1     
   29   16   17 1     
@<TRIPOS>SUBSTRUCTURE
      1 ****           1
@<TRIPOS>COMMENT
> <Gold.Version>
2022.2.0

> <Gold.Id.Protein>
1qkm|1qkm_protein|mol2

> <Gold.Protein.RotatedTorsions>
[  496  491  490  487 ] final   34.48 input  -89.99 | X-H torsion

> <Gold.Protein.ActiveResidues>
 MET295  LEU298  THR299  LEU301  ALA302  GLU305  TRP335  MET336  LEU339  MET340 
 GLY342  LEU343  ARG346  PHE356  ILE373  ILE376  PHE377  LEU380  LYS471  GLY472 
 MET473  HIS475  LEU476  LEU477  ASN478  MET479  VAL484  VAL487 

> <Gold.Protein.RotatedAtoms>
   36.3705   33.6858   42.3833 H   0  0  0  0  0  0  0  0  0  0  0  0  # atno 496  bound_to 491 

> <Gold.Score>
     Score     S(PLP)   S(hbond)     S(cho)   S(metal)  DE(clash)   DE(tors)     intcor
     44.65     -44.80       0.00       0.00       0.00       0.00       1.18       2.21

> <Gold.PLP.Fitness>
44.6537

> <Gold.PLP.PLP>
-44.8032

> <Gold.PLP.part.hbond>
-0.6550

> <Gold.PLP.part.metal>
0.0000

> <Gold.PLP.part.buried>
-1.4176

> <Gold.PLP.part.nonpolar>
-43.6676

> <Gold.PLP.part.repulsive>
0.1909

> <Gold.PLP.ligand.clash>
0.0000

> <Gold.PLP.ligand.torsion>
1.1801

> <Gold.PLP.Chemscore.Hbond>
0.0000

> <Gold.PLP.Chemscore.CHOScore>
0.0000

> <Gold.PLP.Chemscore.Metal>
0.0000

> <Gold.PLP.Chemscore.Internal.Correction>
2.2109

