#       Name:                EN300-00970_i001
#       Creating user name   aseyller
#       Creation time:       Fri Apr 21 18:49:26 2023


#       File generated by GOLD software.
#

@<TRIPOS>MOLECULE
EN300-00970_i001|benzaldehydes|mol2|638|dock19
    28    29     1
SMALL
USER_CHARGES


@<TRIPOS>ATOM
      1 C1          30.1084  39.7172  36.8336 C.3            1 <1>                0.0000
      2 C2          29.5257  38.5087  37.5200 C.2            1 <1>                0.0000
      3 C3          28.3585  38.4778  38.1844 C.2            1 <1>                0.0000
      4 C4          28.1998  37.1042  38.6812 C.2            1 <1>                0.0000
      5 C5          27.0830  36.5733  39.4653 C.2            1 <1>                0.0000
      6 O6          26.1012  37.2584  39.6637 O.2            1 <1>                0.0000
      7 C7          29.3208  36.4156  38.2564 C.2            1 <1>                0.0000
      8 C8          29.6182  34.9619  38.5201 C.3            1 <1>                0.0000
      9 N9          30.0980  37.2678  37.5607 N.pl3          1 <1>                0.0000
     10 C10         31.3240  36.9321  36.9696 C.ar           1 <1>                0.0000
     11 C11         32.3618  36.4427  37.7509 C.ar           1 <1>                0.0000
     12 C12         33.5696  36.1126  37.1653 C.ar           1 <1>                0.0000
     13 Cl13        34.8680  35.5006  38.1415 Cl             1 <1>                0.0000
     14 C14         33.7445  36.2693  35.8012 C.ar           1 <1>                0.0000
     15 C15         32.7129  36.7563  35.0207 C.ar           1 <1>                0.0000
     16 C16         31.5010  37.0833  35.6000 C.ar           1 <1>                0.0000
     17 Cl17        30.2057  37.6944  34.6189 Cl             1 <1>                0.0000
     18 H18         30.7361  40.2662  37.5354 H              1 <1>                0.0000
     19 H19         30.7092  39.3970  35.9823 H              1 <1>                0.0000
     20 H20         29.3013  40.3623  36.4865 H              1 <1>                0.0000
     21 H21         27.6726  39.3001  38.3256 H              1 <1>                0.0000
     22 H22         27.1330  35.5720  39.8669 H              1 <1>                0.0000
     23 H23         29.2028  34.3543  37.7161 H              1 <1>                0.0000
     24 H24         30.6973  34.8144  38.5666 H              1 <1>                0.0000
     25 H25         29.1699  34.6655  39.4683 H              1 <1>                0.0000
     26 H26         32.2257  36.3203  38.8153 H              1 <1>                0.0000
     27 H27         34.6891  36.0107  35.3458 H              1 <1>                0.0000
     28 H28         32.8525  36.8779  33.9567 H              1 <1>                0.0000
@<TRIPOS>BOND
    1    1    2 1     
    2    1   18 1     
    3    1   19 1     
    4    1   20 1     
    5    2    3 2     
    6    2    9 1     
    7    3    4 1     
    8    3   21 1     
    9    4    5 1     
   10    4    7 2     
   11    5    6 2     
   12    5   22 1     
   13    7    8 1     
   14    7    9 1     
   15    8   23 1     
   16    8   24 1     
   17    8   25 1     
   18    9   10 1     
   19   10   11 ar    
   20   10   16 ar    
   21   11   12 ar    
   22   11   26 1     
   23   12   13 1     
   24   12   14 ar    
   25   14   15 ar    
   26   14   27 1     
   27   15   16 ar    
   28   15   28 1     
   29   16   17 1     
@<TRIPOS>SUBSTRUCTURE
      1 ****           1
@<TRIPOS>COMMENT
> <Gold.Version>
2022.2.0

> <Gold.Id.Protein>
1qkm|1qkm_protein|mol2

> <Gold.Protein.RotatedTorsions>
[  496  491  490  487 ] final   10.41 input  -89.99 | X-H torsion

> <Gold.Protein.ActiveResidues>
 MET295  LEU298  THR299  LEU301  ALA302  GLU305  TRP335  MET336  LEU339  MET340 
 GLY342  LEU343  ARG346  PHE356  ILE373  ILE376  PHE377  LEU380  LYS471  GLY472 
 MET473  HIS475  LEU476  LEU477  ASN478  MET479  VAL484  VAL487 

> <Gold.Protein.RotatedAtoms>
   36.2741   34.0600   42.3102 H   0  0  0  0  0  0  0  0  0  0  0  0  # atno 496  bound_to 491 

> <Gold.Score>
     Score     S(PLP)   S(hbond)     S(cho)   S(metal)  DE(clash)   DE(tors)     intcor
     41.99     -42.01       0.00       0.00       0.00       0.00       1.12       2.21

> <Gold.PLP.Fitness>
41.9854

> <Gold.PLP.PLP>
-42.0070

> <Gold.PLP.part.hbond>
0.0000

> <Gold.PLP.part.metal>
0.0000

> <Gold.PLP.part.buried>
-3.3270

> <Gold.PLP.part.nonpolar>
-39.2500

> <Gold.PLP.part.repulsive>
0.0624

> <Gold.PLP.ligand.clash>
0.0000

> <Gold.PLP.ligand.torsion>
1.1162

> <Gold.PLP.Chemscore.Hbond>
0.0000

> <Gold.PLP.Chemscore.CHOScore>
0.0000

> <Gold.PLP.Chemscore.Metal>
0.0000

> <Gold.PLP.Chemscore.Internal.Correction>
2.2109

