#       Name:                EN300-00970_i001
#       Creating user name   aseyller
#       Creation time:       Fri Apr 21 18:49:22 2023


#       File generated by GOLD software.
#

@<TRIPOS>MOLECULE
EN300-00970_i001|benzaldehydes|mol2|638|dock9
    28    29     1
SMALL
USER_CHARGES


@<TRIPOS>ATOM
      1 C1          28.3980  37.6172  36.5678 C.3            1 <1>                0.0000
      2 C2          27.8452  37.2916  37.9315 C.2            1 <1>                0.0000
      3 C3          26.6997  37.7727  38.4425 C.2            1 <1>                0.0000
      4 C4          26.5659  37.1883  39.7840 C.2            1 <1>                0.0000
      5 C5          25.4778  37.4104  40.7383 C.2            1 <1>                0.0000
      6 O6          25.5448  36.9402  41.8550 O.2            1 <1>                0.0000
      7 C7          27.6774  36.3855  39.9604 C.2            1 <1>                0.0000
      8 C8          27.9927  35.5687  41.1871 C.3            1 <1>                0.0000
      9 N9          28.4267  36.4551  38.8432 N.pl3          1 <1>                0.0000
     10 C10         29.6357  35.7733  38.6466 C.ar           1 <1>                0.0000
     11 C11         30.8024  36.4838  38.3998 C.ar           1 <1>                0.0000
     12 C12         31.9931  35.8087  38.2063 C.ar           1 <1>                0.0000
     13 Cl13        33.4527  36.6963  37.8976 Cl             1 <1>                0.0000
     14 C14         32.0227  34.4259  38.2589 C.ar           1 <1>                0.0000
     15 C15         30.8624  33.7158  38.5044 C.ar           1 <1>                0.0000
     16 C16         29.6696  34.3857  38.7039 C.ar           1 <1>                0.0000
     17 Cl17        28.2130  33.4931  39.0128 Cl             1 <1>                0.0000
     18 H18         29.0438  38.4924  36.6372 H              1 <1>                0.0000
     19 H19         28.9738  36.7691  36.1973 H              1 <1>                0.0000
     20 H20         27.5761  37.8253  35.8829 H              1 <1>                0.0000
     21 H21         26.0132  38.4544  37.9625 H              1 <1>                0.0000
     22 H22         24.6157  37.9928  40.4483 H              1 <1>                0.0000
     23 H23         27.5561  34.5752  41.0841 H              1 <1>                0.0000
     24 H24         29.0736  35.4811  41.2973 H              1 <1>                0.0000
     25 H25         27.5763  36.0592  42.0669 H              1 <1>                0.0000
     26 H26         30.7799  37.5627  38.3587 H              1 <1>                0.0000
     27 H27         32.9541  33.9006  38.1073 H              1 <1>                0.0000
     28 H28         30.8884  32.6369  38.5444 H              1 <1>                0.0000
@<TRIPOS>BOND
    1    1    2 1     
    2    1   18 1     
    3    1   19 1     
    4    1   20 1     
    5    2    3 2     
    6    2    9 1     
    7    3    4 1     
    8    3   21 1     
    9    4    5 1     
   10    4    7 2     
   11    5    6 2     
   12    5   22 1     
   13    7    8 1     
   14    7    9 1     
   15    8   23 1     
   16    8   24 1     
   17    8   25 1     
   18    9   10 1     
   19   10   11 ar    
   20   10   16 ar    
   21   11   12 ar    
   22   11   26 1     
   23   12   13 1     
   24   12   14 ar    
   25   14   15 ar    
   26   14   27 1     
   27   15   16 ar    
   28   15   28 1     
   29   16   17 1     
@<TRIPOS>SUBSTRUCTURE
      1 ****           1
@<TRIPOS>COMMENT
> <Gold.Version>
2022.2.0

> <Gold.Id.Protein>
1qkm|1qkm_protein|mol2

> <Gold.Protein.RotatedTorsions>
[  496  491  490  487 ] final  -79.21 input  -89.99 | X-H torsion

> <Gold.Protein.ActiveResidues>
 MET295  LEU298  THR299  LEU301  ALA302  GLU305  TRP335  MET336  LEU339  MET340 
 GLY342  LEU343  ARG346  PHE356  ILE373  ILE376  PHE377  LEU380  LYS471  GLY472 
 MET473  HIS475  LEU476  LEU477  ASN478  MET479  VAL484  VAL487 

> <Gold.Protein.RotatedAtoms>
   36.6589   34.7093   41.2157 H   0  0  0  0  0  0  0  0  0  0  0  0  # atno 496  bound_to 491 

> <Gold.Score>
     Score     S(PLP)   S(hbond)     S(cho)   S(metal)  DE(clash)   DE(tors)     intcor
     49.78     -49.48       0.11       0.00       0.00       0.00       1.12       2.21

> <Gold.PLP.Fitness>
49.7782

> <Gold.PLP.PLP>
-49.4842

> <Gold.PLP.part.hbond>
-1.0000

> <Gold.PLP.part.metal>
0.0000

> <Gold.PLP.part.buried>
-4.4640

> <Gold.PLP.part.nonpolar>
-45.0658

> <Gold.PLP.part.repulsive>
0.4185

> <Gold.PLP.ligand.clash>
0.0000

> <Gold.PLP.ligand.torsion>
1.1215

> <Gold.PLP.Chemscore.Hbond>
0.1087

> <Gold.PLP.Chemscore.CHOScore>
0.0000

> <Gold.PLP.Chemscore.Metal>
0.0000

> <Gold.Chemscore.Hbonds>
donor molecule, donor type, donor heavy atom, donor atom, acceptor molecule, acceptor atom, score
      P1  H  1258  1270       L1     6  0.11

> <Gold.PLP.Chemscore.Internal.Correction>
2.2109

