#       Name:                EN300-00970_i001
#       Creating user name   aseyller
#       Creation time:       Fri Apr 21 18:49:18 2023


#       File generated by GOLD software.
#

@<TRIPOS>MOLECULE
EN300-00970_i001|benzaldehydes|mol2|638|dock2
    28    29     1
SMALL
USER_CHARGES


@<TRIPOS>ATOM
      1 C1          27.7188  37.3917  36.8718 C.3            1 <1>                0.0000
      2 C2          27.4831  37.0117  38.3109 C.2            1 <1>                0.0000
      3 C3          26.3512  37.2337  38.9996 C.2            1 <1>                0.0000
      4 C4          26.5754  36.7001  40.3501 C.2            1 <1>                0.0000
      5 C5          25.6308  36.7058  41.4688 C.2            1 <1>                0.0000
      6 O6          24.7376  37.5264  41.5045 O.2            1 <1>                0.0000
      7 C7          27.8608  36.1911  40.3480 C.2            1 <1>                0.0000
      8 C8          28.5529  35.5322  41.5133 C.3            1 <1>                0.0000
      9 N9          28.3851  36.3809  39.1218 N.pl3          1 <1>                0.0000
     10 C10         29.6758  35.9943  38.7347 C.ar           1 <1>                0.0000
     11 C11         30.0504  34.6593  38.7991 C.ar           1 <1>                0.0000
     12 C12         31.3239  34.2811  38.4167 C.ar           1 <1>                0.0000
     13 Cl13        31.7934  32.6118  38.4969 Cl             1 <1>                0.0000
     14 C14         32.2247  35.2321  37.9695 C.ar           1 <1>                0.0000
     15 C15         31.8543  36.5622  37.9043 C.ar           1 <1>                0.0000
     16 C16         30.5805  36.9457  38.2804 C.ar           1 <1>                0.0000
     17 Cl17        30.1161  38.6164  38.1977 Cl             1 <1>                0.0000
     18 H18         28.1380  38.3967  36.8254 H              1 <1>                0.0000
     19 H19         28.4155  36.6861  36.4191 H              1 <1>                0.0000
     20 H20         26.7733  37.3669  36.3299 H              1 <1>                0.0000
     21 H21         25.4540  37.7105  38.6331 H              1 <1>                0.0000
     22 H22         25.7290  35.9795  42.2621 H              1 <1>                0.0000
     23 H23         28.3572  34.4601  41.4931 H              1 <1>                0.0000
     24 H24         29.6266  35.7070  41.4444 H              1 <1>                0.0000
     25 H25         28.1754  35.9529  42.4453 H              1 <1>                0.0000
     26 H26         29.3479  33.9169  39.1479 H              1 <1>                0.0000
     27 H27         33.2191  34.9342  37.6713 H              1 <1>                0.0000
     28 H28         32.5595  37.3021  37.5553 H              1 <1>                0.0000
@<TRIPOS>BOND
    1    1    2 1     
    2    1   18 1     
    3    1   19 1     
    4    1   20 1     
    5    2    3 2     
    6    2    9 1     
    7    3    4 1     
    8    3   21 1     
    9    4    5 1     
   10    4    7 2     
   11    5    6 2     
   12    5   22 1     
   13    7    8 1     
   14    7    9 1     
   15    8   23 1     
   16    8   24 1     
   17    8   25 1     
   18    9   10 1     
   19   10   11 ar    
   20   10   16 ar    
   21   11   12 ar    
   22   11   26 1     
   23   12   13 1     
   24   12   14 ar    
   25   14   15 ar    
   26   14   27 1     
   27   15   16 ar    
   28   15   28 1     
   29   16   17 1     
@<TRIPOS>SUBSTRUCTURE
      1 ****           1
@<TRIPOS>COMMENT
> <Gold.Version>
2022.2.0

> <Gold.Id.Protein>
1qkm|1qkm_protein|mol2

> <Gold.Protein.RotatedTorsions>
[  496  491  490  487 ] final -126.29 input  -89.99 | X-H torsion

> <Gold.Protein.ActiveResidues>
 MET295  LEU298  THR299  LEU301  ALA302  GLU305  TRP335  MET336  LEU339  MET340 
 GLY342  LEU343  ARG346  PHE356  ILE373  ILE376  PHE377  LEU380  LYS471  GLY472 
 MET473  HIS475  LEU476  LEU477  ASN478  MET479  VAL484  VAL487 

> <Gold.Protein.RotatedAtoms>
   37.0766   34.2726   40.7659 H   0  0  0  0  0  0  0  0  0  0  0  0  # atno 496  bound_to 491 

> <Gold.Score>
     Score     S(PLP)   S(hbond)     S(cho)   S(metal)  DE(clash)   DE(tors)     intcor
     56.79     -56.41       0.21       0.00       0.00       0.00       1.23       2.22

> <Gold.PLP.Fitness>
56.7941

> <Gold.PLP.PLP>
-56.4068

> <Gold.PLP.part.hbond>
-0.8384

> <Gold.PLP.part.metal>
0.0000

> <Gold.PLP.part.buried>
-0.9424

> <Gold.PLP.part.nonpolar>
-56.1605

> <Gold.PLP.part.repulsive>
0.2137

> <Gold.PLP.ligand.clash>
0.0000

> <Gold.PLP.ligand.torsion>
1.2309

> <Gold.PLP.Chemscore.Hbond>
0.2080

> <Gold.PLP.Chemscore.CHOScore>
0.0000

> <Gold.PLP.Chemscore.Metal>
0.0000

> <Gold.Chemscore.Hbonds>
donor molecule, donor type, donor heavy atom, donor atom, acceptor molecule, acceptor atom, score
      P1  H  1258  1270       L1     6  0.21

> <Gold.PLP.Chemscore.Internal.Correction>
2.2250

