#       Name:                EN300-00970_i001
#       Creating user name   aseyller
#       Creation time:       Fri Apr 21 18:49:23 2023


#       File generated by GOLD software.
#

@<TRIPOS>MOLECULE
EN300-00970_i001|benzaldehydes|mol2|638|dock11
    28    29     1
SMALL
USER_CHARGES


@<TRIPOS>ATOM
      1 C1          26.4738  37.8034  37.0179 C.3            1 <1>                0.0000
      2 C2          26.7463  37.4510  38.4576 C.2            1 <1>                0.0000
      3 C3          25.8108  37.2489  39.4004 C.2            1 <1>                0.0000
      4 C4          26.5327  36.9323  40.6404 C.2            1 <1>                0.0000
      5 C5          25.9485  36.6328  41.9491 C.2            1 <1>                0.0000
      6 O6          24.7462  36.6883  42.1039 O.2            1 <1>                0.0000
      7 C7          27.8764  36.9747  40.3182 C.2            1 <1>                0.0000
      8 C8          29.0211  36.7170  41.2639 C.3            1 <1>                0.0000
      9 N9          27.9849  37.2803  39.0108 N.pl3          1 <1>                0.0000
     10 C10         29.1961  37.4131  38.3177 C.ar           1 <1>                0.0000
     11 C11         29.5176  38.6157  37.7035 C.ar           1 <1>                0.0000
     12 C12         30.7127  38.7436  37.0207 C.ar           1 <1>                0.0000
     13 Cl13        31.1156  40.2472  36.2522 Cl             1 <1>                0.0000
     14 C14         31.5886  37.6742  36.9496 C.ar           1 <1>                0.0000
     15 C15         31.2711  36.4755  37.5603 C.ar           1 <1>                0.0000
     16 C16         30.0797  36.3432  38.2490 C.ar           1 <1>                0.0000
     17 Cl17        29.6820  34.8374  39.0160 Cl             1 <1>                0.0000
     18 H18         26.4343  38.8873  36.9105 H              1 <1>                0.0000
     19 H19         27.2701  37.4047  36.3893 H              1 <1>                0.0000
     20 H20         25.5201  37.3729  36.7128 H              1 <1>                0.0000
     21 H21         24.7400  37.3078  39.2722 H              1 <1>                0.0000
     22 H22         26.5877  36.3623  42.7766 H              1 <1>                0.0000
     23 H23         29.2707  35.6560  41.2518 H              1 <1>                0.0000
     24 H24         29.8887  37.2980  40.9511 H              1 <1>                0.0000
     25 H25         28.7319  37.0107  42.2730 H              1 <1>                0.0000
     26 H26         28.8346  39.4504  37.7588 H              1 <1>                0.0000
     27 H27         32.5217  37.7765  36.4156 H              1 <1>                0.0000
     28 H28         31.9562  35.6426  37.5027 H              1 <1>                0.0000
@<TRIPOS>BOND
    1    1    2 1     
    2    1   18 1     
    3    1   19 1     
    4    1   20 1     
    5    2    3 2     
    6    2    9 1     
    7    3    4 1     
    8    3   21 1     
    9    4    5 1     
   10    4    7 2     
   11    5    6 2     
   12    5   22 1     
   13    7    8 1     
   14    7    9 1     
   15    8   23 1     
   16    8   24 1     
   17    8   25 1     
   18    9   10 1     
   19   10   11 ar    
   20   10   16 ar    
   21   11   12 ar    
   22   11   26 1     
   23   12   13 1     
   24   12   14 ar    
   25   14   15 ar    
   26   14   27 1     
   27   15   16 ar    
   28   15   28 1     
   29   16   17 1     
@<TRIPOS>SUBSTRUCTURE
      1 ****           1
@<TRIPOS>COMMENT
> <Gold.Version>
2022.2.0

> <Gold.Id.Protein>
1qkm|1qkm_protein|mol2

> <Gold.Protein.RotatedTorsions>
[  496  491  490  487 ] final   99.17 input  -89.99 | X-H torsion

> <Gold.Protein.ActiveResidues>
 MET295  LEU298  THR299  LEU301  ALA302  GLU305  TRP335  MET336  LEU339  MET340 
 GLY342  LEU343  ARG346  PHE356  ILE373  ILE376  PHE377  LEU380  LYS471  GLY472 
 MET473  HIS475  LEU476  LEU477  ASN478  MET479  VAL484  VAL487 

> <Gold.Protein.RotatedAtoms>
   36.9041   32.9725   41.9092 H   0  0  0  0  0  0  0  0  0  0  0  0  # atno 496  bound_to 491 

> <Gold.Score>
     Score     S(PLP)   S(hbond)     S(cho)   S(metal)  DE(clash)   DE(tors)     intcor
     46.42     -44.60       0.61       0.00       0.00       0.00       1.11       2.21

> <Gold.PLP.Fitness>
46.4185

> <Gold.PLP.PLP>
-44.6040

> <Gold.PLP.part.hbond>
-0.3053

> <Gold.PLP.part.metal>
0.0000

> <Gold.PLP.part.buried>
0.1162

> <Gold.PLP.part.nonpolar>
-45.4404

> <Gold.PLP.part.repulsive>
1.1155

> <Gold.PLP.ligand.clash>
0.0000

> <Gold.PLP.ligand.torsion>
1.1102

> <Gold.PLP.Chemscore.Hbond>
0.6080

> <Gold.PLP.Chemscore.CHOScore>
0.0000

> <Gold.PLP.Chemscore.Metal>
0.0000

> <Gold.Chemscore.Hbonds>
donor molecule, donor type, donor heavy atom, donor atom, acceptor molecule, acceptor atom, score
      P1  H  1258  1270       L1     6  0.61

> <Gold.PLP.Chemscore.Internal.Correction>
2.2109

