#       Name:                EN300-00970_i001
#       Creating user name   aseyller
#       Creation time:       Fri Apr 21 18:49:25 2023


#       File generated by GOLD software.
#

@<TRIPOS>MOLECULE
EN300-00970_i001|benzaldehydes|mol2|638|dock16
    28    29     1
SMALL
USER_CHARGES


@<TRIPOS>ATOM
      1 C1          30.0733  36.4720  41.9835 C.3            1 <1>                0.0000
      2 C2          28.7607  36.5344  41.2458 C.2            1 <1>                0.0000
      3 C3          27.5468  36.5842  41.8191 C.2            1 <1>                0.0000
      4 C4          26.5711  36.6345  40.7217 C.2            1 <1>                0.0000
      5 C5          25.1131  36.6985  40.8400 C.2            1 <1>                0.0000
      6 O6          24.5935  36.7171  41.9365 O.2            1 <1>                0.0000
      7 C7          27.3116  36.6095  39.5546 C.2            1 <1>                0.0000
      8 C8          26.7563  36.6440  38.1540 C.3            1 <1>                0.0000
      9 N9          28.6159  36.5552  39.8865 N.pl3          1 <1>                0.0000
     10 C10         29.6745  36.5167  38.9683 C.ar           1 <1>                0.0000
     11 C11         30.0045  37.6510  38.2394 C.ar           1 <1>                0.0000
     12 C12         31.0488  37.6100  37.3347 C.ar           1 <1>                0.0000
     13 Cl13        31.4622  39.0281  36.4227 Cl             1 <1>                0.0000
     14 C14         31.7654  36.4394  37.1556 C.ar           1 <1>                0.0000
     15 C15         31.4391  35.3083  37.8800 C.ar           1 <1>                0.0000
     16 C16         30.3990  35.3448  38.7900 C.ar           1 <1>                0.0000
     17 Cl17        29.9902  33.9238  39.6997 Cl             1 <1>                0.0000
     18 H18         30.3448  35.4304  42.1545 H              1 <1>                0.0000
     19 H19         30.8477  36.9564  41.3887 H              1 <1>                0.0000
     20 H20         29.9767  36.9843  42.9407 H              1 <1>                0.0000
     21 H21         27.3308  36.5864  42.8774 H              1 <1>                0.0000
     22 H22         24.5000  36.7292  39.9513 H              1 <1>                0.0000
     23 H23         26.6678  37.6790  37.8236 H              1 <1>                0.0000
     24 H24         27.4261  36.1047  37.4841 H              1 <1>                0.0000
     25 H25         25.7733  36.1732  38.1412 H              1 <1>                0.0000
     26 H26         29.4457  38.5646  38.3789 H              1 <1>                0.0000
     27 H27         32.5809  36.4097  36.4481 H              1 <1>                0.0000
     28 H28         31.9997  34.3962  37.7378 H              1 <1>                0.0000
@<TRIPOS>BOND
    1    1    2 1     
    2    1   18 1     
    3    1   19 1     
    4    1   20 1     
    5    2    3 2     
    6    2    9 1     
    7    3    4 1     
    8    3   21 1     
    9    4    5 1     
   10    4    7 2     
   11    5    6 2     
   12    5   22 1     
   13    7    8 1     
   14    7    9 1     
   15    8   23 1     
   16    8   24 1     
   17    8   25 1     
   18    9   10 1     
   19   10   11 ar    
   20   10   16 ar    
   21   11   12 ar    
   22   11   26 1     
   23   12   13 1     
   24   12   14 ar    
   25   14   15 ar    
   26   14   27 1     
   27   15   16 ar    
   28   15   28 1     
   29   16   17 1     
@<TRIPOS>SUBSTRUCTURE
      1 ****           1
@<TRIPOS>COMMENT
> <Gold.Version>
2022.2.0

> <Gold.Id.Protein>
1qkm|1qkm_protein|mol2

> <Gold.Protein.RotatedTorsions>
[  496  491  490  487 ] final   68.35 input  -89.99 | X-H torsion

> <Gold.Protein.ActiveResidues>
 MET295  LEU298  THR299  LEU301  ALA302  GLU305  TRP335  MET336  LEU339  MET340 
 GLY342  LEU343  ARG346  PHE356  ILE373  ILE376  PHE377  LEU380  LYS471  GLY472 
 MET473  HIS475  LEU476  LEU477  ASN478  MET479  VAL484  VAL487 

> <Gold.Protein.RotatedAtoms>
   36.6228   33.2183   42.2434 H   0  0  0  0  0  0  0  0  0  0  0  0  # atno 496  bound_to 491 

> <Gold.Score>
     Score     S(PLP)   S(hbond)     S(cho)   S(metal)  DE(clash)   DE(tors)     intcor
     43.56     -42.08       0.66       0.00       0.00       0.00       1.35       2.21

> <Gold.PLP.Fitness>
43.5560

> <Gold.PLP.PLP>
-42.0827

> <Gold.PLP.part.hbond>
-0.3471

> <Gold.PLP.part.metal>
0.0000

> <Gold.PLP.part.buried>
5.7967

> <Gold.PLP.part.nonpolar>
-49.9070

> <Gold.PLP.part.repulsive>
0.5774

> <Gold.PLP.ligand.clash>
0.0000

> <Gold.PLP.ligand.torsion>
1.3528

> <Gold.PLP.Chemscore.Hbond>
0.6560

> <Gold.PLP.Chemscore.CHOScore>
0.0000

> <Gold.PLP.Chemscore.Metal>
0.0000

> <Gold.Chemscore.Hbonds>
donor molecule, donor type, donor heavy atom, donor atom, acceptor molecule, acceptor atom, score
      P1  H  1258  1270       L1     6  0.66

> <Gold.PLP.Chemscore.Internal.Correction>
2.2109

