#       Name:                EN300-00970_i001
#       Creating user name   aseyller
#       Creation time:       Fri Apr 21 18:49:19 2023


#       File generated by GOLD software.
#

@<TRIPOS>MOLECULE
EN300-00970_i001|benzaldehydes|mol2|638|dock4
    28    29     1
SMALL
USER_CHARGES


@<TRIPOS>ATOM
      1 C1          27.0897  37.3149  36.8065 C.3            1 <1>                0.0000
      2 C2          27.1939  37.1527  38.3011 C.2            1 <1>                0.0000
      3 C3          26.1676  37.2214  39.1652 C.2            1 <1>                0.0000
      4 C4          26.7358  37.0047  40.5028 C.2            1 <1>                0.0000
      5 C5          26.0130  36.9873  41.7760 C.2            1 <1>                0.0000
      6 O6          24.8325  36.7071  41.7997 O.2            1 <1>                0.0000
      7 C7          28.0927  36.8203  40.3129 C.2            1 <1>                0.0000
      8 C8          29.1098  36.5609  41.3943 C.3            1 <1>                0.0000
      9 N9          28.3471  36.9065  38.9929 N.pl3          1 <1>                0.0000
     10 C10         29.6156  36.7716  38.4118 C.ar           1 <1>                0.0000
     11 C11         30.3330  35.5943  38.5736 C.ar           1 <1>                0.0000
     12 C12         31.5837  35.4642  37.9994 C.ar           1 <1>                0.0000
     13 Cl13        32.4815  33.9922  38.2011 Cl             1 <1>                0.0000
     14 C14         32.1205  36.5063  37.2634 C.ar           1 <1>                0.0000
     15 C15         31.4085  37.6799  37.1007 C.ar           1 <1>                0.0000
     16 C16         30.1550  37.8138  37.6682 C.ar           1 <1>                0.0000
     17 Cl17        29.2613  39.2879  37.4629 Cl             1 <1>                0.0000
     18 H18         27.2162  38.3656  36.5454 H              1 <1>                0.0000
     19 H19         27.8669  36.7239  36.3218 H              1 <1>                0.0000
     20 H20         26.1107  36.9725  36.4712 H              1 <1>                0.0000
     21 H21         25.1301  37.4007  38.9244 H              1 <1>                0.0000
     22 H22         26.5305  37.2237  42.6940 H              1 <1>                0.0000
     23 H23         29.2032  35.4868  41.5552 H              1 <1>                0.0000
     24 H24         30.0744  36.9681  41.0911 H              1 <1>                0.0000
     25 H25         28.7875  37.0401  42.3187 H              1 <1>                0.0000
     26 H26         29.9145  34.7809  39.1476 H              1 <1>                0.0000
     27 H27         33.0979  36.4024  36.8158 H              1 <1>                0.0000
     28 H28         31.8302  38.4915  36.5264 H              1 <1>                0.0000
@<TRIPOS>BOND
    1    1    2 1     
    2    1   18 1     
    3    1   19 1     
    4    1   20 1     
    5    2    3 2     
    6    2    9 1     
    7    3    4 1     
    8    3   21 1     
    9    4    5 1     
   10    4    7 2     
   11    5    6 2     
   12    5   22 1     
   13    7    8 1     
   14    7    9 1     
   15    8   23 1     
   16    8   24 1     
   17    8   25 1     
   18    9   10 1     
   19   10   11 ar    
   20   10   16 ar    
   21   11   12 ar    
   22   11   26 1     
   23   12   13 1     
   24   12   14 ar    
   25   14   15 ar    
   26   14   27 1     
   27   15   16 ar    
   28   15   28 1     
   29   16   17 1     
@<TRIPOS>SUBSTRUCTURE
      1 ****           1
@<TRIPOS>COMMENT
> <Gold.Version>
2022.2.0

> <Gold.Id.Protein>
1qkm|1qkm_protein|mol2

> <Gold.Protein.RotatedTorsions>
[  496  491  490  487 ] final -163.92 input  -89.99 | X-H torsion

> <Gold.Protein.ActiveResidues>
 MET295  LEU298  THR299  LEU301  ALA302  GLU305  TRP335  MET336  LEU339  MET340 
 GLY342  LEU343  ARG346  PHE356  ILE373  ILE376  PHE377  LEU380  LYS471  GLY472 
 MET473  HIS475  LEU476  LEU477  ASN478  MET479  VAL484  VAL487 

> <Gold.Protein.RotatedAtoms>
   37.2884   33.7023   40.7633 H   0  0  0  0  0  0  0  0  0  0  0  0  # atno 496  bound_to 491 

> <Gold.Score>
     Score     S(PLP)   S(hbond)     S(cho)   S(metal)  DE(clash)   DE(tors)     intcor
     51.17     -49.62       0.61       0.00       0.00       0.00       1.25       2.22

> <Gold.PLP.Fitness>
51.1681

> <Gold.PLP.PLP>
-49.6227

> <Gold.PLP.part.hbond>
-1.0000

> <Gold.PLP.part.metal>
0.0000

> <Gold.PLP.part.buried>
-1.4197

> <Gold.PLP.part.nonpolar>
-47.8233

> <Gold.PLP.part.repulsive>
0.3013

> <Gold.PLP.ligand.clash>
0.0000

> <Gold.PLP.ligand.torsion>
1.2472

> <Gold.PLP.Chemscore.Hbond>
0.6080

> <Gold.PLP.Chemscore.CHOScore>
0.0000

> <Gold.PLP.Chemscore.Metal>
0.0000

> <Gold.Chemscore.Hbonds>
donor molecule, donor type, donor heavy atom, donor atom, acceptor molecule, acceptor atom, score
      P1  H  1258  1270       L1     6  0.61

> <Gold.PLP.Chemscore.Internal.Correction>
2.2159

