#       Name:                EN300-00970_i001
#       Creating user name   aseyller
#       Creation time:       Fri Apr 21 18:49:24 2023


#       File generated by GOLD software.
#

@<TRIPOS>MOLECULE
EN300-00970_i001|benzaldehydes|mol2|638|dock13
    28    29     1
SMALL
USER_CHARGES


@<TRIPOS>ATOM
      1 C1          29.2831  40.5121  37.1657 C.3            1 <1>                0.0000
      2 C2          30.1732  39.3466  36.8183 C.2            1 <1>                0.0000
      3 C3          31.2366  39.3961  35.9988 C.2            1 <1>                0.0000
      4 C4          31.7935  38.0370  35.9589 C.2            1 <1>                0.0000
      5 C5          32.9620  37.5845  35.2014 C.2            1 <1>                0.0000
      6 O6          33.2875  36.4158  35.2289 O.2            1 <1>                0.0000
      7 C7          30.9886  37.2731  36.7834 C.2            1 <1>                0.0000
      8 C8          31.1578  35.8032  37.0694 C.3            1 <1>                0.0000
      9 N9          30.0306  38.0720  37.2917 N.pl3          1 <1>                0.0000
     10 C10         29.0247  37.6539  38.1740 C.ar           1 <1>                0.0000
     11 C11         29.3622  37.1073  39.4046 C.ar           1 <1>                0.0000
     12 C12         28.3681  36.6959  40.2725 C.ar           1 <1>                0.0000
     13 Cl13        28.7891  36.0122  41.8116 Cl             1 <1>                0.0000
     14 C14         27.0374  36.8288  39.9157 C.ar           1 <1>                0.0000
     15 C15         26.6983  37.3727  38.6909 C.ar           1 <1>                0.0000
     16 C16         27.6881  37.7908  37.8209 C.ar           1 <1>                0.0000
     17 Cl17        27.2613  38.4742  36.2832 Cl             1 <1>                0.0000
     18 H18         28.4627  40.5684  36.4503 H              1 <1>                0.0000
     19 H19         28.8811  40.3756  38.1696 H              1 <1>                0.0000
     20 H20         29.8618  41.4350  37.1284 H              1 <1>                0.0000
     21 H21         31.6083  40.2632  35.4731 H              1 <1>                0.0000
     22 H22         33.5341  38.2909  34.6182 H              1 <1>                0.0000
     23 H23         31.8042  35.6739  37.9376 H              1 <1>                0.0000
     24 H24         30.1837  35.3580  37.2721 H              1 <1>                0.0000
     25 H25         31.6079  35.3144  36.2053 H              1 <1>                0.0000
     26 H26         30.4003  37.0035  39.6835 H              1 <1>                0.0000
     27 H27         26.2624  36.5066  40.5954 H              1 <1>                0.0000
     28 H28         25.6592  37.4747  38.4150 H              1 <1>                0.0000
@<TRIPOS>BOND
    1    1    2 1     
    2    1   18 1     
    3    1   19 1     
    4    1   20 1     
    5    2    3 2     
    6    2    9 1     
    7    3    4 1     
    8    3   21 1     
    9    4    5 1     
   10    4    7 2     
   11    5    6 2     
   12    5   22 1     
   13    7    8 1     
   14    7    9 1     
   15    8   23 1     
   16    8   24 1     
   17    8   25 1     
   18    9   10 1     
   19   10   11 ar    
   20   10   16 ar    
   21   11   12 ar    
   22   11   26 1     
   23   12   13 1     
   24   12   14 ar    
   25   14   15 ar    
   26   14   27 1     
   27   15   16 ar    
   28   15   28 1     
   29   16   17 1     
@<TRIPOS>SUBSTRUCTURE
      1 ****           1
@<TRIPOS>COMMENT
> <Gold.Version>
2022.2.0

> <Gold.Id.Protein>
1qkm|1qkm_protein|mol2

> <Gold.Protein.RotatedTorsions>
[  496  491  490  487 ] final  117.44 input  -89.99 | X-H torsion

> <Gold.Protein.ActiveResidues>
 MET295  LEU298  THR299  LEU301  ALA302  GLU305  TRP335  MET336  LEU339  MET340 
 GLY342  LEU343  ARG346  PHE356  ILE373  ILE376  PHE377  LEU380  LYS471  GLY472 
 MET473  HIS475  LEU476  LEU477  ASN478  MET479  VAL484  VAL487 

> <Gold.Protein.RotatedAtoms>
   37.0605   32.9405   41.6558 H   0  0  0  0  0  0  0  0  0  0  0  0  # atno 496  bound_to 491 

> <Gold.Score>
     Score     S(PLP)   S(hbond)     S(cho)   S(metal)  DE(clash)   DE(tors)     intcor
     46.88     -46.90       0.00       0.00       0.00       0.00       1.11       2.21

> <Gold.PLP.Fitness>
46.8848

> <Gold.PLP.PLP>
-46.8964

> <Gold.PLP.part.hbond>
0.0000

> <Gold.PLP.part.metal>
0.0000

> <Gold.PLP.part.buried>
-1.6794

> <Gold.PLP.part.nonpolar>
-45.5070

> <Gold.PLP.part.repulsive>
0.1250

> <Gold.PLP.ligand.clash>
0.0000

> <Gold.PLP.ligand.torsion>
1.1112

> <Gold.PLP.Chemscore.Hbond>
0.0000

> <Gold.PLP.Chemscore.CHOScore>
0.0000

> <Gold.PLP.Chemscore.Metal>
0.0000

> <Gold.PLP.Chemscore.Internal.Correction>
2.2109

