#       Name:                plp ligand
#       Creating user name   aseyller
#       Creation time:       Fri Apr 21 18:49:17 2023


#       File generated by GOLD software.
#

@<TRIPOS>MOLECULE
plp ligand
    28    29     1
SMALL
USER_CHARGES


@<TRIPOS>ATOM
      1 C1           0.4101   0.2805   2.7224 NONPOLAR       1 <1>                0.0000
      2 C2           1.0511  -0.0470   1.3984 NONPOLAR       1 <1>                0.0000
      3 C3           2.3427  -0.3689   1.2170 NONPOLAR       1 <1>                0.0000
      4 C4           2.5135  -0.6045  -0.2232 NONPOLAR       1 <1>                0.0000
      5 C5           3.7473  -0.9831  -0.9148 NONPOLAR       1 <1>                0.0000
      6 O6           4.7740  -1.1336  -0.2855 ACCEPTOR       1 <1>                0.0000
      7 C7           1.2706  -0.3960  -0.7915 NONPOLAR       1 <1>                0.0000
      8 C8           0.9358  -0.5193  -2.2557 NONPOLAR       1 <1>                0.0000
      9 N9           0.4094  -0.0695   0.1914 NONPOLAR       1 <1>                0.0000
     10 C10         -0.9501   0.2154   0.0024 NONPOLAR       1 <1>                0.0000
     11 C11         -1.8893  -0.8050   0.0625 NONPOLAR       1 <1>                0.0000
     12 C12         -3.2292  -0.5210  -0.1243 NONPOLAR       1 <1>                0.0000
     13 Cl13        -4.4044  -1.7964  -0.0494 NONPOLAR       1 <1>                0.0000
     14 C14         -3.6345   0.7793  -0.3706 NONPOLAR       1 <1>                0.0000
     15 C15         -2.7016   1.7974  -0.4310 NONPOLAR       1 <1>                0.0000
     16 C16         -1.3607   1.5203  -0.2398 NONPOLAR       1 <1>                0.0000
     17 Cl17        -0.1897   2.7997  -0.3153 NONPOLAR       1 <1>                0.0000
     18 H18          0.4837   1.3523   2.9064                1 <1>                0.0000
     19 H19         -0.6394  -0.0132   2.7005                1 <1>                0.0000
     20 H20          0.9223  -0.2608   3.5178                1 <1>                0.0000
     21 H21          3.1048  -0.4401   1.9790                1 <1>                0.0000
     22 H22          3.7436  -1.1285  -1.9850                1 <1>                0.0000
     23 H23          0.6268  -1.5418  -2.4729                1 <1>                0.0000
     24 H24          0.1243   0.1656  -2.5018                1 <1>                0.0000
     25 H25          1.8141  -0.2708  -2.8514                1 <1>                0.0000
     26 H26         -1.5735  -1.8197   0.2547                1 <1>                0.0000
     27 H27         -4.6820   0.9988  -0.5163                1 <1>                0.0000
     28 H28         -3.0208   2.8110  -0.6238                1 <1>                0.0000
@<TRIPOS>BOND
    1    1    2 1     
    2    1   18 1     
    3    1   19 1     
    4    1   20 1     
    5    2    3 2     
    6    2    9 1     
    7    3    4 1     
    8    3   21 1     
    9    4    5 1     
   10    4    7 2     
   11    5    6 2     
   12    5   22 1     
   13    7    8 1     
   14    7    9 1     
   15    8   23 1     
   16    8   24 1     
   17    8   25 1     
   18    9   10 1     
   19   10   11 ar    
   20   10   16 ar    
   21   11   12 ar    
   22   11   26 1     
   23   12   13 1     
   24   12   14 ar    
   25   14   15 ar    
   26   14   27 1     
   27   15   16 ar    
   28   15   28 1     
   29   16   17 1     
@<TRIPOS>SUBSTRUCTURE
      1 ****           1
@<TRIPOS>SET
DONOR_HYDROGENS      STATIC     ATOMS    <user>   **** ""
0
ATOM$RED        STATIC     ATOMS    COLORGROUP SYSTEM
0
