#       Name:                EN300-4934512_i002
#       Creating user name   fsindt
#       Creation time:       Tue Feb 28 15:36:59 2023


#       File generated by GOLD software.
#

@<TRIPOS>MOLECULE
EN300-4934512_i002|amine_1|mol2|5053|dock8
    30    29     1
SMALL
USER_CHARGES


@<TRIPOS>ATOM
      1 C1          -0.4003 -16.5804   8.3978 C.3            1 <1>                0.0000
      2 N2           0.4315 -15.6142   9.1274 N.4            1 <1>                1.0000
      3 C3           0.7218 -14.4646   8.2601 C.3            1 <1>                0.0000
      4 C4          -0.4038 -13.4358   8.3830 C.3            1 <1>                0.0000
      5 C5           0.1353 -12.1667   9.0457 C.3            1 <1>                0.0000
      6 O6           0.2984 -11.1462   8.0587 O.3            1 <1>                0.0000
      7 C7          -0.8516 -11.6902  10.1135 C.3            1 <1>                0.0000
      8 C8          -1.0402 -12.7898  11.1605 C.3            1 <1>                0.0000
      9 C9          -0.3037 -10.4314  10.7890 C.3            1 <1>                0.0000
     10 C10         -2.1976 -11.3731   9.4588 C.3            1 <1>                0.0000
     11 H11         -0.6158 -17.4334   9.0414 H              1 <1>                0.0000
     12 H12         -1.3348 -16.1042   8.1008 H              1 <1>                0.0000
     13 H13          0.1323 -16.9207   7.5098 H              1 <1>                0.0000
     14 H14          1.6647 -14.0096   8.5636 H              1 <1>                0.0000
     15 H15          0.7965 -14.7998   7.2257 H              1 <1>                0.0000
     16 H16         -0.7848 -13.1939   7.3908 H              1 <1>                0.0000
     17 H17         -1.2090 -13.8490   8.9905 H              1 <1>                0.0000
     18 H18          1.0980 -12.3800   9.5101 H              1 <1>                0.0000
     19 H19         -0.0813 -13.0157  11.6269 H              1 <1>                0.0000
     20 H20         -1.7433 -12.4504  11.9213 H              1 <1>                0.0000
     21 H21         -1.4305 -13.6866  10.6794 H              1 <1>                0.0000
     22 H22         -0.1693  -9.6481  10.0431 H              1 <1>                0.0000
     23 H23         -1.0067 -10.0920  11.5496 H              1 <1>                0.0000
     24 H24          0.6552 -10.6574  11.2554 H              1 <1>                0.0000
     25 H25         -2.5878 -12.2698   8.9776 H              1 <1>                0.0000
     26 H26         -2.9006 -11.0337  10.2195 H              1 <1>                0.0000
     27 H27         -2.0632 -10.5897   8.7128 H              1 <1>                0.0000
     28 H28         -0.0615 -15.2992   9.9496 H              1 <1>                0.0000
     29 H29          1.2965 -16.0551   9.4024 H              1 <1>                0.0000
     30 H30         -0.0737 -11.3714   7.1949 H              1 <1>                0.0000
@<TRIPOS>BOND
    1    1    2 1     
    2    1   11 1     
    3    1   12 1     
    4    1   13 1     
    5    2    3 1     
    6    2   28 1     
    7    2   29 1     
    8    3    4 1     
    9    3   14 1     
   10    3   15 1     
   11    4    5 1     
   12    4   16 1     
   13    4   17 1     
   14    5    6 1     
   15    5    7 1     
   16    5   18 1     
   17    6   30 1     
   18    7    8 1     
   19    7    9 1     
   20    7   10 1     
   21    8   19 1     
   22    8   20 1     
   23    8   21 1     
   24    9   22 1     
   25    9   23 1     
   26    9   24 1     
   27   10   25 1     
   28   10   26 1     
   29   10   27 1     
@<TRIPOS>SUBSTRUCTURE
      1 ****           1
@<TRIPOS>SET
DONOR_HYDROGENS      STATIC     ATOMS    <user>   **** ""
3 28 29 30
ATOM$RED        STATIC     ATOMS    COLORGROUP SYSTEM
3 28 29 30
@<TRIPOS>COMMENT
> <Gold.Version>
2022.2.0

> <Gold.Id.Protein>
3pbl|protein|mol2

> <Gold.Protein.RotatedTorsions>
[ 1303 1298 1297 1294 ] final  122.82 input  179.99 | X-H torsion
[ 2461 2456 2455 2452 ] final -133.85 input   30.03 | X-H torsion
[ 2515 2510 2509 2506 ] final  -37.29 input  -89.99 | X-H torsion
[ 3721 3712 3711 3710 ] final -174.89 input -179.91 | X-H torsion
[ 3841 3832 3831 3830 ] final   99.36 input -179.91 | X-H torsion
[ 3767 3762 3761 3758 ] final -117.08 input  -89.99 | X-H torsion
[ 2472 2467 2466 2463 ] final   29.24 input  -89.97 | X-H torsion

> <Gold.Protein.ActiveResidues>
 VAL82   VAL86   LEU89   PHE106  VAL107  ASP110  VAL111  MET112  CYS114  THR115 
 CYS181  SER182  ILE183  PHE188  VAL189  ILE190  SER192  SER193  SER196  TRP342 
 PHE345  PHE346  HIS349  VAL350  TYR365  THR369  GLY372  TYR373 

> <Gold.Protein.RotatedAtoms>
    4.7657   -9.7310    4.9511 H   0  0  0  0  0  0  0  0  0  0  0  0  # atno 1303 bound_to 1298
    0.7443   -9.2484    8.1860 H   0  0  0  0  0  0  0  0  0  0  0  0  # atno 2461 bound_to 2456
   -4.1548   -4.8048    7.7666 H   0  0  0  0  0  0  0  0  0  0  0  0  # atno 2472 bound_to 2467
    2.7542   -8.1359    4.3615 H   0  0  0  0  0  0  0  0  0  0  0  0  # atno 2515 bound_to 2510
   -3.3309  -16.5805   13.6185 H   0  0  0  0  0  0  0  0  0  0  0  0  # atno 3721 bound_to 3712
   -4.8887  -21.9553   11.4962 H   0  0  0  0  0  0  0  0  0  0  0  0  # atno 3767 bound_to 3762
    2.9351  -20.8774    9.1663 H   0  0  0  0  0  0  0  0  0  0  0  0  # atno 3841 bound_to 3832
    3.4016   -9.9089    4.0715 LP  0  0  0  0  0  0  0  0  0  0  0  0  # atno 4297 bound_to 1298
    4.1946   -8.4814    4.0687 LP  0  0  0  0  0  0  0  0  0  0  0  0  # atno 4298 bound_to 1298
    2.1598   -8.4807    7.9131 LP  0  0  0  0  0  0  0  0  0  0  0  0  # atno 4299 bound_to 2456
    0.8335   -8.0793    7.0491 LP  0  0  0  0  0  0  0  0  0  0  0  0  # atno 4300 bound_to 2456
    2.4821   -9.2141    5.5571 LP  0  0  0  0  0  0  0  0  0  0  0  0  # atno 4301 bound_to 2510
    2.0603   -7.6493    5.7571 LP  0  0  0  0  0  0  0  0  0  0  0  0  # atno 4302 bound_to 2510
   -2.7630  -18.0479   13.2987 LP  0  0  0  0  0  0  0  0  0  0  0  0  # atno 4306 bound_to 3712
   -2.9191  -17.5359   14.8415 LP  0  0  0  0  0  0  0  0  0  0  0  0  # atno 4307 bound_to 3712
    1.4272  -20.3478    9.3140 LP  0  0  0  0  0  0  0  0  0  0  0  0  # atno 4314 bound_to 3832
    2.4117  -19.7409    8.1611 LP  0  0  0  0  0  0  0  0  0  0  0  0  # atno 4315 bound_to 3832
   -3.9424  -23.1666   10.9445 LP  0  0  0  0  0  0  0  0  0  0  0  0  # atno 4318 bound_to 3762
   -5.2964  -22.7529   10.1307 LP  0  0  0  0  0  0  0  0  0  0  0  0  # atno 4319 bound_to 3762
   -4.0538   -5.3468    9.3036 LP  0  0  0  0  0  0  0  0  0  0  0  0  # atno 4320 bound_to 2467
   -5.5083   -5.2419    8.5687 LP  0  0  0  0  0  0  0  0  0  0  0  0  # atno 4321 bound_to 2467

> <Gold.Score>
     Score     S(PLP)   S(hbond)     S(cho)   S(metal)  DE(clash)   DE(tors)     intcor
     41.48     -34.80       3.00       0.00       0.00       0.00       1.16       0.01

> <Gold.PLP.Fitness>
41.4791

> <Gold.PLP.PLP>
-34.8008

> <Gold.PLP.part.hbond>
-2.0000

> <Gold.PLP.part.metal>
0.0000

> <Gold.PLP.part.buried>
-3.2832

> <Gold.PLP.part.nonpolar>
-29.8247

> <Gold.PLP.part.repulsive>
0.0000

> <Gold.PLP.ligand.clash>
0.0000

> <Gold.PLP.ligand.torsion>
1.1642

> <Gold.PLP.Chemscore.Hbond>
3.0000

> <Gold.PLP.Chemscore.CHOScore>
0.0000

> <Gold.PLP.Chemscore.Metal>
0.0000

> <Gold.Chemscore.Hbonds>
donor molecule, donor type, donor heavy atom, donor atom, acceptor molecule, acceptor atom, score
      L1  H     2    29       P1  1227  2.00
      P1  H  2456  2461       L1     6  1.00

> <Gold.PLP.Chemscore.Internal.Correction>
0.0067

