#       Name:                EN300-4934512_i002
#       Creating user name   fsindt
#       Creation time:       Tue Feb 28 15:37:08 2023


#       File generated by GOLD software.
#

@<TRIPOS>MOLECULE
EN300-4934512_i002|amine_1|mol2|5053|dock17
    30    29     1
SMALL
USER_CHARGES


@<TRIPOS>ATOM
      1 C1           1.6931 -15.9893  13.1001 C.3            1 <1>                0.0000
      2 N2           1.6266 -15.6138  11.6815 N.4            1 <1>                1.0000
      3 C3           0.2615 -15.1821  11.3526 C.3            1 <1>                0.0000
      4 C4           0.0376 -15.3039   9.8440 C.3            1 <1>                0.0000
      5 C5           0.9379 -14.3063   9.1126 C.3            1 <1>                0.0000
      6 O6           2.3037 -14.6997   9.2608 O.3            1 <1>                0.0000
      7 C7           0.5722 -14.2833   7.6270 C.3            1 <1>                0.0000
      8 C8           1.2983 -13.1243   6.9411 C.3            1 <1>                0.0000
      9 C9           0.9919 -15.6037   6.9779 C.3            1 <1>                0.0000
     10 C10         -0.9391 -14.0986   7.4766 C.3            1 <1>                0.0000
     11 H11          2.7060 -16.3095  13.3442 H              1 <1>                0.0000
     12 H12          1.4251 -15.1308  13.7162 H              1 <1>                0.0000
     13 H13          0.9974 -16.8060  13.2927 H              1 <1>                0.0000
     14 H14         -0.4555 -15.8126  11.8784 H              1 <1>                0.0000
     15 H15          0.1252 -14.1446  11.6576 H              1 <1>                0.0000
     16 H16          0.2798 -16.3164   9.5213 H              1 <1>                0.0000
     17 H17         -1.0058 -15.0888   9.6131 H              1 <1>                0.0000
     18 H18          0.7982 -13.3120   9.5366 H              1 <1>                0.0000
     19 H19          2.3750 -13.2558   7.0483 H              1 <1>                0.0000
     20 H20          1.0379 -13.1078   5.8827 H              1 <1>                0.0000
     21 H21          0.9994 -12.1837   7.4035 H              1 <1>                0.0000
     22 H22          0.4746 -16.4293   7.4666 H              1 <1>                0.0000
     23 H23          0.7314 -15.5872   5.9197 H              1 <1>                0.0000
     24 H24          2.0686 -15.7352   7.0851 H              1 <1>                0.0000
     25 H25         -1.2381 -13.1580   7.9390 H              1 <1>                0.0000
     26 H26         -1.1996 -14.0822   6.4183 H              1 <1>                0.0000
     27 H27         -1.4565 -14.9243   7.9654 H              1 <1>                0.0000
     28 H28          2.2706 -14.8577  11.5031 H              1 <1>                0.0000
     29 H29          1.8747 -16.4084  11.1112 H              1 <1>                0.0000
     30 H30          2.4199 -15.5874   9.6266 H              1 <1>                0.0000
@<TRIPOS>BOND
    1    1    2 1     
    2    1   11 1     
    3    1   12 1     
    4    1   13 1     
    5    2    3 1     
    6    2   28 1     
    7    2   29 1     
    8    3    4 1     
    9    3   14 1     
   10    3   15 1     
   11    4    5 1     
   12    4   16 1     
   13    4   17 1     
   14    5    6 1     
   15    5    7 1     
   16    5   18 1     
   17    6   30 1     
   18    7    8 1     
   19    7    9 1     
   20    7   10 1     
   21    8   19 1     
   22    8   20 1     
   23    8   21 1     
   24    9   22 1     
   25    9   23 1     
   26    9   24 1     
   27   10   25 1     
   28   10   26 1     
   29   10   27 1     
@<TRIPOS>SUBSTRUCTURE
      1 ****           1
@<TRIPOS>SET
DONOR_HYDROGENS      STATIC     ATOMS    <user>   **** ""
3 28 29 30
ATOM$RED        STATIC     ATOMS    COLORGROUP SYSTEM
3 28 29 30
@<TRIPOS>COMMENT
> <Gold.Version>
2022.2.0

> <Gold.Id.Protein>
3pbl|protein|mol2

> <Gold.Protein.RotatedTorsions>
[ 1303 1298 1297 1294 ] final   55.45 input  179.99 | X-H torsion
[ 2461 2456 2455 2452 ] final  -83.91 input   30.03 | X-H torsion
[ 2515 2510 2509 2506 ] final -162.79 input  -89.99 | X-H torsion
[ 3721 3712 3711 3710 ] final   34.26 input -179.91 | X-H torsion
[ 3841 3832 3831 3830 ] final  -86.71 input -179.91 | X-H torsion
[ 3767 3762 3761 3758 ] final -128.51 input  -89.99 | X-H torsion
[ 2472 2467 2466 2463 ] final -166.38 input  -89.97 | X-H torsion

> <Gold.Protein.ActiveResidues>
 VAL82   VAL86   LEU89   PHE106  VAL107  ASP110  VAL111  MET112  CYS114  THR115 
 CYS181  SER182  ILE183  PHE188  VAL189  ILE190  SER192  SER193  SER196  TRP342 
 PHE345  PHE346  HIS349  VAL350  TYR365  THR369  GLY372  TYR373 

> <Gold.Protein.RotatedAtoms>
    3.9463  -10.2717    4.5915 H   0  0  0  0  0  0  0  0  0  0  0  0  # atno 1303 bound_to 1298
    0.3369   -8.8409    7.6367 H   0  0  0  0  0  0  0  0  0  0  0  0  # atno 2461 bound_to 2456
   -5.2003   -5.4302    9.1828 H   0  0  0  0  0  0  0  0  0  0  0  0  # atno 2472 bound_to 2467
    2.4436   -9.1827    5.6327 H   0  0  0  0  0  0  0  0  0  0  0  0  # atno 2515 bound_to 2510
   -2.4915  -18.0271   13.7370 H   0  0  0  0  0  0  0  0  0  0  0  0  # atno 3721 bound_to 3712
   -4.7301  -22.0160   11.5766 H   0  0  0  0  0  0  0  0  0  0  0  0  # atno 3767 bound_to 3762
    1.8180  -19.6287    8.7400 H   0  0  0  0  0  0  0  0  0  0  0  0  # atno 3841 bound_to 3832
    3.5395   -8.9137    3.7812 LP  0  0  0  0  0  0  0  0  0  0  0  0  # atno 4297 bound_to 1298
    4.8764   -8.9356    4.7187 LP  0  0  0  0  0  0  0  0  0  0  0  0  # atno 4298 bound_to 1298
    1.7948   -9.0407    8.3452 LP  0  0  0  0  0  0  0  0  0  0  0  0  # atno 4299 bound_to 2456
    1.6058   -7.9266    7.1663 LP  0  0  0  0  0  0  0  0  0  0  0  0  # atno 4300 bound_to 2456
    2.0771   -7.5926    5.6883 LP  0  0  0  0  0  0  0  0  0  0  0  0  # atno 4301 bound_to 2510
    2.7760   -8.2234    4.3540 LP  0  0  0  0  0  0  0  0  0  0  0  0  # atno 4302 bound_to 2510
   -3.1980  -17.0554   14.8021 LP  0  0  0  0  0  0  0  0  0  0  0  0  # atno 4306 bound_to 3712
   -3.4532  -16.8583   13.2013 LP  0  0  0  0  0  0  0  0  0  0  0  0  # atno 4307 bound_to 3712
    3.1128  -20.5246    8.4287 LP  0  0  0  0  0  0  0  0  0  0  0  0  # atno 4314 bound_to 3832
    2.0165  -21.0065    9.5389 LP  0  0  0  0  0  0  0  0  0  0  0  0  # atno 4315 bound_to 3832
   -4.0042  -23.2470   10.7865 LP  0  0  0  0  0  0  0  0  0  0  0  0  # atno 4318 bound_to 3762
   -5.3930  -22.6118   10.2083 LP  0  0  0  0  0  0  0  0  0  0  0  0  # atno 4319 bound_to 3762
   -4.8614   -4.8550    7.6926 LP  0  0  0  0  0  0  0  0  0  0  0  0  # atno 4320 bound_to 2467
   -3.6553   -5.1084    8.7638 LP  0  0  0  0  0  0  0  0  0  0  0  0  # atno 4321 bound_to 2467

> <Gold.Score>
     Score     S(PLP)   S(hbond)     S(cho)   S(metal)  DE(clash)   DE(tors)     intcor
     40.52     -32.10       3.00       0.00       0.00       0.00       0.29       0.00

> <Gold.PLP.Fitness>
40.5175

> <Gold.PLP.PLP>
-32.0982

> <Gold.PLP.part.hbond>
-2.1515

> <Gold.PLP.part.metal>
0.0000

> <Gold.PLP.part.buried>
-2.9884

> <Gold.PLP.part.nonpolar>
-27.1524

> <Gold.PLP.part.repulsive>
0.0000

> <Gold.PLP.ligand.clash>
0.0000

> <Gold.PLP.ligand.torsion>
0.2922

> <Gold.PLP.Chemscore.Hbond>
3.0000

> <Gold.PLP.Chemscore.CHOScore>
0.0000

> <Gold.PLP.Chemscore.Metal>
0.0000

> <Gold.Chemscore.Hbonds>
donor molecule, donor type, donor heavy atom, donor atom, acceptor molecule, acceptor atom, score
      L1  H     2    29       P1  1227  2.00
      L1  H     6    30       P1  1227  1.00

> <Gold.PLP.Chemscore.Internal.Correction>
0.0037

