#       Name:                EN300-4934512_i002
#       Creating user name   fsindt
#       Creation time:       Tue Feb 28 15:36:51 2023


#       File generated by GOLD software.
#

@<TRIPOS>MOLECULE
EN300-4934512_i002
    30    29     1
SMALL
USER_CHARGES


@<TRIPOS>ATOM
      1 C1           4.2515  -0.1937  -0.1978 C.3            1 <1>                0.0000
      2 N2           2.9807   0.3792   0.2655 N.4            1 <1>                1.0000
      3 C3           1.8624  -0.3735  -0.3183 C.3            1 <1>                0.0000
      4 C4           0.5388   0.2232   0.1642 C.3            1 <1>                0.0000
      5 C5          -0.6258  -0.5607  -0.4439 C.3            1 <1>                0.0000
      6 O6          -0.6107  -1.8998   0.0549 O.3            1 <1>                0.0000
      7 C7          -1.9468   0.1106  -0.0626 C.3            1 <1>                0.0000
      8 C8          -1.9630   1.5443  -0.5967 C.3            1 <1>                0.0000
      9 C9          -3.1115  -0.6734  -0.6708 C.3            1 <1>                0.0000
     10 C10         -2.0868   0.1323   1.4608 C.3            1 <1>                0.0000
     11 H11          5.0813   0.3648   0.2355 H              1 <1>                0.0000
     12 H12          4.3144  -1.2368   0.1124 H              1 <1>                0.0000
     13 H13          4.3019  -0.1343  -1.2850 H              1 <1>                0.0000
     14 H14          1.9128  -0.3141  -1.4055 H              1 <1>                0.0000
     15 H15          1.9253  -1.4165  -0.0081 H              1 <1>                0.0000
     16 H16          0.4884   0.1639   1.2514 H              1 <1>                0.0000
     17 H17          0.4760   1.2663  -0.1460 H              1 <1>                0.0000
     18 H18         -0.5261  -0.5762  -1.5292 H              1 <1>                0.0000
     19 H19         -1.8632   1.5288  -1.6820 H              1 <1>                0.0000
     20 H20         -2.9041   2.0226  -0.3251 H              1 <1>                0.0000
     21 H21         -1.1333   2.1028  -0.1635 H              1 <1>                0.0000
     22 H22         -3.0999  -1.6947  -0.2903 H              1 <1>                0.0000
     23 H23         -4.0525  -0.1951  -0.3992 H              1 <1>                0.0000
     24 H24         -3.0117  -0.6888  -1.7561 H              1 <1>                0.0000
     25 H25         -1.2571   0.6908   1.8940 H              1 <1>                0.0000
     26 H26         -3.0279   0.6106   1.7324 H              1 <1>                0.0000
     27 H27         -2.0752  -0.8891   1.8413 H              1 <1>                0.0000
     28 H28          2.9340   0.3243   1.2720 H              1 <1>                0.0000
     29 H29          2.9225   1.3448  -0.0216 H              1 <1>                0.0000
     30 H30         -0.6956  -1.9624   1.0162 H              1 <1>                0.0000
@<TRIPOS>BOND
    1    1    2 1     
    2    1   11 1     
    3    1   12 1     
    4    1   13 1     
    5    2    3 1     
    6    2   28 1     
    7    2   29 1     
    8    3    4 1     
    9    3   14 1     
   10    3   15 1     
   11    4    5 1     
   12    4   16 1     
   13    4   17 1     
   14    5    6 1     
   15    5    7 1     
   16    5   18 1     
   17    6   30 1     
   18    7    8 1     
   19    7    9 1     
   20    7   10 1     
   21    8   19 1     
   22    8   20 1     
   23    8   21 1     
   24    9   22 1     
   25    9   23 1     
   26    9   24 1     
   27   10   25 1     
   28   10   26 1     
   29   10   27 1     
@<TRIPOS>SUBSTRUCTURE
      1 ****           1
@<TRIPOS>SET
DONOR_HYDROGENS      STATIC     ATOMS    <user>   **** ""
3 28 29 30
ATOM$RED        STATIC     ATOMS    COLORGROUP SYSTEM
3 28 29 30
