#       Name:                EN300-4934512_i002
#       Creating user name   fsindt
#       Creation time:       Tue Feb 28 15:37:11 2023


#       File generated by GOLD software.
#

@<TRIPOS>MOLECULE
EN300-4934512_i002|amine_1|mol2|5053|dock20
    30    29     1
SMALL
USER_CHARGES


@<TRIPOS>ATOM
      1 C1          -0.3966 -17.1826  11.5959 C.3            1 <1>                0.0000
      2 N2           0.9544 -16.6115  11.5155 N.4            1 <1>                1.0000
      3 C3           0.8749 -15.1486  11.6232 C.3            1 <1>                0.0000
      4 C4           0.1168 -14.5888  10.4179 C.3            1 <1>                0.0000
      5 C5           1.0954 -13.8646   9.4914 C.3            1 <1>                0.0000
      6 O6           2.2288 -14.7005   9.2484 O.3            1 <1>                0.0000
      7 C7           0.4021 -13.5474   8.1648 C.3            1 <1>                0.0000
      8 C8           1.4010 -12.8869   7.2125 C.3            1 <1>                0.0000
      9 C9          -0.1191 -14.8428   7.5392 C.3            1 <1>                0.0000
     10 C10         -0.7688 -12.5952   8.4162 C.3            1 <1>                0.0000
     11 H11         -0.3376 -18.2681  11.5161 H              1 <1>                0.0000
     12 H12         -0.8491 -16.9126  12.5502 H              1 <1>                0.0000
     13 H13         -1.0057 -16.7909  10.7812 H              1 <1>                0.0000
     14 H14          0.3496 -14.8798  12.5396 H              1 <1>                0.0000
     15 H15          1.8814 -14.7308  11.6455 H              1 <1>                0.0000
     16 H16         -0.3591 -15.4063   9.8763 H              1 <1>                0.0000
     17 H17         -0.6447 -13.8884  10.7610 H              1 <1>                0.0000
     18 H18          1.4223 -12.9371   9.9614 H              1 <1>                0.0000
     19 H19          2.2352 -13.5653   7.0334 H              1 <1>                0.0000
     20 H20          0.9072 -12.6609   6.2674 H              1 <1>                0.0000
     21 H21          1.7724 -11.9642   7.6582 H              1 <1>                0.0000
     22 H22         -0.8307 -15.3132   8.2176 H              1 <1>                0.0000
     23 H23         -0.6129 -14.6167   6.5941 H              1 <1>                0.0000
     24 H24          0.7151 -15.5210   7.3601 H              1 <1>                0.0000
     25 H25         -0.3975 -11.6725   8.8619 H              1 <1>                0.0000
     26 H26         -1.2627 -12.3692   7.4711 H              1 <1>                0.0000
     27 H27         -1.4805 -13.0657   9.0947 H              1 <1>                0.0000
     28 H28          1.5183 -16.9741  12.2697 H              1 <1>                0.0000
     29 H29          1.3732 -16.8615  10.6322 H              1 <1>                0.0000
     30 H30          2.0762 -15.6358   9.4414 H              1 <1>                0.0000
@<TRIPOS>BOND
    1    1    2 1     
    2    1   11 1     
    3    1   12 1     
    4    1   13 1     
    5    2    3 1     
    6    2   28 1     
    7    2   29 1     
    8    3    4 1     
    9    3   14 1     
   10    3   15 1     
   11    4    5 1     
   12    4   16 1     
   13    4   17 1     
   14    5    6 1     
   15    5    7 1     
   16    5   18 1     
   17    6   30 1     
   18    7    8 1     
   19    7    9 1     
   20    7   10 1     
   21    8   19 1     
   22    8   20 1     
   23    8   21 1     
   24    9   22 1     
   25    9   23 1     
   26    9   24 1     
   27   10   25 1     
   28   10   26 1     
   29   10   27 1     
@<TRIPOS>SUBSTRUCTURE
      1 ****           1
@<TRIPOS>SET
DONOR_HYDROGENS      STATIC     ATOMS    <user>   **** ""
3 28 29 30
ATOM$RED        STATIC     ATOMS    COLORGROUP SYSTEM
3 28 29 30
@<TRIPOS>COMMENT
> <Gold.Version>
2022.2.0

> <Gold.Id.Protein>
3pbl|protein|mol2

> <Gold.Protein.RotatedTorsions>
[ 1303 1298 1297 1294 ] final -136.56 input  179.99 | X-H torsion
[ 2461 2456 2455 2452 ] final  119.11 input   30.03 | X-H torsion
[ 2515 2510 2509 2506 ] final  176.67 input  -89.99 | X-H torsion
[ 3721 3712 3711 3710 ] final  -17.83 input -179.91 | X-H torsion
[ 3841 3832 3831 3830 ] final  111.59 input -179.91 | X-H torsion
[ 3767 3762 3761 3758 ] final  -68.03 input  -89.99 | X-H torsion
[ 2472 2467 2466 2463 ] final   98.62 input  -89.97 | X-H torsion

> <Gold.Protein.ActiveResidues>
 VAL82   VAL86   LEU89   PHE106  VAL107  ASP110  VAL111  MET112  CYS114  THR115 
 CYS181  SER182  ILE183  PHE188  VAL189  ILE190  SER192  SER193  SER196  TRP342 
 PHE345  PHE346  HIS349  VAL350  TYR365  THR369  GLY372  TYR373 

> <Gold.Protein.RotatedAtoms>
    4.4515   -8.4979    4.2543 H   0  0  0  0  0  0  0  0  0  0  0  0  # atno 1303 bound_to 1298
    2.1252   -8.6351    8.0554 H   0  0  0  0  0  0  0  0  0  0  0  0  # atno 2461 bound_to 2456
   -5.2113   -4.9599    7.8746 H   0  0  0  0  0  0  0  0  0  0  0  0  # atno 2472 bound_to 2467
    2.3014   -9.0010    5.8769 H   0  0  0  0  0  0  0  0  0  0  0  0  # atno 2515 bound_to 2510
   -2.5439  -17.8223   14.4676 H   0  0  0  0  0  0  0  0  0  0  0  0  # atno 3721 bound_to 3712
   -5.4172  -22.0056   10.9209 H   0  0  0  0  0  0  0  0  0  0  0  0  # atno 3767 bound_to 3762
    3.0323  -20.7954    9.0327 H   0  0  0  0  0  0  0  0  0  0  0  0  # atno 3841 bound_to 3832
    4.5777   -9.9845    4.9181 LP  0  0  0  0  0  0  0  0  0  0  0  0  # atno 4297 bound_to 1298
    3.3329   -9.6393    3.9192 LP  0  0  0  0  0  0  0  0  0  0  0  0  # atno 4298 bound_to 1298
    1.0273   -7.9932    7.0308 LP  0  0  0  0  0  0  0  0  0  0  0  0  # atno 4299 bound_to 2456
    0.5855   -9.1798    8.0620 LP  0  0  0  0  0  0  0  0  0  0  0  0  # atno 4300 bound_to 2456
    2.1670   -7.4453    5.3999 LP  0  0  0  0  0  0  0  0  0  0  0  0  # atno 4301 bound_to 2510
    2.8284   -8.5525    4.3981 LP  0  0  0  0  0  0  0  0  0  0  0  0  # atno 4302 bound_to 2510
   -3.5240  -16.5816   14.1889 LP  0  0  0  0  0  0  0  0  0  0  0  0  # atno 4306 bound_to 3712
   -3.0668  -17.5686   12.9710 LP  0  0  0  0  0  0  0  0  0  0  0  0  # atno 4307 bound_to 3712
    1.4997  -20.5100    9.4144 LP  0  0  0  0  0  0  0  0  0  0  0  0  # atno 4314 bound_to 3832
    2.2268  -19.6734    8.2151 LP  0  0  0  0  0  0  0  0  0  0  0  0  # atno 4315 bound_to 3832
   -4.0291  -22.6324   11.5099 LP  0  0  0  0  0  0  0  0  0  0  0  0  # atno 4318 bound_to 3762
   -4.6813  -23.2368   10.1403 LP  0  0  0  0  0  0  0  0  0  0  0  0  # atno 4319 bound_to 3762
   -3.6585   -4.9703    8.3796 LP  0  0  0  0  0  0  0  0  0  0  0  0  # atno 4320 bound_to 2467
   -4.8473   -5.4633    9.3848 LP  0  0  0  0  0  0  0  0  0  0  0  0  # atno 4321 bound_to 2467

> <Gold.Score>
     Score     S(PLP)   S(hbond)     S(cho)   S(metal)  DE(clash)   DE(tors)     intcor
     38.90     -30.73       3.00       0.00       0.00       0.00       0.42       0.00

> <Gold.PLP.Fitness>
38.8957

> <Gold.PLP.PLP>
-30.7305

> <Gold.PLP.part.hbond>
-2.0000

> <Gold.PLP.part.metal>
0.0000

> <Gold.PLP.part.buried>
-2.9174

> <Gold.PLP.part.nonpolar>
-26.6083

> <Gold.PLP.part.repulsive>
0.0000

> <Gold.PLP.ligand.clash>
0.0000

> <Gold.PLP.ligand.torsion>
0.4193

> <Gold.PLP.Chemscore.Hbond>
3.0000

> <Gold.PLP.Chemscore.CHOScore>
0.0000

> <Gold.PLP.Chemscore.Metal>
0.0000

> <Gold.Chemscore.Hbonds>
donor molecule, donor type, donor heavy atom, donor atom, acceptor molecule, acceptor atom, score
      L1  H     2    29       P1  1227  2.00
      L1  H     6    30       P1  1227  1.00

> <Gold.PLP.Chemscore.Internal.Correction>
0.0037

