#       Name:                EN300-4934512_i002
#       Creating user name   fsindt
#       Creation time:       Tue Feb 28 15:36:53 2023


#       File generated by GOLD software.
#

@<TRIPOS>MOLECULE
EN300-4934512_i002|amine_1|mol2|5053|dock2
    30    29     1
SMALL
USER_CHARGES


@<TRIPOS>ATOM
      1 C1          -0.9707 -18.3818   9.0439 C.3            1 <1>                0.0000
      2 N2           0.1896 -18.8662   9.8033 N.4            1 <1>                1.0000
      3 C3          -0.2335 -19.2378  11.1601 C.3            1 <1>                0.0000
      4 C4          -0.2182 -17.9981  12.0566 C.3            1 <1>                0.0000
      5 C5           1.0863 -17.9620  12.8550 C.3            1 <1>                0.0000
      6 O6           2.1581 -17.5623  11.9985 O.3            1 <1>                0.0000
      7 C7           0.9528 -16.9620  14.0054 C.3            1 <1>                0.0000
      8 C8          -0.0941 -17.4665  15.0006 C.3            1 <1>                0.0000
      9 C9           2.3013 -16.8163  14.7136 C.3            1 <1>                0.0000
     10 C10          0.5177 -15.6035  13.4523 C.3            1 <1>                0.0000
     11 H11         -0.6568 -18.1063   8.0371 H              1 <1>                0.0000
     12 H12         -1.7224 -19.1692   8.9873 H              1 <1>                0.0000
     13 H13         -1.3941 -17.5106   9.5437 H              1 <1>                0.0000
     14 H14         -1.2422 -19.6492  11.1262 H              1 <1>                0.0000
     15 H15          0.4505 -19.9852  11.5620 H              1 <1>                0.0000
     16 H16         -0.2915 -17.1025  11.4396 H              1 <1>                0.0000
     17 H17         -1.0637 -18.0361  12.7436 H              1 <1>                0.0000
     18 H18          1.2935 -18.9535  13.2576 H              1 <1>                0.0000
     19 H19          0.2160 -18.4344  15.3946 H              1 <1>                0.0000
     20 H20         -0.1892 -16.7542  15.8202 H              1 <1>                0.0000
     21 H21         -1.0546 -17.5704  14.4962 H              1 <1>                0.0000
     22 H22          3.0470 -16.4570  14.0045 H              1 <1>                0.0000
     23 H23          2.2061 -16.1040  15.5331 H              1 <1>                0.0000
     24 H24          2.6112 -17.7842  15.1075 H              1 <1>                0.0000
     25 H25         -0.4429 -15.7073  12.9479 H              1 <1>                0.0000
     26 H26          0.4225 -14.8911  14.2719 H              1 <1>                0.0000
     27 H27          1.2635 -15.2441  12.7432 H              1 <1>                0.0000
     28 H28          0.5817 -19.6727   9.3406 H              1 <1>                0.0000
     29 H29          0.8855 -18.1374   9.8557 H              1 <1>                0.0000
     30 H30          2.0233 -17.7885  11.0680 H              1 <1>                0.0000
@<TRIPOS>BOND
    1    1    2 1     
    2    1   11 1     
    3    1   12 1     
    4    1   13 1     
    5    2    3 1     
    6    2   28 1     
    7    2   29 1     
    8    3    4 1     
    9    3   14 1     
   10    3   15 1     
   11    4    5 1     
   12    4   16 1     
   13    4   17 1     
   14    5    6 1     
   15    5    7 1     
   16    5   18 1     
   17    6   30 1     
   18    7    8 1     
   19    7    9 1     
   20    7   10 1     
   21    8   19 1     
   22    8   20 1     
   23    8   21 1     
   24    9   22 1     
   25    9   23 1     
   26    9   24 1     
   27   10   25 1     
   28   10   26 1     
   29   10   27 1     
@<TRIPOS>SUBSTRUCTURE
      1 ****           1
@<TRIPOS>SET
DONOR_HYDROGENS      STATIC     ATOMS    <user>   **** ""
3 28 29 30
ATOM$RED        STATIC     ATOMS    COLORGROUP SYSTEM
3 28 29 30
@<TRIPOS>COMMENT
> <Gold.Version>
2022.2.0

> <Gold.Id.Protein>
3pbl|protein|mol2

> <Gold.Protein.RotatedTorsions>
[ 1303 1298 1297 1294 ] final  153.12 input  179.99 | X-H torsion
[ 2461 2456 2455 2452 ] final  104.79 input   30.03 | X-H torsion
[ 2515 2510 2509 2506 ] final   30.12 input  -89.99 | X-H torsion
[ 3721 3712 3711 3710 ] final  178.80 input -179.91 | X-H torsion
[ 3841 3832 3831 3830 ] final   66.95 input -179.91 | X-H torsion
[ 3767 3762 3761 3758 ] final  157.45 input  -89.99 | X-H torsion
[ 2472 2467 2466 2463 ] final -130.67 input  -89.97 | X-H torsion

> <Gold.Protein.ActiveResidues>
 VAL82   VAL86   LEU89   PHE106  VAL107  ASP110  VAL111  MET112  CYS114  THR115 
 CYS181  SER182  ILE183  PHE188  VAL189  ILE190  SER192  SER193  SER196  TRP342 
 PHE345  PHE346  HIS349  VAL350  TYR365  THR369  GLY372  TYR373 

> <Gold.Protein.RotatedAtoms>
    4.9086   -9.2664    4.8701 H   0  0  0  0  0  0  0  0  0  0  0  0  # atno 1303 bound_to 1298
    2.1610   -8.4646    7.8975 H   0  0  0  0  0  0  0  0  0  0  0  0  # atno 2461 bound_to 2456
   -4.6759   -5.4594    9.4241 H   0  0  0  0  0  0  0  0  0  0  0  0  # atno 2472 bound_to 2467
    2.3312   -7.4235    4.9999 H   0  0  0  0  0  0  0  0  0  0  0  0  # atno 2515 bound_to 2510
   -3.3192  -16.6147   13.5302 H   0  0  0  0  0  0  0  0  0  0  0  0  # atno 3721 bound_to 3712
   -3.9437  -22.8099   11.3758 H   0  0  0  0  0  0  0  0  0  0  0  0  # atno 3767 bound_to 3762
    2.5638  -20.9550    9.4656 H   0  0  0  0  0  0  0  0  0  0  0  0  # atno 3841 bound_to 3832
    3.6663  -10.1999    4.3684 LP  0  0  0  0  0  0  0  0  0  0  0  0  # atno 4297 bound_to 1298
    3.7870   -8.6551    3.8529 LP  0  0  0  0  0  0  0  0  0  0  0  0  # atno 4298 bound_to 1298
    0.8142   -8.0900    7.0531 LP  0  0  0  0  0  0  0  0  0  0  0  0  # atno 4299 bound_to 2456
    0.7629   -9.2536    8.1976 LP  0  0  0  0  0  0  0  0  0  0  0  0  # atno 4300 bound_to 2456
    2.8212   -8.9309    4.6085 LP  0  0  0  0  0  0  0  0  0  0  0  0  # atno 4301 bound_to 2510
    2.1443   -8.6451    6.0669 LP  0  0  0  0  0  0  0  0  0  0  0  0  # atno 4302 bound_to 2510
   -2.7260  -18.0994   13.3830 LP  0  0  0  0  0  0  0  0  0  0  0  0  # atno 4306 bound_to 3712
   -2.9697  -17.4450   14.8592 LP  0  0  0  0  0  0  0  0  0  0  0  0  # atno 4307 bound_to 3712
    1.4211  -19.9478    8.9597 LP  0  0  0  0  0  0  0  0  0  0  0  0  # atno 4314 bound_to 3832
    2.8466  -20.0513    8.1697 LP  0  0  0  0  0  0  0  0  0  0  0  0  # atno 4315 bound_to 3832
   -4.8830  -23.1267   10.0780 LP  0  0  0  0  0  0  0  0  0  0  0  0  # atno 4318 bound_to 3762
   -5.3004  -21.9385   11.1175 LP  0  0  0  0  0  0  0  0  0  0  0  0  # atno 4319 bound_to 3762
   -5.3277   -5.0151    7.9944 LP  0  0  0  0  0  0  0  0  0  0  0  0  # atno 4320 bound_to 2467
   -3.7133   -4.9191    8.2208 LP  0  0  0  0  0  0  0  0  0  0  0  0  # atno 4321 bound_to 2467

> <Gold.Score>
     Score     S(PLP)   S(hbond)     S(cho)   S(metal)  DE(clash)   DE(tors)     intcor
     41.73     -31.49       3.79       0.00       0.00       0.00       0.57       0.01

> <Gold.PLP.Fitness>
41.7270

> <Gold.PLP.PLP>
-31.4875

> <Gold.PLP.part.hbond>
-2.6534

> <Gold.PLP.part.metal>
0.0000

> <Gold.PLP.part.buried>
-4.2842

> <Gold.PLP.part.nonpolar>
-24.8418

> <Gold.PLP.part.repulsive>
0.0000

> <Gold.PLP.ligand.clash>
0.0000

> <Gold.PLP.ligand.torsion>
0.5717

> <Gold.PLP.Chemscore.Hbond>
3.7920

> <Gold.PLP.Chemscore.CHOScore>
0.0000

> <Gold.PLP.Chemscore.Metal>
0.0000

> <Gold.Chemscore.Hbonds>
donor molecule, donor type, donor heavy atom, donor atom, acceptor molecule, acceptor atom, score
      L1  H     2    28       P1  3832  0.98
      L1  H     2    29       P1  1227  1.98
      L1  H     6    30       P1  1227  0.83

> <Gold.PLP.Chemscore.Internal.Correction>
0.0068

