#       Name:                EN300-4934512_i002
#       Creating user name   fsindt
#       Creation time:       Tue Feb 28 15:37:01 2023


#       File generated by GOLD software.
#

@<TRIPOS>MOLECULE
EN300-4934512_i002|amine_1|mol2|5053|dock10
    30    29     1
SMALL
USER_CHARGES


@<TRIPOS>ATOM
      1 C1           2.3400 -16.5899  12.9678 C.3            1 <1>                0.0000
      2 N2           2.0167 -15.8847  11.7204 N.4            1 <1>                1.0000
      3 C3           0.6705 -15.3051  11.8202 C.3            1 <1>                0.0000
      4 C4           0.1428 -14.9963  10.4177 C.3            1 <1>                0.0000
      5 C5           1.0904 -14.0185   9.7201 C.3            1 <1>                0.0000
      6 O6           2.2849 -14.7036   9.3377 O.3            1 <1>                0.0000
      7 C7           0.4087 -13.4482   8.4747 C.3            1 <1>                0.0000
      8 C8          -0.0546 -14.5966   7.5760 C.3            1 <1>                0.0000
      9 C9          -0.8002 -12.6093   8.8941 C.3            1 <1>                0.0000
     10 C10          1.3989 -12.5688   7.7087 C.3            1 <1>                0.0000
     11 H11          3.3389 -17.0199  12.8938 H              1 <1>                0.0000
     12 H12          2.3075 -15.8878  13.8011 H              1 <1>                0.0000
     13 H13          1.6134 -17.3852  13.1344 H              1 <1>                0.0000
     14 H14          0.0047 -16.0152  12.3107 H              1 <1>                0.0000
     15 H15          0.7135 -14.3850  12.4031 H              1 <1>                0.0000
     16 H16          0.0833 -15.9190   9.8406 H              1 <1>                0.0000
     17 H17         -0.8489 -14.5501  10.4928 H              1 <1>                0.0000
     18 H18          1.3404 -13.2056  10.4019 H              1 <1>                0.0000
     19 H19         -0.7600 -15.2231   8.1218 H              1 <1>                0.0000
     20 H20         -0.5403 -14.1904   6.6888 H              1 <1>                0.0000
     21 H21          0.8065 -15.1943   7.2773 H              1 <1>                0.0000
     22 H22         -0.4701 -11.7912   9.5343 H              1 <1>                0.0000
     23 H23         -1.2859 -12.2031   8.0068 H              1 <1>                0.0000
     24 H24         -1.5056 -13.2359   9.4398 H              1 <1>                0.0000
     25 H25          2.2601 -13.1665   7.4100 H              1 <1>                0.0000
     26 H26          0.9132 -12.1626   6.8215 H              1 <1>                0.0000
     27 H27          1.7290 -11.7507   8.3490 H              1 <1>                0.0000
     28 H28          2.6892 -15.1485  11.5661 H              1 <1>                0.0000
     29 H29          2.0467 -16.5346  10.9491 H              1 <1>                0.0000
     30 H30          2.2916 -15.6422   9.5704 H              1 <1>                0.0000
@<TRIPOS>BOND
    1    1    2 1     
    2    1   11 1     
    3    1   12 1     
    4    1   13 1     
    5    2    3 1     
    6    2   28 1     
    7    2   29 1     
    8    3    4 1     
    9    3   14 1     
   10    3   15 1     
   11    4    5 1     
   12    4   16 1     
   13    4   17 1     
   14    5    6 1     
   15    5    7 1     
   16    5   18 1     
   17    6   30 1     
   18    7    8 1     
   19    7    9 1     
   20    7   10 1     
   21    8   19 1     
   22    8   20 1     
   23    8   21 1     
   24    9   22 1     
   25    9   23 1     
   26    9   24 1     
   27   10   25 1     
   28   10   26 1     
   29   10   27 1     
@<TRIPOS>SUBSTRUCTURE
      1 ****           1
@<TRIPOS>SET
DONOR_HYDROGENS      STATIC     ATOMS    <user>   **** ""
3 28 29 30
ATOM$RED        STATIC     ATOMS    COLORGROUP SYSTEM
3 28 29 30
@<TRIPOS>COMMENT
> <Gold.Version>
2022.2.0

> <Gold.Id.Protein>
3pbl|protein|mol2

> <Gold.Protein.RotatedTorsions>
[ 1303 1298 1297 1294 ] final -105.76 input  179.99 | X-H torsion
[ 2461 2456 2455 2452 ] final  -46.57 input   30.03 | X-H torsion
[ 2515 2510 2509 2506 ] final   36.49 input  -89.99 | X-H torsion
[ 3721 3712 3711 3710 ] final  -89.56 input -179.91 | X-H torsion
[ 3841 3832 3831 3830 ] final   63.93 input -179.91 | X-H torsion
[ 3767 3762 3761 3758 ] final   64.09 input  -89.99 | X-H torsion
[ 2472 2467 2466 2463 ] final  -75.78 input  -89.97 | X-H torsion

> <Gold.Protein.ActiveResidues>
 VAL82   VAL86   LEU89   PHE106  VAL107  ASP110  VAL111  MET112  CYS114  THR115 
 CYS181  SER182  ILE183  PHE188  VAL189  ILE190  SER192  SER193  SER196  TRP342 
 PHE345  PHE346  HIS349  VAL350  TYR365  THR369  GLY372  TYR373 

> <Gold.Protein.RotatedAtoms>
    4.0369   -8.5194    3.9745 H   0  0  0  0  0  0  0  0  0  0  0  0  # atno 1303 bound_to 1298
    0.4570   -8.4018    7.2400 H   0  0  0  0  0  0  0  0  0  0  0  0  # atno 2461 bound_to 2456
   -3.8693   -5.2748    9.1580 H   0  0  0  0  0  0  0  0  0  0  0  0  # atno 2472 bound_to 2467
    2.2885   -7.4108    5.0948 H   0  0  0  0  0  0  0  0  0  0  0  0  # atno 2515 bound_to 2510
   -3.0217  -16.9542   14.6876 H   0  0  0  0  0  0  0  0  0  0  0  0  # atno 3721 bound_to 3712
   -4.5131  -23.2988   10.2271 H   0  0  0  0  0  0  0  0  0  0  0  0  # atno 3767 bound_to 3762
    2.5237  -20.9511    9.4870 H   0  0  0  0  0  0  0  0  0  0  0  0  # atno 3841 bound_to 3832
    4.8440   -9.5610    4.9389 LP  0  0  0  0  0  0  0  0  0  0  0  0  # atno 4297 bound_to 1298
    3.4812  -10.0413    4.1783 LP  0  0  0  0  0  0  0  0  0  0  0  0  # atno 4298 bound_to 1298
    1.2380   -9.2711    8.3809 LP  0  0  0  0  0  0  0  0  0  0  0  0  # atno 4299 bound_to 2456
    2.0425   -8.1352    7.5271 LP  0  0  0  0  0  0  0  0  0  0  0  0  # atno 4300 bound_to 2456
    2.8308   -8.8489    4.5440 LP  0  0  0  0  0  0  0  0  0  0  0  0  # atno 4301 bound_to 2510
    2.1775   -8.7398    6.0366 LP  0  0  0  0  0  0  0  0  0  0  0  0  # atno 4302 bound_to 2510
   -3.4139  -16.9380   13.1308 LP  0  0  0  0  0  0  0  0  0  0  0  0  # atno 4306 bound_to 3712
   -2.6252  -18.2144   13.7752 LP  0  0  0  0  0  0  0  0  0  0  0  0  # atno 4307 bound_to 3712
    1.4345  -19.9160    8.9229 LP  0  0  0  0  0  0  0  0  0  0  0  0  # atno 4314 bound_to 3832
    2.8795  -20.0875    8.1818 LP  0  0  0  0  0  0  0  0  0  0  0  0  # atno 4315 bound_to 3832
   -5.4807  -22.0933   10.7538 LP  0  0  0  0  0  0  0  0  0  0  0  0  # atno 4318 bound_to 3762
   -4.1334  -22.4833   11.5900 LP  0  0  0  0  0  0  0  0  0  0  0  0  # atno 4319 bound_to 3762
   -5.4613   -5.3192    8.7975 LP  0  0  0  0  0  0  0  0  0  0  0  0  # atno 4320 bound_to 2467
   -4.3861   -4.7995    7.6837 LP  0  0  0  0  0  0  0  0  0  0  0  0  # atno 4321 bound_to 2467

> <Gold.Score>
     Score     S(PLP)   S(hbond)     S(cho)   S(metal)  DE(clash)   DE(tors)     intcor
     41.01     -32.44       3.00       0.00       0.00       0.00       0.22       0.01

> <Gold.PLP.Fitness>
41.0127

> <Gold.PLP.PLP>
-32.4404

> <Gold.PLP.part.hbond>
-2.0029

> <Gold.PLP.part.metal>
0.0000

> <Gold.PLP.part.buried>
-2.9203

> <Gold.PLP.part.nonpolar>
-27.9629

> <Gold.PLP.part.repulsive>
0.0000

> <Gold.PLP.ligand.clash>
0.0000

> <Gold.PLP.ligand.torsion>
0.2172

> <Gold.PLP.Chemscore.Hbond>
3.0000

> <Gold.PLP.Chemscore.CHOScore>
0.0000

> <Gold.PLP.Chemscore.Metal>
0.0000

> <Gold.Chemscore.Hbonds>
donor molecule, donor type, donor heavy atom, donor atom, acceptor molecule, acceptor atom, score
      L1  H     2    29       P1  1227  2.00
      L1  H     6    30       P1  1227  1.00

> <Gold.PLP.Chemscore.Internal.Correction>
0.0067

