#       Name:                EN300-4934512_i002
#       Creating user name   fsindt
#       Creation time:       Tue Feb 28 15:37:05 2023


#       File generated by GOLD software.
#

@<TRIPOS>MOLECULE
EN300-4934512_i002|amine_1|mol2|5053|dock14
    30    29     1
SMALL
USER_CHARGES


@<TRIPOS>ATOM
      1 C1          -0.7383 -18.6428   9.5573 C.3            1 <1>                0.0000
      2 N2           0.4942 -19.1995  10.1308 N.4            1 <1>                1.0000
      3 C3           0.2023 -19.7810  11.4479 C.3            1 <1>                0.0000
      4 C4           0.6467 -18.8105  12.5439 C.3            1 <1>                0.0000
      5 C5           0.1283 -17.4072  12.2234 C.3            1 <1>                0.0000
      6 O6          -1.2997 -17.4029  12.2780 O.3            1 <1>                0.0000
      7 C7           0.6807 -16.4132  13.2470 C.3            1 <1>                0.0000
      8 C8           0.1139 -15.0207  12.9629 C.3            1 <1>                0.0000
      9 C9           0.2735 -16.8520  14.6551 C.3            1 <1>                0.0000
     10 C10          2.2069 -16.3729  13.1466 C.3            1 <1>                0.0000
     11 H11         -0.5217 -18.2114   8.5799 H              1 <1>                0.0000
     12 H12         -1.4787 -19.4354   9.4484 H              1 <1>                0.0000
     13 H13         -1.1291 -17.8688  10.2177 H              1 <1>                0.0000
     14 H14         -0.8689 -19.9624  11.5356 H              1 <1>                0.0000
     15 H15          0.7404 -20.7227  11.5564 H              1 <1>                0.0000
     16 H16          0.2440 -19.1363  13.5029 H              1 <1>                0.0000
     17 H17          1.7354 -18.7929  12.5942 H              1 <1>                0.0000
     18 H18          0.4545 -17.1187  11.2241 H              1 <1>                0.0000
     19 H19         -0.9733 -15.0495  13.0343 H              1 <1>                0.0000
     20 H20          0.5075 -14.3125  13.6921 H              1 <1>                0.0000
     21 H21          0.4039 -14.7081  11.9598 H              1 <1>                0.0000
     22 H22          0.6773 -17.8439  14.8575 H              1 <1>                0.0000
     23 H23          0.6670 -16.1438  15.3843 H              1 <1>                0.0000
     24 H24         -0.8137 -16.8807  14.7266 H              1 <1>                0.0000
     25 H25          2.4968 -16.0603  12.1435 H              1 <1>                0.0000
     26 H26          2.6004 -15.6647  13.8758 H              1 <1>                0.0000
     27 H27          2.6106 -17.3650  13.3490 H              1 <1>                0.0000
     28 H28          0.8561 -19.9160   9.5195 H              1 <1>                0.0000
     29 H29          1.1796 -18.4658  10.2315 H              1 <1>                0.0000
     30 H30         -1.6629 -17.7562  13.1017 H              1 <1>                0.0000
@<TRIPOS>BOND
    1    1    2 1     
    2    1   11 1     
    3    1   12 1     
    4    1   13 1     
    5    2    3 1     
    6    2   28 1     
    7    2   29 1     
    8    3    4 1     
    9    3   14 1     
   10    3   15 1     
   11    4    5 1     
   12    4   16 1     
   13    4   17 1     
   14    5    6 1     
   15    5    7 1     
   16    5   18 1     
   17    6   30 1     
   18    7    8 1     
   19    7    9 1     
   20    7   10 1     
   21    8   19 1     
   22    8   20 1     
   23    8   21 1     
   24    9   22 1     
   25    9   23 1     
   26    9   24 1     
   27   10   25 1     
   28   10   26 1     
   29   10   27 1     
@<TRIPOS>SUBSTRUCTURE
      1 ****           1
@<TRIPOS>SET
DONOR_HYDROGENS      STATIC     ATOMS    <user>   **** ""
3 28 29 30
ATOM$RED        STATIC     ATOMS    COLORGROUP SYSTEM
3 28 29 30
@<TRIPOS>COMMENT
> <Gold.Version>
2022.2.0

> <Gold.Id.Protein>
3pbl|protein|mol2

> <Gold.Protein.RotatedTorsions>
[ 1303 1298 1297 1294 ] final   -6.95 input  179.99 | X-H torsion
[ 2461 2456 2455 2452 ] final  135.58 input   30.03 | X-H torsion
[ 2515 2510 2509 2506 ] final  -84.31 input  -89.99 | X-H torsion
[ 3721 3712 3711 3710 ] final -141.88 input -179.91 | X-H torsion
[ 3841 3832 3831 3830 ] final   94.14 input -179.91 | X-H torsion
[ 3767 3762 3761 3758 ] final   22.38 input  -89.99 | X-H torsion
[ 2472 2467 2466 2463 ] final -160.14 input  -89.97 | X-H torsion

> <Gold.Protein.ActiveResidues>
 VAL82   VAL86   LEU89   PHE106  VAL107  ASP110  VAL111  MET112  CYS114  THR115 
 CYS181  SER182  ILE183  PHE188  VAL189  ILE190  SER192  SER193  SER196  TRP342 
 PHE345  PHE346  HIS349  VAL350  TYR365  THR369  GLY372  TYR373 

> <Gold.Protein.RotatedAtoms>
    3.3560   -9.7785    3.9899 H   0  0  0  0  0  0  0  0  0  0  0  0  # atno 1303 bound_to 1298
    2.0169   -8.8281    8.2103 H   0  0  0  0  0  0  0  0  0  0  0  0  # atno 2461 bound_to 2456
   -5.1210   -5.4443    9.2462 H   0  0  0  0  0  0  0  0  0  0  0  0  # atno 2472 bound_to 2467
    2.8298   -8.8594    4.5520 H   0  0  0  0  0  0  0  0  0  0  0  0  # atno 2515 bound_to 2510
   -3.3072  -16.5459   14.1089 H   0  0  0  0  0  0  0  0  0  0  0  0  # atno 3721 bound_to 3712
   -5.0803  -22.9781   10.0654 H   0  0  0  0  0  0  0  0  0  0  0  0  # atno 3767 bound_to 3762
    2.8852  -20.9042    9.2211 H   0  0  0  0  0  0  0  0  0  0  0  0  # atno 3841 bound_to 3832
    4.3273   -8.4769    4.1592 LP  0  0  0  0  0  0  0  0  0  0  0  0  # atno 4297 bound_to 1298
    4.6792   -9.8658    4.9427 LP  0  0  0  0  0  0  0  0  0  0  0  0  # atno 4298 bound_to 1298
    1.2882   -7.9291    7.0578 LP  0  0  0  0  0  0  0  0  0  0  0  0  # atno 4299 bound_to 2456
    0.4330   -9.0511    7.8802 LP  0  0  0  0  0  0  0  0  0  0  0  0  # atno 4300 bound_to 2456
    2.1731   -8.7281    6.0410 LP  0  0  0  0  0  0  0  0  0  0  0  0  # atno 4301 bound_to 2510
    2.2936   -7.4114    5.0826 LP  0  0  0  0  0  0  0  0  0  0  0  0  # atno 4302 bound_to 2510
   -3.0083  -17.6663   12.9985 LP  0  0  0  0  0  0  0  0  0  0  0  0  # atno 4306 bound_to 3712
   -2.7012  -17.9575   14.5756 LP  0  0  0  0  0  0  0  0  0  0  0  0  # atno 4307 bound_to 3712
    1.4076  -20.2788    9.2644 LP  0  0  0  0  0  0  0  0  0  0  0  0  # atno 4314 bound_to 3832
    2.4888  -19.7790    8.1474 LP  0  0  0  0  0  0  0  0  0  0  0  0  # atno 4315 bound_to 3832
   -5.1393  -21.9147   11.3033 LP  0  0  0  0  0  0  0  0  0  0  0  0  # atno 4318 bound_to 3762
   -3.9079  -22.9824   11.2021 LP  0  0  0  0  0  0  0  0  0  0  0  0  # atno 4319 bound_to 3762
   -4.9566   -4.8768    7.7239 LP  0  0  0  0  0  0  0  0  0  0  0  0  # atno 4320 bound_to 2467
   -3.6394   -5.0725    8.6691 LP  0  0  0  0  0  0  0  0  0  0  0  0  # atno 4321 bound_to 2467

> <Gold.Score>
     Score     S(PLP)   S(hbond)     S(cho)   S(metal)  DE(clash)   DE(tors)     intcor
     39.58     -29.43       3.62       0.00       0.00       0.00       0.35       0.00

> <Gold.PLP.Fitness>
39.5830

> <Gold.PLP.PLP>
-29.4303

> <Gold.PLP.part.hbond>
-3.0000

> <Gold.PLP.part.metal>
0.0000

> <Gold.PLP.part.buried>
-3.6770

> <Gold.PLP.part.nonpolar>
-23.9449

> <Gold.PLP.part.repulsive>
0.0000

> <Gold.PLP.ligand.clash>
0.0000

> <Gold.PLP.ligand.torsion>
0.3495

> <Gold.PLP.Chemscore.Hbond>
3.6160

> <Gold.PLP.Chemscore.CHOScore>
0.0000

> <Gold.PLP.Chemscore.Metal>
0.0000

> <Gold.Chemscore.Hbonds>
donor molecule, donor type, donor heavy atom, donor atom, acceptor molecule, acceptor atom, score
      L1  H     2    28       P1  3832  0.99
      L1  H     2    29       P1  1227  1.98
      L1  H     6    30       P1  3712  0.64

> <Gold.PLP.Chemscore.Internal.Correction>
0.0037

