#       Name:                EN300-4934512_i002
#       Creating user name   fsindt
#       Creation time:       Tue Feb 28 15:37:00 2023


#       File generated by GOLD software.
#

@<TRIPOS>MOLECULE
EN300-4934512_i002|amine_1|mol2|5053|dock9
    30    29     1
SMALL
USER_CHARGES


@<TRIPOS>ATOM
      1 C1          -4.1923 -10.2757   9.9322 C.3            1 <1>                0.0000
      2 N2          -2.9333  -9.6363  10.3372 N.4            1 <1>                1.0000
      3 C3          -1.9040  -9.8942   9.3213 C.3            1 <1>                0.0000
      4 C4          -1.3377 -11.3022   9.5149 C.3            1 <1>                0.0000
      5 C5          -0.2155 -11.5441   8.5037 C.3            1 <1>                0.0000
      6 O6           0.9420 -10.8001   8.8895 O.3            1 <1>                0.0000
      7 C7           0.1256 -13.0352   8.4672 C.3            1 <1>                0.0000
      8 C8          -1.0136 -13.8026   7.7931 C.3            1 <1>                0.0000
      9 C9           1.4188 -13.2434   7.6763 C.3            1 <1>                0.0000
     10 C10          0.3126 -13.5507   9.8955 C.3            1 <1>                0.0000
     11 H11         -4.9560 -10.0842  10.6860 H              1 <1>                0.0000
     12 H12         -4.5160  -9.8668   8.9750 H              1 <1>                0.0000
     13 H13         -4.0390 -11.3505   9.8350 H              1 <1>                0.0000
     14 H14         -2.3457  -9.8137   8.3281 H              1 <1>                0.0000
     15 H15         -1.1022  -9.1629   9.4228 H              1 <1>                0.0000
     16 H16         -0.9427 -11.3991  10.5262 H              1 <1>                0.0000
     17 H17         -2.1290 -12.0363   9.3622 H              1 <1>                0.0000
     18 H18         -0.5416 -11.2217   7.5148 H              1 <1>                0.0000
     19 H19         -1.1468 -13.4352   6.7755 H              1 <1>                0.0000
     20 H20         -0.7706 -14.8649   7.7671 H              1 <1>                0.0000
     21 H21         -1.9348 -13.6543   8.3564 H              1 <1>                0.0000
     22 H22          2.2303 -12.6967   8.1565 H              1 <1>                0.0000
     23 H23          1.6617 -14.3056   7.6503 H              1 <1>                0.0000
     24 H24          1.2855 -12.8761   6.6588 H              1 <1>                0.0000
     25 H25         -0.6086 -13.4024  10.4588 H              1 <1>                0.0000
     26 H26          0.5556 -14.6130   9.8695 H              1 <1>                0.0000
     27 H27          1.1242 -13.0040  10.3758 H              1 <1>                0.0000
     28 H28         -3.0751  -8.6413  10.4273 H              1 <1>                0.0000
     29 H29         -2.6336 -10.0148  11.2233 H              1 <1>                0.0000
     30 H30          1.0474  -9.9633   8.4163 H              1 <1>                0.0000
@<TRIPOS>BOND
    1    1    2 1     
    2    1   11 1     
    3    1   12 1     
    4    1   13 1     
    5    2    3 1     
    6    2   28 1     
    7    2   29 1     
    8    3    4 1     
    9    3   14 1     
   10    3   15 1     
   11    4    5 1     
   12    4   16 1     
   13    4   17 1     
   14    5    6 1     
   15    5    7 1     
   16    5   18 1     
   17    6   30 1     
   18    7    8 1     
   19    7    9 1     
   20    7   10 1     
   21    8   19 1     
   22    8   20 1     
   23    8   21 1     
   24    9   22 1     
   25    9   23 1     
   26    9   24 1     
   27   10   25 1     
   28   10   26 1     
   29   10   27 1     
@<TRIPOS>SUBSTRUCTURE
      1 ****           1
@<TRIPOS>SET
DONOR_HYDROGENS      STATIC     ATOMS    <user>   **** ""
3 28 29 30
ATOM$RED        STATIC     ATOMS    COLORGROUP SYSTEM
3 28 29 30
@<TRIPOS>COMMENT
> <Gold.Version>
2022.2.0

> <Gold.Id.Protein>
3pbl|protein|mol2

> <Gold.Protein.RotatedTorsions>
[ 1303 1298 1297 1294 ] final -102.50 input  179.99 | X-H torsion
[ 2461 2456 2455 2452 ] final   75.22 input   30.03 | X-H torsion
[ 2515 2510 2509 2506 ] final  -36.49 input  -89.99 | X-H torsion
[ 3721 3712 3711 3710 ] final -158.87 input -179.91 | X-H torsion
[ 3841 3832 3831 3830 ] final -149.15 input -179.91 | X-H torsion
[ 3767 3762 3761 3758 ] final   62.01 input  -89.99 | X-H torsion
[ 2472 2467 2466 2463 ] final  -48.95 input  -89.97 | X-H torsion

> <Gold.Protein.ActiveResidues>
 VAL82   VAL86   LEU89   PHE106  VAL107  ASP110  VAL111  MET112  CYS114  THR115 
 CYS181  SER182  ILE183  PHE188  VAL189  ILE190  SER192  SER193  SER196  TRP342 
 PHE345  PHE346  HIS349  VAL350  TYR365  THR369  GLY372  TYR373 

> <Gold.Protein.RotatedAtoms>
    3.9923   -8.5366    3.9502 H   0  0  0  0  0  0  0  0  0  0  0  0  # atno 1303 bound_to 1298
    2.0564   -8.1509    7.5477 H   0  0  0  0  0  0  0  0  0  0  0  0  # atno 2461 bound_to 2456
   -3.6648   -5.1240    8.8020 H   0  0  0  0  0  0  0  0  0  0  0  0  # atno 2472 bound_to 2467
    2.7507   -8.1234    4.3632 H   0  0  0  0  0  0  0  0  0  0  0  0  # atno 2515 bound_to 2510
   -3.3372  -16.5329   13.8551 H   0  0  0  0  0  0  0  0  0  0  0  0  # atno 3721 bound_to 3712
   -4.5414  -23.2902   10.2100 H   0  0  0  0  0  0  0  0  0  0  0  0  # atno 3767 bound_to 3762
    2.6176  -19.7460    8.3499 H   0  0  0  0  0  0  0  0  0  0  0  0  # atno 3841 bound_to 3832
    4.8611   -9.5107    4.9313 LP  0  0  0  0  0  0  0  0  0  0  0  0  # atno 4297 bound_to 1298
    3.5088  -10.0744    4.2103 LP  0  0  0  0  0  0  0  0  0  0  0  0  # atno 4298 bound_to 1298
    0.4721   -8.3815    7.2249 LP  0  0  0  0  0  0  0  0  0  0  0  0  # atno 4299 bound_to 2456
    1.2094   -9.2756    8.3754 LP  0  0  0  0  0  0  0  0  0  0  0  0  # atno 4300 bound_to 2456
    2.4877   -9.2179    5.5458 LP  0  0  0  0  0  0  0  0  0  0  0  0  # atno 4301 bound_to 2510
    2.0582   -7.6580    5.7666 LP  0  0  0  0  0  0  0  0  0  0  0  0  # atno 4302 bound_to 2510
   -2.8733  -17.8830   13.1203 LP  0  0  0  0  0  0  0  0  0  0  0  0  # atno 4306 bound_to 3712
   -2.8015  -17.7559   14.7468 LP  0  0  0  0  0  0  0  0  0  0  0  0  # atno 4307 bound_to 3712
    2.7990  -21.1213    9.1572 LP  0  0  0  0  0  0  0  0  0  0  0  0  # atno 4314 bound_to 3832
    1.4066  -20.2744    9.2611 LP  0  0  0  0  0  0  0  0  0  0  0  0  # atno 4315 bound_to 3832
   -5.4723  -22.0766   10.7823 LP  0  0  0  0  0  0  0  0  0  0  0  0  # atno 4318 bound_to 3762
   -4.1136  -22.5085   11.5785 LP  0  0  0  0  0  0  0  0  0  0  0  0  # atno 4319 bound_to 3762
   -5.2310   -5.4226    9.1546 LP  0  0  0  0  0  0  0  0  0  0  0  0  # atno 4320 bound_to 2467
   -4.8209   -4.8469    7.6825 LP  0  0  0  0  0  0  0  0  0  0  0  0  # atno 4321 bound_to 2467

> <Gold.Score>
     Score     S(PLP)   S(hbond)     S(cho)   S(metal)  DE(clash)   DE(tors)     intcor
     40.17     -34.89       2.00       0.00       0.00       0.00       0.36       0.01

> <Gold.PLP.Fitness>
40.1684

> <Gold.PLP.PLP>
-34.8912

> <Gold.PLP.part.hbond>
-2.0000

> <Gold.PLP.part.metal>
0.0000

> <Gold.PLP.part.buried>
-4.0100

> <Gold.PLP.part.nonpolar>
-29.3064

> <Gold.PLP.part.repulsive>
0.0525

> <Gold.PLP.ligand.clash>
0.0000

> <Gold.PLP.ligand.torsion>
0.3647

> <Gold.PLP.Chemscore.Hbond>
2.0000

> <Gold.PLP.Chemscore.CHOScore>
0.0000

> <Gold.PLP.Chemscore.Metal>
0.0000

> <Gold.Chemscore.Hbonds>
donor molecule, donor type, donor heavy atom, donor atom, acceptor molecule, acceptor atom, score
      L1  H     2    28       P1  2398  1.00
      L1  H     6    30       P1  2456  1.00

> <Gold.PLP.Chemscore.Internal.Correction>
0.0067

