#       Name:                EN300-4934512_i002
#       Creating user name   fsindt
#       Creation time:       Tue Feb 28 15:37:04 2023


#       File generated by GOLD software.
#

@<TRIPOS>MOLECULE
EN300-4934512_i002|amine_1|mol2|5053|dock13
    30    29     1
SMALL
USER_CHARGES


@<TRIPOS>ATOM
      1 C1           0.5254 -14.9861  10.9539 C.3            1 <1>                0.0000
      2 N2           0.8568 -15.2339   9.5444 N.4            1 <1>                1.0000
      3 C3           1.0562 -13.9518   8.8555 C.3            1 <1>                0.0000
      4 C4          -0.2297 -13.1263   8.9318 C.3            1 <1>                0.0000
      5 C5           0.0810 -11.7521   9.5280 C.3            1 <1>                0.0000
      6 O6           0.2429 -10.8010   8.4738 O.3            1 <1>                0.0000
      7 C7          -1.0721 -11.3170  10.4348 C.3            1 <1>                0.0000
      8 C8          -1.3008 -12.3778  11.5134 C.3            1 <1>                0.0000
      9 C9          -0.7241  -9.9826  11.0975 C.3            1 <1>                0.0000
     10 C10         -2.3442 -11.1557   9.6003 C.3            1 <1>                0.0000
     11 H11          0.3776 -15.9375  11.4651 H              1 <1>                0.0000
     12 H12          1.3416 -14.4416  11.4288 H              1 <1>                0.0000
     13 H13         -0.3887 -14.3955  11.0138 H              1 <1>                0.0000
     14 H14          1.8682 -13.4045   9.3344 H              1 <1>                0.0000
     15 H15          1.3085 -14.1359   7.8113 H              1 <1>                0.0000
     16 H16         -0.6423 -13.0031   7.9304 H              1 <1>                0.0000
     17 H17         -0.9547 -13.6407   9.5626 H              1 <1>                0.0000
     18 H18          1.0003 -11.8083  10.1109 H              1 <1>                0.0000
     19 H19         -0.3944 -12.4927  12.1079 H              1 <1>                0.0000
     20 H20         -2.1222 -12.0679  12.1594 H              1 <1>                0.0000
     21 H21         -1.5486 -13.3285  11.0413 H              1 <1>                0.0000
     22 H22         -0.5612  -9.2269  10.3291 H              1 <1>                0.0000
     23 H23         -1.5455  -9.6727  11.7435 H              1 <1>                0.0000
     24 H24          0.1822 -10.0975  11.6920 H              1 <1>                0.0000
     25 H25         -2.5920 -12.1064   9.1282 H              1 <1>                0.0000
     26 H26         -3.1657 -10.8458  10.2463 H              1 <1>                0.0000
     27 H27         -2.1813 -10.4000   8.8318 H              1 <1>                0.0000
     28 H28          1.7031 -15.7807   9.4889 H              1 <1>                0.0000
     29 H29          0.1013 -15.7380   9.1048 H              1 <1>                0.0000
     30 H30         -0.3288 -10.9593   7.7101 H              1 <1>                0.0000
@<TRIPOS>BOND
    1    1    2 1     
    2    1   11 1     
    3    1   12 1     
    4    1   13 1     
    5    2    3 1     
    6    2   28 1     
    7    2   29 1     
    8    3    4 1     
    9    3   14 1     
   10    3   15 1     
   11    4    5 1     
   12    4   16 1     
   13    4   17 1     
   14    5    6 1     
   15    5    7 1     
   16    5   18 1     
   17    6   30 1     
   18    7    8 1     
   19    7    9 1     
   20    7   10 1     
   21    8   19 1     
   22    8   20 1     
   23    8   21 1     
   24    9   22 1     
   25    9   23 1     
   26    9   24 1     
   27   10   25 1     
   28   10   26 1     
   29   10   27 1     
@<TRIPOS>SUBSTRUCTURE
      1 ****           1
@<TRIPOS>SET
DONOR_HYDROGENS      STATIC     ATOMS    <user>   **** ""
3 28 29 30
ATOM$RED        STATIC     ATOMS    COLORGROUP SYSTEM
3 28 29 30
@<TRIPOS>COMMENT
> <Gold.Version>
2022.2.0

> <Gold.Id.Protein>
3pbl|protein|mol2

> <Gold.Protein.RotatedTorsions>
[ 1303 1298 1297 1294 ] final   20.25 input  179.99 | X-H torsion
[ 2461 2456 2455 2452 ] final -149.55 input   30.03 | X-H torsion
[ 2515 2510 2509 2506 ] final    9.24 input  -89.99 | X-H torsion
[ 3721 3712 3711 3710 ] final   35.51 input -179.91 | X-H torsion
[ 3841 3832 3831 3830 ] final   68.93 input -179.91 | X-H torsion
[ 3767 3762 3761 3758 ] final   81.67 input  -89.99 | X-H torsion
[ 2472 2467 2466 2463 ] final   18.43 input  -89.97 | X-H torsion

> <Gold.Protein.ActiveResidues>
 VAL82   VAL86   LEU89   PHE106  VAL107  ASP110  VAL111  MET112  CYS114  THR115 
 CYS181  SER182  ILE183  PHE188  VAL189  ILE190  SER192  SER193  SER196  TRP342 
 PHE345  PHE346  HIS349  VAL350  TYR365  THR369  GLY372  TYR373 

> <Gold.Protein.RotatedAtoms>
    3.5333  -10.1001    4.2380 H   0  0  0  0  0  0  0  0  0  0  0  0  # atno 1303 bound_to 1298
    0.9703   -9.2871    8.3035 H   0  0  0  0  0  0  0  0  0  0  0  0  # atno 2461 bound_to 2456
   -4.0048   -4.8219    7.8600 H   0  0  0  0  0  0  0  0  0  0  0  0  # atno 2472 bound_to 2467
    2.4771   -7.5420    4.7147 H   0  0  0  0  0  0  0  0  0  0  0  0  # atno 2515 bound_to 2510
   -2.4946  -18.0246   13.7185 H   0  0  0  0  0  0  0  0  0  0  0  0  # atno 3721 bound_to 3712
   -4.2873  -23.3353   10.4023 H   0  0  0  0  0  0  0  0  0  0  0  0  # atno 3767 bound_to 3762
    2.5898  -20.9565    9.4509 H   0  0  0  0  0  0  0  0  0  0  0  0  # atno 3841 bound_to 3832
    3.9554   -8.5530    3.9303 LP  0  0  0  0  0  0  0  0  0  0  0  0  # atno 4297 bound_to 1298
    4.8737   -9.4679    4.9234 LP  0  0  0  0  0  0  0  0  0  0  0  0  # atno 4298 bound_to 1298
    2.1396   -8.3026    7.7282 LP  0  0  0  0  0  0  0  0  0  0  0  0  # atno 4299 bound_to 2456
    0.6278   -8.2187    7.1166 LP  0  0  0  0  0  0  0  0  0  0  0  0  # atno 4300 bound_to 2456
    2.7572   -9.1432    4.8687 LP  0  0  0  0  0  0  0  0  0  0  0  0  # atno 4301 bound_to 2510
    2.0624   -8.3143    6.0921 LP  0  0  0  0  0  0  0  0  0  0  0  0  # atno 4302 bound_to 2510
   -3.1877  -17.0721   14.8094 LP  0  0  0  0  0  0  0  0  0  0  0  0  # atno 4306 bound_to 3712
   -3.4599  -16.8444   13.2154 LP  0  0  0  0  0  0  0  0  0  0  0  0  # atno 4307 bound_to 3712
    1.4136  -19.9694    8.9836 LP  0  0  0  0  0  0  0  0  0  0  0  0  # atno 4314 bound_to 3832
    2.8241  -20.0280    8.1628 LP  0  0  0  0  0  0  0  0  0  0  0  0  # atno 4315 bound_to 3832
   -5.5110  -22.2604   10.5210 LP  0  0  0  0  0  0  0  0  0  0  0  0  # atno 4318 bound_to 3762
   -4.3289  -22.2796   11.6476 LP  0  0  0  0  0  0  0  0  0  0  0  0  # atno 4319 bound_to 3762
   -4.2094   -5.3903    9.3770 LP  0  0  0  0  0  0  0  0  0  0  0  0  # atno 4320 bound_to 2467
   -5.5026   -5.1812    8.4020 LP  0  0  0  0  0  0  0  0  0  0  0  0  # atno 4321 bound_to 2467

> <Gold.Score>
     Score     S(PLP)   S(hbond)     S(cho)   S(metal)  DE(clash)   DE(tors)     intcor
     42.93     -35.73       3.00       0.00       0.00       0.00       0.90       0.01

> <Gold.PLP.Fitness>
42.9269

> <Gold.PLP.PLP>
-35.7282

> <Gold.PLP.part.hbond>
-2.0000

> <Gold.PLP.part.metal>
0.0000

> <Gold.PLP.part.buried>
-3.4227

> <Gold.PLP.part.nonpolar>
-30.5173

> <Gold.PLP.part.repulsive>
0.0065

> <Gold.PLP.ligand.clash>
0.0000

> <Gold.PLP.ligand.torsion>
0.9040

> <Gold.PLP.Chemscore.Hbond>
3.0000

> <Gold.PLP.Chemscore.CHOScore>
0.0000

> <Gold.PLP.Chemscore.Metal>
0.0000

> <Gold.Chemscore.Hbonds>
donor molecule, donor type, donor heavy atom, donor atom, acceptor molecule, acceptor atom, score
      L1  H     2    28       P1  1227  2.00
      P1  H  2456  2461       L1     6  1.00

> <Gold.PLP.Chemscore.Internal.Correction>
0.0067

