#       Name:                EN300-4934512_i002
#       Creating user name   fsindt
#       Creation time:       Tue Feb 28 15:37:06 2023


#       File generated by GOLD software.
#

@<TRIPOS>MOLECULE
EN300-4934512_i002|amine_1|mol2|5053|dock15
    30    29     1
SMALL
USER_CHARGES


@<TRIPOS>ATOM
      1 C1           0.9284 -14.7011   7.5145 C.3            1 <1>                0.0000
      2 N2           1.4014 -15.0136   8.8696 N.4            1 <1>                1.0000
      3 C3           0.3480 -14.6932   9.8421 C.3            1 <1>                0.0000
      4 C4           0.8158 -15.0795  11.2466 C.3            1 <1>                0.0000
      5 C5           0.0891 -16.3488  11.6952 C.3            1 <1>                0.0000
      6 O6           0.4673 -17.4379  10.8508 O.3            1 <1>                0.0000
      7 C7           0.4689 -16.6697  13.1422 C.3            1 <1>                0.0000
      8 C8          -0.0988 -18.0374  13.5271 C.3            1 <1>                0.0000
      9 C9           1.9929 -16.6940  13.2761 C.3            1 <1>                0.0000
     10 C10         -0.1077 -15.5987  14.0703 C.3            1 <1>                0.0000
     11 H11          1.7100 -14.9389   6.7929 H              1 <1>                0.0000
     12 H12          0.0391 -15.2920   7.2947 H              1 <1>                0.0000
     13 H13          0.6850 -13.6406   7.4501 H              1 <1>                0.0000
     14 H14          0.1374 -13.6243   9.8105 H              1 <1>                0.0000
     15 H15         -0.5562 -15.2492   9.5945 H              1 <1>                0.0000
     16 H16          1.8905 -15.2611  11.2345 H              1 <1>                0.0000
     17 H17          0.5923 -14.2685  11.9399 H              1 <1>                0.0000
     18 H18         -0.9878 -16.1940  11.6279 H              1 <1>                0.0000
     19 H19          0.3119 -18.8003  12.8658 H              1 <1>                0.0000
     20 H20          0.1717 -18.2660  14.5580 H              1 <1>                0.0000
     21 H21         -1.1845 -18.0201  13.4317 H              1 <1>                0.0000
     22 H22          2.3972 -15.7197  13.0019 H              1 <1>                0.0000
     23 H23          2.2633 -16.9227  14.3069 H              1 <1>                0.0000
     24 H24          2.4035 -17.4571  12.6149 H              1 <1>                0.0000
     25 H25         -1.1933 -15.5814  13.9749 H              1 <1>                0.0000
     26 H26          0.1629 -15.8273  15.1012 H              1 <1>                0.0000
     27 H27          0.2967 -14.6243  13.7961 H              1 <1>                0.0000
     28 H28          1.6268 -15.9954   8.9292 H              1 <1>                0.0000
     29 H29          2.2246 -14.4667   9.0730 H              1 <1>                0.0000
     30 H30          1.4071 -17.4511  10.6232 H              1 <1>                0.0000
@<TRIPOS>BOND
    1    1    2 1     
    2    1   11 1     
    3    1   12 1     
    4    1   13 1     
    5    2    3 1     
    6    2   28 1     
    7    2   29 1     
    8    3    4 1     
    9    3   14 1     
   10    3   15 1     
   11    4    5 1     
   12    4   16 1     
   13    4   17 1     
   14    5    6 1     
   15    5    7 1     
   16    5   18 1     
   17    6   30 1     
   18    7    8 1     
   19    7    9 1     
   20    7   10 1     
   21    8   19 1     
   22    8   20 1     
   23    8   21 1     
   24    9   22 1     
   25    9   23 1     
   26    9   24 1     
   27   10   25 1     
   28   10   26 1     
   29   10   27 1     
@<TRIPOS>SUBSTRUCTURE
      1 ****           1
@<TRIPOS>SET
DONOR_HYDROGENS      STATIC     ATOMS    <user>   **** ""
3 28 29 30
ATOM$RED        STATIC     ATOMS    COLORGROUP SYSTEM
3 28 29 30
@<TRIPOS>COMMENT
> <Gold.Version>
2022.2.0

> <Gold.Id.Protein>
3pbl|protein|mol2

> <Gold.Protein.RotatedTorsions>
[ 1303 1298 1297 1294 ] final  -84.08 input  179.99 | X-H torsion
[ 2461 2456 2455 2452 ] final  -79.90 input   30.03 | X-H torsion
[ 2515 2510 2509 2506 ] final  126.79 input  -89.99 | X-H torsion
[ 3721 3712 3711 3710 ] final   31.75 input -179.91 | X-H torsion
[ 3841 3832 3831 3830 ] final  -70.81 input -179.91 | X-H torsion
[ 3767 3762 3761 3758 ] final   13.89 input  -89.99 | X-H torsion
[ 2472 2467 2466 2463 ] final   61.16 input  -89.97 | X-H torsion

> <Gold.Protein.ActiveResidues>
 VAL82   VAL86   LEU89   PHE106  VAL107  ASP110  VAL111  MET112  CYS114  THR115 
 CYS181  SER182  ILE183  PHE188  VAL189  ILE190  SER192  SER193  SER196  TRP342 
 PHE345  PHE346  HIS349  VAL350  TYR365  THR369  GLY372  TYR373 

> <Gold.Protein.RotatedAtoms>
    3.7522   -8.6823    3.8399 H   0  0  0  0  0  0  0  0  0  0  0  0  # atno 1303 bound_to 1298
    0.3315   -8.7953    7.5893 H   0  0  0  0  0  0  0  0  0  0  0  0  # atno 2461 bound_to 2456
   -4.6619   -4.8222    7.6602 H   0  0  0  0  0  0  0  0  0  0  0  0  # atno 2472 bound_to 2467
    2.0561   -8.2748    6.0872 H   0  0  0  0  0  0  0  0  0  0  0  0  # atno 2515 bound_to 2510
   -2.4860  -18.0310   13.7743 H   0  0  0  0  0  0  0  0  0  0  0  0  # atno 3721 bound_to 3712
   -5.1813  -22.8831   10.0827 H   0  0  0  0  0  0  0  0  0  0  0  0  # atno 3767 bound_to 3762
    1.6790  -19.7232    8.9106 H   0  0  0  0  0  0  0  0  0  0  0  0  # atno 3841 bound_to 3832
    4.9115   -9.2231    4.8547 LP  0  0  0  0  0  0  0  0  0  0  0  0  # atno 4297 bound_to 1298
    3.6986  -10.2162    4.3972 LP  0  0  0  0  0  0  0  0  0  0  0  0  # atno 4298 bound_to 1298
    1.7422   -9.0766    8.3626 LP  0  0  0  0  0  0  0  0  0  0  0  0  # atno 4299 bound_to 2456
    1.6638   -7.9364    7.1962 LP  0  0  0  0  0  0  0  0  0  0  0  0  # atno 4300 bound_to 2456
    2.4941   -7.5629    4.6847 LP  0  0  0  0  0  0  0  0  0  0  0  0  # atno 4301 bound_to 2510
    2.7467   -9.1614    4.9029 LP  0  0  0  0  0  0  0  0  0  0  0  0  # atno 4302 bound_to 2510
   -3.2183  -17.0223   14.7863 LP  0  0  0  0  0  0  0  0  0  0  0  0  # atno 4306 bound_to 3712
   -3.4392  -16.8870   13.1740 LP  0  0  0  0  0  0  0  0  0  0  0  0  # atno 4307 bound_to 3712
    3.0353  -20.3140    8.2881 LP  0  0  0  0  0  0  0  0  0  0  0  0  # atno 4314 bound_to 3832
    2.2545  -21.1080    9.4825 LP  0  0  0  0  0  0  0  0  0  0  0  0  # atno 4315 bound_to 3832
   -5.0345  -21.9228   11.3953 LP  0  0  0  0  0  0  0  0  0  0  0  0  # atno 4318 bound_to 3762
   -3.9117  -23.0692   11.0928 LP  0  0  0  0  0  0  0  0  0  0  0  0  # atno 4319 bound_to 3762
   -3.7191   -5.1805    8.9443 LP  0  0  0  0  0  0  0  0  0  0  0  0  # atno 4320 bound_to 2467
   -5.3359   -5.3908    9.0345 LP  0  0  0  0  0  0  0  0  0  0  0  0  # atno 4321 bound_to 2467

> <Gold.Score>
     Score     S(PLP)   S(hbond)     S(cho)   S(metal)  DE(clash)   DE(tors)     intcor
     37.00     -28.86       3.00       0.00       0.00       0.00       0.43       0.00

> <Gold.PLP.Fitness>
37.0008

> <Gold.PLP.PLP>
-28.8593

> <Gold.PLP.part.hbond>
-1.9356

> <Gold.PLP.part.metal>
0.0000

> <Gold.PLP.part.buried>
-2.0900

> <Gold.PLP.part.nonpolar>
-24.9220

> <Gold.PLP.part.repulsive>
0.0464

> <Gold.PLP.ligand.clash>
0.0000

> <Gold.PLP.ligand.torsion>
0.4311

> <Gold.PLP.Chemscore.Hbond>
3.0000

> <Gold.PLP.Chemscore.CHOScore>
0.0000

> <Gold.PLP.Chemscore.Metal>
0.0000

> <Gold.Chemscore.Hbonds>
donor molecule, donor type, donor heavy atom, donor atom, acceptor molecule, acceptor atom, score
      L1  H     2    28       P1  1227  2.00
      L1  H     6    30       P1  1227  1.00

> <Gold.PLP.Chemscore.Internal.Correction>
0.0037

