#       Name:                EN300-4934512_i002
#       Creating user name   fsindt
#       Creation time:       Tue Feb 28 15:36:52 2023


#       File generated by GOLD software.
#

@<TRIPOS>MOLECULE
EN300-4934512_i002|amine_1|mol2|5053|dock1
    30    29     1
SMALL
USER_CHARGES


@<TRIPOS>ATOM
      1 C1           0.5872 -15.2002   7.0721 C.3            1 <1>                0.0000
      2 N2           0.9084 -15.3756   8.4947 N.4            1 <1>                1.0000
      3 C3           1.2169 -14.0694   9.0919 C.3            1 <1>                0.0000
      4 C4          -0.0861 -13.3516   9.4495 C.3            1 <1>                0.0000
      5 C5           0.2049 -11.8760   9.7296 C.3            1 <1>                0.0000
      6 O6           0.3840 -11.1826   8.4929 O.3            1 <1>                0.0000
      7 C7          -0.9692 -11.2607  10.4937 C.3            1 <1>                0.0000
      8 C8          -0.5905  -9.8551  10.9648 C.3            1 <1>                0.0000
      9 C9          -2.1895 -11.1789   9.5742 C.3            1 <1>                0.0000
     10 C10         -1.3017 -12.1326  11.7062 C.3            1 <1>                0.0000
     11 H11          0.3583 -16.1695   6.6290 H              1 <1>                0.0000
     12 H12         -0.2763 -14.5424   6.9730 H              1 <1>                0.0000
     13 H13          1.4412 -14.7586   6.5586 H              1 <1>                0.0000
     14 H14          1.8116 -14.2136   9.9938 H              1 <1>                0.0000
     15 H15          1.7793 -13.4674   8.3782 H              1 <1>                0.0000
     16 H16         -0.7857 -13.4325   8.6176 H              1 <1>                0.0000
     17 H17         -0.5221 -13.8107  10.3368 H              1 <1>                0.0000
     18 H18          1.1120 -11.7916  10.3279 H              1 <1>                0.0000
     19 H19         -0.3537  -9.2340  10.1010 H              1 <1>                0.0000
     20 H20         -1.4270  -9.4167  11.5092 H              1 <1>                0.0000
     21 H21          0.2787  -9.9133  11.6198 H              1 <1>                0.0000
     22 H22         -2.4592 -12.1802   9.2387 H              1 <1>                0.0000
     23 H23         -3.0258 -10.7405  10.1186 H              1 <1>                0.0000
     24 H24         -1.9526 -10.5577   8.7105 H              1 <1>                0.0000
     25 H25         -0.4324 -12.1908  12.3612 H              1 <1>                0.0000
     26 H26         -2.1381 -11.6942  12.2506 H              1 <1>                0.0000
     27 H27         -1.5714 -13.1340  11.3706 H              1 <1>                0.0000
     28 H28          0.1179 -15.7846   8.9702 H              1 <1>                0.0000
     29 H29          1.7078 -15.9846   8.5865 H              1 <1>                0.0000
     30 H30          0.4678 -10.2239   8.5880 H              1 <1>                0.0000
@<TRIPOS>BOND
    1    1    2 1     
    2    1   11 1     
    3    1   12 1     
    4    1   13 1     
    5    2    3 1     
    6    2   28 1     
    7    2   29 1     
    8    3    4 1     
    9    3   14 1     
   10    3   15 1     
   11    4    5 1     
   12    4   16 1     
   13    4   17 1     
   14    5    6 1     
   15    5    7 1     
   16    5   18 1     
   17    6   30 1     
   18    7    8 1     
   19    7    9 1     
   20    7   10 1     
   21    8   19 1     
   22    8   20 1     
   23    8   21 1     
   24    9   22 1     
   25    9   23 1     
   26    9   24 1     
   27   10   25 1     
   28   10   26 1     
   29   10   27 1     
@<TRIPOS>SUBSTRUCTURE
      1 ****           1
@<TRIPOS>SET
DONOR_HYDROGENS      STATIC     ATOMS    <user>   **** ""
3 28 29 30
ATOM$RED        STATIC     ATOMS    COLORGROUP SYSTEM
3 28 29 30
@<TRIPOS>COMMENT
> <Gold.Version>
2022.2.0

> <Gold.Id.Protein>
3pbl|protein|mol2

> <Gold.Protein.RotatedTorsions>
[ 1303 1298 1297 1294 ] final    2.01 input  179.99 | X-H torsion
[ 2461 2456 2455 2452 ] final    8.88 input   30.03 | X-H torsion
[ 2515 2510 2509 2506 ] final   76.08 input  -89.99 | X-H torsion
[ 3721 3712 3711 3710 ] final   67.93 input -179.91 | X-H torsion
[ 3841 3832 3831 3830 ] final  -24.49 input -179.91 | X-H torsion
[ 3767 3762 3761 3758 ] final -165.23 input  -89.99 | X-H torsion
[ 2472 2467 2466 2463 ] final  116.25 input  -89.97 | X-H torsion

> <Gold.Protein.ActiveResidues>
 VAL82   VAL86   LEU89   PHE106  VAL107  ASP110  VAL111  MET112  CYS114  THR115 
 CYS181  SER182  ILE183  PHE188  VAL189  ILE190  SER192  SER193  SER196  TRP342 
 PHE345  PHE346  HIS349  VAL350  TYR365  THR369  GLY372  TYR373 

> <Gold.Protein.RotatedAtoms>
    3.3969   -9.8984    4.0649 H   0  0  0  0  0  0  0  0  0  0  0  0  # atno 1303 bound_to 1298
    1.1812   -7.9485    7.0399 H   0  0  0  0  0  0  0  0  0  0  0  0  # atno 2461 bound_to 2456
   -5.3891   -5.0542    8.0819 H   0  0  0  0  0  0  0  0  0  0  0  0  # atno 2472 bound_to 2467
    2.0812   -7.5822    5.6736 H   0  0  0  0  0  0  0  0  0  0  0  0  # atno 2515 bound_to 2510
   -2.6358  -17.8442   13.2927 H   0  0  0  0  0  0  0  0  0  0  0  0  # atno 3721 bound_to 3712
   -4.2465  -22.3560   11.6334 H   0  0  0  0  0  0  0  0  0  0  0  0  # atno 3767 bound_to 3762
    1.5864  -20.1962    9.3915 H   0  0  0  0  0  0  0  0  0  0  0  0  # atno 3841 bound_to 3832
    4.2058   -8.4800    4.0760 LP  0  0  0  0  0  0  0  0  0  0  0  0  # atno 4297 bound_to 1298
    4.7597   -9.7427    4.9508 LP  0  0  0  0  0  0  0  0  0  0  0  0  # atno 4298 bound_to 1298
    0.4876   -9.1086    7.9566 LP  0  0  0  0  0  0  0  0  0  0  0  0  # atno 4299 bound_to 2456
    2.0690   -8.7509    8.1514 LP  0  0  0  0  0  0  0  0  0  0  0  0  # atno 4300 bound_to 2456
    2.7801   -8.2416    4.3536 LP  0  0  0  0  0  0  0  0  0  0  0  0  # atno 4301 bound_to 2510
    2.4355   -9.1758    5.6478 LP  0  0  0  0  0  0  0  0  0  0  0  0  # atno 4302 bound_to 2510
   -2.9203  -17.5337   14.8420 LP  0  0  0  0  0  0  0  0  0  0  0  0  # atno 4306 bound_to 3712
   -3.5643  -16.5911   13.6744 LP  0  0  0  0  0  0  0  0  0  0  0  0  # atno 4307 bound_to 3712
    2.5122  -19.7917    8.1443 LP  0  0  0  0  0  0  0  0  0  0  0  0  # atno 4314 bound_to 3832
    2.8846  -21.0839    9.0707 LP  0  0  0  0  0  0  0  0  0  0  0  0  # atno 4315 bound_to 3832
   -4.3727  -23.3292   10.3281 LP  0  0  0  0  0  0  0  0  0  0  0  0  # atno 4318 bound_to 3762
   -5.5080  -22.1898   10.6098 LP  0  0  0  0  0  0  0  0  0  0  0  0  # atno 4319 bound_to 3762
   -3.7651   -4.8897    8.1235 LP  0  0  0  0  0  0  0  0  0  0  0  0  # atno 4320 bound_to 2467
   -4.5629   -5.4496    9.4337 LP  0  0  0  0  0  0  0  0  0  0  0  0  # atno 4321 bound_to 2467

> <Gold.Score>
     Score     S(PLP)   S(hbond)     S(cho)   S(metal)  DE(clash)   DE(tors)     intcor
     44.81     -36.65       3.00       0.00       0.00       0.00       0.43       0.01

> <Gold.PLP.Fitness>
44.8068

> <Gold.PLP.PLP>
-36.6550

> <Gold.PLP.part.hbond>
-2.0000

> <Gold.PLP.part.metal>
0.0000

> <Gold.PLP.part.buried>
-3.4861

> <Gold.PLP.part.nonpolar>
-31.4098

> <Gold.PLP.part.repulsive>
0.0184

> <Gold.PLP.ligand.clash>
0.0000

> <Gold.PLP.ligand.torsion>
0.4275

> <Gold.PLP.Chemscore.Hbond>
3.0000

> <Gold.PLP.Chemscore.CHOScore>
0.0000

> <Gold.PLP.Chemscore.Metal>
0.0000

> <Gold.Chemscore.Hbonds>
donor molecule, donor type, donor heavy atom, donor atom, acceptor molecule, acceptor atom, score
      L1  H     2    29       P1  1227  2.00
      L1  H     6    30       P1  2456  1.00

> <Gold.PLP.Chemscore.Internal.Correction>
0.0068

