#       Name:                EN300-4934512_i002
#       Creating user name   fsindt
#       Creation time:       Tue Feb 28 15:37:03 2023


#       File generated by GOLD software.
#

@<TRIPOS>MOLECULE
EN300-4934512_i002|amine_1|mol2|5053|dock12
    30    29     1
SMALL
USER_CHARGES


@<TRIPOS>ATOM
      1 C1           1.3844 -14.4943   7.8564 C.3            1 <1>                0.0000
      2 N2           0.8039 -15.1742   9.0219 N.4            1 <1>                1.0000
      3 C3           0.9142 -14.3051  10.2011 C.3            1 <1>                0.0000
      4 C4           0.3620 -12.9181   9.8660 C.3            1 <1>                0.0000
      5 C5          -1.0352 -12.7658  10.4703 C.3            1 <1>                0.0000
      6 O6          -1.0071 -13.1655  11.8421 O.3            1 <1>                0.0000
      7 C7          -1.4759 -11.3037  10.3742 C.3            1 <1>                0.0000
      8 C8          -1.1963 -10.7786   8.9645 C.3            1 <1>                0.0000
      9 C9          -2.9739 -11.2022  10.6685 C.3            1 <1>                0.0000
     10 C10         -0.6980 -10.4685  11.3931 C.3            1 <1>                0.0000
     11 H11          1.3024 -15.1392   6.9814 H              1 <1>                0.0000
     12 H12          0.8469 -13.5638   7.6734 H              1 <1>                0.0000
     13 H13          2.4346 -14.2754   8.0493 H              1 <1>                0.0000
     14 H14          0.3426 -14.7347  11.0238 H              1 <1>                0.0000
     15 H15          1.9611 -14.2188  10.4921 H              1 <1>                0.0000
     16 H16          1.0217 -12.1549  10.2789 H              1 <1>                0.0000
     17 H17          0.3045 -12.8017   8.7837 H              1 <1>                0.0000
     18 H18         -1.7382 -13.3939   9.9233 H              1 <1>                0.0000
     19 H19         -1.7504 -11.3737   8.2386 H              1 <1>                0.0000
     20 H20         -1.5103  -9.7370   8.8959 H              1 <1>                0.0000
     21 H21         -0.1292 -10.8510   8.7548 H              1 <1>                0.0000
     22 H22         -3.1730 -11.5763  11.6727 H              1 <1>                0.0000
     23 H23         -3.2878 -10.1606  10.5999 H              1 <1>                0.0000
     24 H24         -3.5280 -11.7972   9.9425 H              1 <1>                0.0000
     25 H25          0.3691 -10.5409  11.1834 H              1 <1>                0.0000
     26 H26         -1.0120  -9.4269  11.3245 H              1 <1>                0.0000
     27 H27         -0.8971 -10.8427  12.3973 H              1 <1>                0.0000
     28 H28         -0.1684 -15.3769   8.8434 H              1 <1>                0.0000
     29 H29          1.3014 -16.0356   9.1912 H              1 <1>                0.0000
     30 H30         -1.7744 -13.6866  12.1156 H              1 <1>                0.0000
@<TRIPOS>BOND
    1    1    2 1     
    2    1   11 1     
    3    1   12 1     
    4    1   13 1     
    5    2    3 1     
    6    2   28 1     
    7    2   29 1     
    8    3    4 1     
    9    3   14 1     
   10    3   15 1     
   11    4    5 1     
   12    4   16 1     
   13    4   17 1     
   14    5    6 1     
   15    5    7 1     
   16    5   18 1     
   17    6   30 1     
   18    7    8 1     
   19    7    9 1     
   20    7   10 1     
   21    8   19 1     
   22    8   20 1     
   23    8   21 1     
   24    9   22 1     
   25    9   23 1     
   26    9   24 1     
   27   10   25 1     
   28   10   26 1     
   29   10   27 1     
@<TRIPOS>SUBSTRUCTURE
      1 ****           1
@<TRIPOS>SET
DONOR_HYDROGENS      STATIC     ATOMS    <user>   **** ""
3 28 29 30
ATOM$RED        STATIC     ATOMS    COLORGROUP SYSTEM
3 28 29 30
@<TRIPOS>COMMENT
> <Gold.Version>
2022.2.0

> <Gold.Id.Protein>
3pbl|protein|mol2

> <Gold.Protein.RotatedTorsions>
[ 1303 1298 1297 1294 ] final   72.95 input  179.99 | X-H torsion
[ 2461 2456 2455 2452 ] final -111.14 input   30.03 | X-H torsion
[ 2515 2510 2509 2506 ] final  -51.14 input  -89.99 | X-H torsion
[ 3721 3712 3711 3710 ] final  -40.99 input -179.91 | X-H torsion
[ 3841 3832 3831 3830 ] final  112.12 input -179.91 | X-H torsion
[ 3767 3762 3761 3758 ] final -123.93 input  -89.99 | X-H torsion
[ 2472 2467 2466 2463 ] final  158.59 input  -89.97 | X-H torsion

> <Gold.Protein.ActiveResidues>
 VAL82   VAL86   LEU89   PHE106  VAL107  ASP110  VAL111  MET112  CYS114  THR115 
 CYS181  SER182  ILE183  PHE188  VAL189  ILE190  SER192  SER193  SER196  TRP342 
 PHE345  PHE346  HIS349  VAL350  TYR365  THR369  GLY372  TYR373 

> <Gold.Protein.RotatedAtoms>
    4.1864  -10.2340    4.7437 H   0  0  0  0  0  0  0  0  0  0  0  0  # atno 1303 bound_to 1298
    0.4875   -9.1088    7.9569 H   0  0  0  0  0  0  0  0  0  0  0  0  # atno 2461 bound_to 2456
   -5.4863   -5.2921    8.7125 H   0  0  0  0  0  0  0  0  0  0  0  0  # atno 2472 bound_to 2467
    2.8031   -8.3578    4.3590 H   0  0  0  0  0  0  0  0  0  0  0  0  # atno 2515 bound_to 2510
   -2.6683  -17.5728   14.6756 H   0  0  0  0  0  0  0  0  0  0  0  0  # atno 3721 bound_to 3712
   -4.7942  -21.9886   11.5476 H   0  0  0  0  0  0  0  0  0  0  0  0  # atno 3767 bound_to 3762
    3.0359  -20.7913    9.0268 H   0  0  0  0  0  0  0  0  0  0  0  0  # atno 3841 bound_to 3832
    3.4050   -9.1669    3.7860 LP  0  0  0  0  0  0  0  0  0  0  0  0  # atno 4297 bound_to 1298
    4.7708   -8.7201    4.5617 LP  0  0  0  0  0  0  0  0  0  0  0  0  # atno 4298 bound_to 1298
    2.0691   -8.7507    8.1512 LP  0  0  0  0  0  0  0  0  0  0  0  0  # atno 4299 bound_to 2456
    1.1810   -7.9488    7.0400 LP  0  0  0  0  0  0  0  0  0  0  0  0  # atno 4300 bound_to 2456
    2.3847   -9.1212    5.7403 LP  0  0  0  0  0  0  0  0  0  0  0  0  # atno 4301 bound_to 2510
    2.1087   -7.5201    5.5763 LP  0  0  0  0  0  0  0  0  0  0  0  0  # atno 4302 bound_to 2510
   -3.5674  -16.5651   13.8072 LP  0  0  0  0  0  0  0  0  0  0  0  0  # atno 4306 bound_to 3712
   -2.8796  -17.8732   13.1126 LP  0  0  0  0  0  0  0  0  0  0  0  0  # atno 4307 bound_to 3712
    1.5037  -20.5169    9.4182 LP  0  0  0  0  0  0  0  0  0  0  0  0  # atno 4314 bound_to 3832
    2.2188  -19.6712    8.2182 LP  0  0  0  0  0  0  0  0  0  0  0  0  # atno 4315 bound_to 3832
   -3.9759  -23.2176   10.8498 LP  0  0  0  0  0  0  0  0  0  0  0  0  # atno 4318 bound_to 3762
   -5.3573  -22.6686   10.1739 LP  0  0  0  0  0  0  0  0  0  0  0  0  # atno 4319 bound_to 3762
   -4.2970   -4.7986    7.7083 LP  0  0  0  0  0  0  0  0  0  0  0  0  # atno 4320 bound_to 2467
   -3.9338   -5.3029    9.2184 LP  0  0  0  0  0  0  0  0  0  0  0  0  # atno 4321 bound_to 2467

> <Gold.Score>
     Score     S(PLP)   S(hbond)     S(cho)   S(metal)  DE(clash)   DE(tors)     intcor
     39.12     -34.40       2.00       0.00       0.00       0.00       0.64       0.01

> <Gold.PLP.Fitness>
39.1189

> <Gold.PLP.PLP>
-34.3978

> <Gold.PLP.part.hbond>
-1.3361

> <Gold.PLP.part.metal>
0.0000

> <Gold.PLP.part.buried>
-3.9282

> <Gold.PLP.part.nonpolar>
-30.1195

> <Gold.PLP.part.repulsive>
0.0112

> <Gold.PLP.ligand.clash>
0.0000

> <Gold.PLP.ligand.torsion>
0.6428

> <Gold.PLP.Chemscore.Hbond>
2.0000

> <Gold.PLP.Chemscore.CHOScore>
0.0000

> <Gold.PLP.Chemscore.Metal>
0.0000

> <Gold.Chemscore.Hbonds>
donor molecule, donor type, donor heavy atom, donor atom, acceptor molecule, acceptor atom, score
      L1  H     2    29       P1  1227  2.00

> <Gold.PLP.Chemscore.Internal.Correction>
0.0067

