#       Name:                EN300-4934512_i002
#       Creating user name   fsindt
#       Creation time:       Tue Feb 28 15:36:54 2023


#       File generated by GOLD software.
#

@<TRIPOS>MOLECULE
EN300-4934512_i002|amine_1|mol2|5053|dock3
    30    29     1
SMALL
USER_CHARGES


@<TRIPOS>ATOM
      1 C1          -0.9771 -18.0091   8.7001 C.3            1 <1>                0.0000
      2 N2           0.0180 -18.7864   9.4508 N.4            1 <1>                1.0000
      3 C3          -0.4201 -18.9253  10.8461 C.3            1 <1>                0.0000
      4 C4          -0.1617 -17.6163  11.5946 C.3            1 <1>                0.0000
      5 C5           0.8894 -17.8492  12.6816 C.3            1 <1>                0.0000
      6 O6           2.0562 -18.4331  12.0986 O.3            1 <1>                0.0000
      7 C7           1.2575 -16.5131  13.3299 C.3            1 <1>                0.0000
      8 C8           1.9368 -15.6140  12.2949 C.3            1 <1>                0.0000
      9 C9          -0.0108 -15.8296  13.8451 C.3            1 <1>                0.0000
     10 C10          2.2145 -16.7594  14.4979 C.3            1 <1>                0.0000
     11 H11         -0.6520 -17.9061   7.6648 H              1 <1>                0.0000
     12 H12         -1.9377 -18.5234   8.7298 H              1 <1>                0.0000
     13 H13         -1.0799 -17.0210   9.1487 H              1 <1>                0.0000
     14 H14         -1.4855 -19.1540  10.8712 H              1 <1>                0.0000
     15 H15          0.1361 -19.7324  11.3228 H              1 <1>                0.0000
     16 H16          0.2000 -16.8629  10.8949 H              1 <1>                0.0000
     17 H17         -1.0883 -17.2710  12.0532 H              1 <1>                0.0000
     18 H18          0.4863 -18.5217  13.4388 H              1 <1>                0.0000
     19 H19          1.2549 -15.4386  11.4628 H              1 <1>                0.0000
     20 H20          2.1990 -14.6621  12.7567 H              1 <1>                0.0000
     21 H21          2.8402 -16.1009  11.9278 H              1 <1>                0.0000
     22 H22         -0.4947 -16.4701  14.5824 H              1 <1>                0.0000
     23 H23          0.2514 -14.8778  14.3068 H              1 <1>                0.0000
     24 H24         -0.6926 -15.6541  13.0129 H              1 <1>                0.0000
     25 H25          3.1180 -17.2463  14.1309 H              1 <1>                0.0000
     26 H26          2.4767 -15.8075  14.9597 H              1 <1>                0.0000
     27 H27          1.7306 -17.3999  15.2353 H              1 <1>                0.0000
     28 H28          0.1133 -19.7012   9.0356 H              1 <1>                0.0000
     29 H29          0.9072 -18.3104   9.4233 H              1 <1>                0.0000
     30 H30          2.1662 -18.2368  11.1581 H              1 <1>                0.0000
@<TRIPOS>BOND
    1    1    2 1     
    2    1   11 1     
    3    1   12 1     
    4    1   13 1     
    5    2    3 1     
    6    2   28 1     
    7    2   29 1     
    8    3    4 1     
    9    3   14 1     
   10    3   15 1     
   11    4    5 1     
   12    4   16 1     
   13    4   17 1     
   14    5    6 1     
   15    5    7 1     
   16    5   18 1     
   17    6   30 1     
   18    7    8 1     
   19    7    9 1     
   20    7   10 1     
   21    8   19 1     
   22    8   20 1     
   23    8   21 1     
   24    9   22 1     
   25    9   23 1     
   26    9   24 1     
   27   10   25 1     
   28   10   26 1     
   29   10   27 1     
@<TRIPOS>SUBSTRUCTURE
      1 ****           1
@<TRIPOS>SET
DONOR_HYDROGENS      STATIC     ATOMS    <user>   **** ""
3 28 29 30
ATOM$RED        STATIC     ATOMS    COLORGROUP SYSTEM
3 28 29 30
@<TRIPOS>COMMENT
> <Gold.Version>
2022.2.0

> <Gold.Id.Protein>
3pbl|protein|mol2

> <Gold.Protein.RotatedTorsions>
[ 1303 1298 1297 1294 ] final  -52.04 input  179.99 | X-H torsion
[ 2461 2456 2455 2452 ] final   65.04 input   30.03 | X-H torsion
[ 2515 2510 2509 2506 ] final   72.43 input  -89.99 | X-H torsion
[ 3721 3712 3711 3710 ] final  -86.00 input -179.91 | X-H torsion
[ 3841 3832 3831 3830 ] final   54.44 input -179.91 | X-H torsion
[ 3767 3762 3761 3758 ] final  -10.12 input  -89.99 | X-H torsion
[ 2472 2467 2466 2463 ] final  138.50 input  -89.97 | X-H torsion

> <Gold.Protein.ActiveResidues>
 VAL82   VAL86   LEU89   PHE106  VAL107  ASP110  VAL111  MET112  CYS114  THR115 
 CYS181  SER182  ILE183  PHE188  VAL189  ILE190  SER192  SER193  SER196  TRP342 
 PHE345  PHE346  HIS349  VAL350  TYR365  THR369  GLY372  TYR373 

> <Gold.Protein.RotatedAtoms>
    3.4369   -9.0917    3.7796 H   0  0  0  0  0  0  0  0  0  0  0  0  # atno 1303 bound_to 1298
    1.9684   -8.0668    7.4329 H   0  0  0  0  0  0  0  0  0  0  0  0  # atno 2461 bound_to 2456
   -5.5027   -5.1824    8.4029 H   0  0  0  0  0  0  0  0  0  0  0  0  # atno 2472 bound_to 2467
    2.0946   -7.5494    5.6252 H   0  0  0  0  0  0  0  0  0  0  0  0  # atno 2515 bound_to 2510
   -2.9955  -16.9969   14.7073 H   0  0  0  0  0  0  0  0  0  0  0  0  # atno 3721 bound_to 3712
   -5.4042  -22.5915   10.2207 H   0  0  0  0  0  0  0  0  0  0  0  0  # atno 3767 bound_to 3762
    2.3950  -20.9268    9.5449 H   0  0  0  0  0  0  0  0  0  0  0  0  # atno 3841 bound_to 3832
    4.8076   -8.7762    4.6091 LP  0  0  0  0  0  0  0  0  0  0  0  0  # atno 4297 bound_to 1298
    4.1180  -10.2535    4.7031 LP  0  0  0  0  0  0  0  0  0  0  0  0  # atno 4298 bound_to 1298
    0.3979   -8.4998    7.3172 LP  0  0  0  0  0  0  0  0  0  0  0  0  # atno 4299 bound_to 2456
    1.3717   -9.2415    8.3980 LP  0  0  0  0  0  0  0  0  0  0  0  0  # atno 4300 bound_to 2456
    2.7924   -8.3003    4.3544 LP  0  0  0  0  0  0  0  0  0  0  0  0  # atno 4301 bound_to 2510
    2.4099   -9.1498    5.6955 LP  0  0  0  0  0  0  0  0  0  0  0  0  # atno 4302 bound_to 2510
   -3.4351  -16.8954   13.1664 LP  0  0  0  0  0  0  0  0  0  0  0  0  # atno 4306 bound_to 3712
   -2.6342  -18.2077   13.7168 LP  0  0  0  0  0  0  0  0  0  0  0  0  # atno 4307 bound_to 3712
    1.4913  -19.8251    8.8063 LP  0  0  0  0  0  0  0  0  0  0  0  0  # atno 4314 bound_to 3832
    2.9714  -20.2066    8.2315 LP  0  0  0  0  0  0  0  0  0  0  0  0  # atno 4315 bound_to 3832
   -4.7081  -22.0271   11.5859 LP  0  0  0  0  0  0  0  0  0  0  0  0  # atno 4318 bound_to 3762
   -4.0153  -23.2565   10.7642 LP  0  0  0  0  0  0  0  0  0  0  0  0  # atno 4319 bound_to 3762
   -4.0058   -4.8211    7.8595 LP  0  0  0  0  0  0  0  0  0  0  0  0  # atno 4320 bound_to 2467
   -4.2085   -5.3901    9.3767 LP  0  0  0  0  0  0  0  0  0  0  0  0  # atno 4321 bound_to 2467

> <Gold.Score>
     Score     S(PLP)   S(hbond)     S(cho)   S(metal)  DE(clash)   DE(tors)     intcor
     42.19     -33.81       3.12       0.00       0.00       0.00       0.49       0.01

> <Gold.PLP.Fitness>
42.1936

> <Gold.PLP.PLP>
-33.8090

> <Gold.PLP.part.hbond>
-3.0000

> <Gold.PLP.part.metal>
0.0000

> <Gold.PLP.part.buried>
-4.0879

> <Gold.PLP.part.nonpolar>
-27.6285

> <Gold.PLP.part.repulsive>
0.0000

> <Gold.PLP.ligand.clash>
0.0000

> <Gold.PLP.ligand.torsion>
0.4937

> <Gold.PLP.Chemscore.Hbond>
3.1217

> <Gold.PLP.Chemscore.CHOScore>
0.0000

> <Gold.PLP.Chemscore.Metal>
0.0000

> <Gold.Chemscore.Hbonds>
donor molecule, donor type, donor heavy atom, donor atom, acceptor molecule, acceptor atom, score
      L1  H     2    28       P1  3832  0.12
      L1  H     2    29       P1  1227  2.00
      L1  H     6    30       P1  1227  1.00

> <Gold.PLP.Chemscore.Internal.Correction>
0.0068

