#       Name:                EN300-4934512_i002
#       Creating user name   fsindt
#       Creation time:       Tue Feb 28 15:37:10 2023


#       File generated by GOLD software.
#

@<TRIPOS>MOLECULE
EN300-4934512_i002|amine_1|mol2|5053|dock19
    30    29     1
SMALL
USER_CHARGES


@<TRIPOS>ATOM
      1 C1           0.8080 -15.5745   7.2007 C.3            1 <1>                0.0000
      2 N2           0.1087 -14.3948   6.6742 N.4            1 <1>                1.0000
      3 C3           0.4798 -13.2127   7.4634 C.3            1 <1>                0.0000
      4 C4          -0.4854 -13.0621   8.6410 C.3            1 <1>                0.0000
      5 C5          -0.2137 -11.7376   9.3568 C.3            1 <1>                0.0000
      6 O6          -0.2479 -10.6683   8.4094 O.3            1 <1>                0.0000
      7 C7          -1.2842 -11.5064  10.4254 C.3            1 <1>                0.0000
      8 C8          -2.6534 -11.3750   9.7554 C.3            1 <1>                0.0000
      9 C9          -1.3019 -12.6906  11.3941 C.3            1 <1>                0.0000
     10 C10         -0.9677 -10.2225  11.1950 C.3            1 <1>                0.0000
     11 H11          0.5327 -16.4516   6.6150 H              1 <1>                0.0000
     12 H12          1.8848 -15.4177   7.1359 H              1 <1>                0.0000
     13 H13          0.5255 -15.7296   8.2420 H              1 <1>                0.0000
     14 H14          1.4959 -13.3313   7.8395 H              1 <1>                0.0000
     15 H15          0.4266 -12.3244   6.8341 H              1 <1>                0.0000
     16 H16         -1.5115 -13.0728   8.2734 H              1 <1>                0.0000
     17 H17         -0.3404 -13.8880   9.3375 H              1 <1>                0.0000
     18 H18          0.7683 -11.7740   9.8282 H              1 <1>                0.0000
     19 H19         -2.8789 -12.2896   9.2071 H              1 <1>                0.0000
     20 H20         -3.4161 -11.2103  10.5166 H              1 <1>                0.0000
     21 H21         -2.6408 -10.5314   9.0653 H              1 <1>                0.0000
     22 H22         -0.3265 -12.7842  11.8713 H              1 <1>                0.0000
     23 H23         -2.0646 -12.5259  12.1552 H              1 <1>                0.0000
     24 H24         -1.5275 -13.6052  10.8457 H              1 <1>                0.0000
     25 H25         -0.9550  -9.3790  10.5049 H              1 <1>                0.0000
     26 H26         -1.7303 -10.0579  11.9562 H              1 <1>                0.0000
     27 H27          0.0078 -10.3162  11.6723 H              1 <1>                0.0000
     28 H28          0.3701 -14.2512   5.7102 H              1 <1>                0.0000
     29 H29         -0.8880 -14.5400   6.7342 H              1 <1>                0.0000
     30 H30         -1.0205 -10.6825   7.8279 H              1 <1>                0.0000
@<TRIPOS>BOND
    1    1    2 1     
    2    1   11 1     
    3    1   12 1     
    4    1   13 1     
    5    2    3 1     
    6    2   28 1     
    7    2   29 1     
    8    3    4 1     
    9    3   14 1     
   10    3   15 1     
   11    4    5 1     
   12    4   16 1     
   13    4   17 1     
   14    5    6 1     
   15    5    7 1     
   16    5   18 1     
   17    6   30 1     
   18    7    8 1     
   19    7    9 1     
   20    7   10 1     
   21    8   19 1     
   22    8   20 1     
   23    8   21 1     
   24    9   22 1     
   25    9   23 1     
   26    9   24 1     
   27   10   25 1     
   28   10   26 1     
   29   10   27 1     
@<TRIPOS>SUBSTRUCTURE
      1 ****           1
@<TRIPOS>SET
DONOR_HYDROGENS      STATIC     ATOMS    <user>   **** ""
3 28 29 30
ATOM$RED        STATIC     ATOMS    COLORGROUP SYSTEM
3 28 29 30
@<TRIPOS>COMMENT
> <Gold.Version>
2022.2.0

> <Gold.Id.Protein>
3pbl|protein|mol2

> <Gold.Protein.RotatedTorsions>
[ 1303 1298 1297 1294 ] final -172.89 input  179.99 | X-H torsion
[ 2461 2456 2455 2452 ] final -108.75 input   30.03 | X-H torsion
[ 2515 2510 2509 2506 ] final -116.53 input  -89.99 | X-H torsion
[ 3721 3712 3711 3710 ] final -163.05 input -179.91 | X-H torsion
[ 3841 3832 3831 3830 ] final  116.67 input -179.91 | X-H torsion
[ 3767 3762 3761 3758 ] final  -67.51 input  -89.99 | X-H torsion
[ 2472 2467 2466 2463 ] final  -97.26 input  -89.97 | X-H torsion

> <Gold.Protein.ActiveResidues>
 VAL82   VAL86   LEU89   PHE106  VAL107  ASP110  VAL111  MET112  CYS114  THR115 
 CYS181  SER182  ILE183  PHE188  VAL189  ILE190  SER192  SER193  SER196  TRP342 
 PHE345  PHE346  HIS349  VAL350  TYR365  THR369  GLY372  TYR373 

> <Gold.Protein.RotatedAtoms>
    4.8129   -8.7862    4.6173 H   0  0  0  0  0  0  0  0  0  0  0  0  # atno 1303 bound_to 1298
    0.4668   -9.0891    7.9300 H   0  0  0  0  0  0  0  0  0  0  0  0  # atno 2461 bound_to 2456
   -4.1455   -5.3747    9.3510 H   0  0  0  0  0  0  0  0  0  0  0  0  # atno 2472 bound_to 2467
    2.7316   -9.1835    4.9505 H   0  0  0  0  0  0  0  0  0  0  0  0  # atno 2515 bound_to 2510
   -3.3388  -16.5398   13.7923 H   0  0  0  0  0  0  0  0  0  0  0  0  # atno 3721 bound_to 3712
   -5.4206  -22.0088   10.9137 H   0  0  0  0  0  0  0  0  0  0  0  0  # atno 3767 bound_to 3762
    3.0637  -20.7542    8.9763 H   0  0  0  0  0  0  0  0  0  0  0  0  # atno 3841 bound_to 3832
    4.1061  -10.2561    4.6959 LP  0  0  0  0  0  0  0  0  0  0  0  0  # atno 4297 bound_to 1298
    3.4429   -9.0792    3.7784 LP  0  0  0  0  0  0  0  0  0  0  0  0  # atno 4298 bound_to 1298
    2.0517   -8.7785    8.1729 LP  0  0  0  0  0  0  0  0  0  0  0  0  # atno 4299 bound_to 2456
    1.2190   -7.9407    7.0453 LP  0  0  0  0  0  0  0  0  0  0  0  0  # atno 4300 bound_to 2456
    2.0480   -8.2214    6.0788 LP  0  0  0  0  0  0  0  0  0  0  0  0  # atno 4301 bound_to 2510
    2.5171   -7.5938    4.6461 LP  0  0  0  0  0  0  0  0  0  0  0  0  # atno 4302 bound_to 2510
   -2.8425  -17.9303   13.1615 LP  0  0  0  0  0  0  0  0  0  0  0  0  # atno 4306 bound_to 3712
   -2.8304  -17.7006   14.7782 LP  0  0  0  0  0  0  0  0  0  0  0  0  # atno 4307 bound_to 3712
    1.5401  -20.5761    9.4486 LP  0  0  0  0  0  0  0  0  0  0  0  0  # atno 4314 bound_to 3832
    2.1502  -19.6550    8.2461 LP  0  0  0  0  0  0  0  0  0  0  0  0  # atno 4315 bound_to 3832
   -4.0330  -22.6260   11.5140 LP  0  0  0  0  0  0  0  0  0  0  0  0  # atno 4318 bound_to 3762
   -4.6740  -23.2401   10.1434 LP  0  0  0  0  0  0  0  0  0  0  0  0  # atno 4319 bound_to 3762
   -5.5089   -5.2058    8.4683 LP  0  0  0  0  0  0  0  0  0  0  0  0  # atno 4320 bound_to 2467
   -4.0625   -4.8130    7.8200 LP  0  0  0  0  0  0  0  0  0  0  0  0  # atno 4321 bound_to 2467

> <Gold.Score>
     Score     S(PLP)   S(hbond)     S(cho)   S(metal)  DE(clash)   DE(tors)     intcor
     39.80     -37.27       1.00       0.00       0.00       0.00       0.24       0.00

> <Gold.PLP.Fitness>
39.7987

> <Gold.PLP.PLP>
-37.2677

> <Gold.PLP.part.hbond>
-1.0000

> <Gold.PLP.part.metal>
0.0000

> <Gold.PLP.part.buried>
-3.8933

> <Gold.PLP.part.nonpolar>
-32.8173

> <Gold.PLP.part.repulsive>
0.0000

> <Gold.PLP.ligand.clash>
0.0000

> <Gold.PLP.ligand.torsion>
0.2364

> <Gold.PLP.Chemscore.Hbond>
1.0000

> <Gold.PLP.Chemscore.CHOScore>
0.0000

> <Gold.PLP.Chemscore.Metal>
0.0000

> <Gold.Chemscore.Hbonds>
donor molecule, donor type, donor heavy atom, donor atom, acceptor molecule, acceptor atom, score
      P1  H  2456  2461       L1     6  1.00

> <Gold.PLP.Chemscore.Internal.Correction>
0.0037

