#       Name:                EN300-4934512_i002
#       Creating user name   fsindt
#       Creation time:       Tue Feb 28 15:36:58 2023


#       File generated by GOLD software.
#

@<TRIPOS>MOLECULE
EN300-4934512_i002|amine_1|mol2|5053|dock7
    30    29     1
SMALL
USER_CHARGES


@<TRIPOS>ATOM
      1 C1          -4.2909 -10.2557  10.2856 C.3            1 <1>                0.0000
      2 N2          -3.4388 -11.2403   9.6057 N.4            1 <1>                1.0000
      3 C3          -2.0607 -11.1196  10.1000 C.3            1 <1>                0.0000
      4 C4          -1.2354 -12.3092   9.6054 C.3            1 <1>                0.0000
      5 C5          -0.3477 -11.8653   8.4412 C.3            1 <1>                0.0000
      6 O6           0.5645 -10.8624   8.8932 O.3            1 <1>                0.0000
      7 C7           0.4373 -13.0670   7.9113 C.3            1 <1>                0.0000
      8 C8           1.3997 -12.6043   6.8155 C.3            1 <1>                0.0000
      9 C9           1.2326 -13.7009   9.0543 C.3            1 <1>                0.0000
     10 C10         -0.5355 -14.0972   7.3339 C.3            1 <1>                0.0000
     11 H11         -5.3135 -10.3453   9.9189 H              1 <1>                0.0000
     12 H12         -4.2728 -10.4396  11.3598 H              1 <1>                0.0000
     13 H13         -3.9188  -9.2515  10.0826 H              1 <1>                0.0000
     14 H14         -1.6216 -10.1935   9.7291 H              1 <1>                0.0000
     15 H15         -2.0654 -11.1086  11.1899 H              1 <1>                0.0000
     16 H16         -0.6107 -12.6808  10.4177 H              1 <1>                0.0000
     17 H17         -1.9048 -13.1016   9.2704 H              1 <1>                0.0000
     18 H18         -0.9700 -11.4578   7.6445 H              1 <1>                0.0000
     19 H19          2.0927 -11.8703   7.2269 H              1 <1>                0.0000
     20 H20          1.9590 -13.4604   6.4379 H              1 <1>                0.0000
     21 H21          0.8332 -12.1526   6.0013 H              1 <1>                0.0000
     22 H22          0.5469 -14.0305   9.8348 H              1 <1>                0.0000
     23 H23          1.7918 -14.5569   8.6767 H              1 <1>                0.0000
     24 H24          1.9256 -12.9670   9.4656 H              1 <1>                0.0000
     25 H25         -1.1020 -13.6455   6.5197 H              1 <1>                0.0000
     26 H26          0.0238 -14.9532   6.9563 H              1 <1>                0.0000
     27 H27         -1.2212 -14.4267   8.1145 H              1 <1>                0.0000
     28 H28         -3.7833 -12.1700   9.7935 H              1 <1>                0.0000
     29 H29         -3.4556 -11.0700   8.6113 H              1 <1>                0.0000
     30 H30          0.5870 -10.0717   8.3369 H              1 <1>                0.0000
@<TRIPOS>BOND
    1    1    2 1     
    2    1   11 1     
    3    1   12 1     
    4    1   13 1     
    5    2    3 1     
    6    2   28 1     
    7    2   29 1     
    8    3    4 1     
    9    3   14 1     
   10    3   15 1     
   11    4    5 1     
   12    4   16 1     
   13    4   17 1     
   14    5    6 1     
   15    5    7 1     
   16    5   18 1     
   17    6   30 1     
   18    7    8 1     
   19    7    9 1     
   20    7   10 1     
   21    8   19 1     
   22    8   20 1     
   23    8   21 1     
   24    9   22 1     
   25    9   23 1     
   26    9   24 1     
   27   10   25 1     
   28   10   26 1     
   29   10   27 1     
@<TRIPOS>SUBSTRUCTURE
      1 ****           1
@<TRIPOS>SET
DONOR_HYDROGENS      STATIC     ATOMS    <user>   **** ""
3 28 29 30
ATOM$RED        STATIC     ATOMS    COLORGROUP SYSTEM
3 28 29 30
@<TRIPOS>COMMENT
> <Gold.Version>
2022.2.0

> <Gold.Id.Protein>
3pbl|protein|mol2

> <Gold.Protein.RotatedTorsions>
[ 1303 1298 1297 1294 ] final  -94.75 input  179.99 | X-H torsion
[ 2461 2456 2455 2452 ] final  -27.52 input   30.03 | X-H torsion
[ 2515 2510 2509 2506 ] final -141.92 input  -89.99 | X-H torsion
[ 3721 3712 3711 3710 ] final   54.77 input -179.91 | X-H torsion
[ 3841 3832 3831 3830 ] final -124.79 input -179.91 | X-H torsion
[ 3767 3762 3761 3758 ] final  -54.16 input  -89.99 | X-H torsion
[ 2472 2467 2466 2463 ] final  123.47 input  -89.97 | X-H torsion

> <Gold.Protein.ActiveResidues>
 VAL82   VAL86   LEU89   PHE106  VAL107  ASP110  VAL111  MET112  CYS114  THR115 
 CYS181  SER182  ILE183  PHE188  VAL189  ILE190  SER192  SER193  SER196  TRP342 
 PHE345  PHE346  HIS349  VAL350  TYR365  THR369  GLY372  TYR373 

> <Gold.Protein.RotatedAtoms>
    3.8883   -8.5881    3.8979 H   0  0  0  0  0  0  0  0  0  0  0  0  # atno 1303 bound_to 1298
    0.6519   -8.1987    7.1051 H   0  0  0  0  0  0  0  0  0  0  0  0  # atno 2461 bound_to 2456
   -5.4406   -5.0954    8.1807 H   0  0  0  0  0  0  0  0  0  0  0  0  # atno 2472 bound_to 2467
    2.5866   -9.2567    5.3316 H   0  0  0  0  0  0  0  0  0  0  0  0  # atno 2515 bound_to 2510
   -2.5651  -17.9432   13.4495 H   0  0  0  0  0  0  0  0  0  0  0  0  # atno 3721 bound_to 3712
   -5.4868  -22.1073   10.7295 H   0  0  0  0  0  0  0  0  0  0  0  0  # atno 3767 bound_to 3762
    2.2891  -19.6073    8.4291 H   0  0  0  0  0  0  0  0  0  0  0  0  # atno 3841 bound_to 3832
    4.8921   -9.3897    4.9059 LP  0  0  0  0  0  0  0  0  0  0  0  0  # atno 4297 bound_to 1298
    3.5820  -10.1438    4.2881 LP  0  0  0  0  0  0  0  0  0  0  0  0  # atno 4298 bound_to 1298
    0.9397   -9.2847    8.2904 LP  0  0  0  0  0  0  0  0  0  0  0  0  # atno 4299 bound_to 2456
    2.1460   -8.3246    7.7524 LP  0  0  0  0  0  0  0  0  0  0  0  0  # atno 4300 bound_to 2456
    2.0320   -7.8386    5.9210 LP  0  0  0  0  0  0  0  0  0  0  0  0  # atno 4301 bound_to 2510
    2.6781   -7.9034    4.4227 LP  0  0  0  0  0  0  0  0  0  0  0  0  # atno 4302 bound_to 2510
   -3.0272  -17.3436   14.8654 LP  0  0  0  0  0  0  0  0  0  0  0  0  # atno 4306 bound_to 3712
   -3.5390  -16.6669   13.4700 LP  0  0  0  0  0  0  0  0  0  0  0  0  # atno 4307 bound_to 3712
    3.0319  -20.9604    8.8689 LP  0  0  0  0  0  0  0  0  0  0  0  0  # atno 4314 bound_to 3832
    1.5532  -20.5955    9.4578 LP  0  0  0  0  0  0  0  0  0  0  0  0  # atno 4315 bound_to 3832
   -4.1508  -22.4620   11.5990 LP  0  0  0  0  0  0  0  0  0  0  0  0  # atno 4318 bound_to 3762
   -4.4900  -23.3056   10.2426 LP  0  0  0  0  0  0  0  0  0  0  0  0  # atno 4319 bound_to 3762
   -3.8314   -4.8629    8.0288 LP  0  0  0  0  0  0  0  0  0  0  0  0  # atno 4320 bound_to 2467
   -4.4451   -5.4352    9.4296 LP  0  0  0  0  0  0  0  0  0  0  0  0  # atno 4321 bound_to 2467

> <Gold.Score>
     Score     S(PLP)   S(hbond)     S(cho)   S(metal)  DE(clash)   DE(tors)     intcor
     42.11     -39.83       1.00       0.00       0.00       0.00       0.36       0.01

> <Gold.PLP.Fitness>
42.1129

> <Gold.PLP.PLP>
-39.8323

> <Gold.PLP.part.hbond>
-1.0000

> <Gold.PLP.part.metal>
0.0000

> <Gold.PLP.part.buried>
-4.6164

> <Gold.PLP.part.nonpolar>
-34.8027

> <Gold.PLP.part.repulsive>
0.0000

> <Gold.PLP.ligand.clash>
0.0000

> <Gold.PLP.ligand.torsion>
0.3630

> <Gold.PLP.Chemscore.Hbond>
1.0000

> <Gold.PLP.Chemscore.CHOScore>
0.0000

> <Gold.PLP.Chemscore.Metal>
0.0000

> <Gold.Chemscore.Hbonds>
donor molecule, donor type, donor heavy atom, donor atom, acceptor molecule, acceptor atom, score
      L1  H     6    30       P1  2456  1.00

> <Gold.PLP.Chemscore.Internal.Correction>
0.0067

