#       Name:                EN300-4934512_i002
#       Creating user name   fsindt
#       Creation time:       Tue Feb 28 15:36:56 2023


#       File generated by GOLD software.
#

@<TRIPOS>MOLECULE
EN300-4934512_i002|amine_1|mol2|5053|dock5
    30    29     1
SMALL
USER_CHARGES


@<TRIPOS>ATOM
      1 C1          -0.4746 -18.8928  10.9909 C.3            1 <1>                0.0000
      2 N2           0.1982 -18.5959   9.7193 N.4            1 <1>                1.0000
      3 C3          -0.7432 -17.9266   8.8117 C.3            1 <1>                0.0000
      4 C4          -0.0323 -16.7753   8.0976 C.3            1 <1>                0.0000
      5 C5          -0.0995 -15.5175   8.9660 C.3            1 <1>                0.0000
      6 O6           0.8375 -15.6288  10.0392 O.3            1 <1>                0.0000
      7 C7           0.2420 -14.2920   8.1159 C.3            1 <1>                0.0000
      8 C8           0.0720 -13.0249   8.9565 C.3            1 <1>                0.0000
      9 C9           1.6905 -14.3935   7.6336 C.3            1 <1>                0.0000
     10 C10         -0.6949 -14.2321   6.9079 C.3            1 <1>                0.0000
     11 H11          0.2240 -19.3894  11.6644 H              1 <1>                0.0000
     12 H12         -0.8191 -17.9638  11.4453 H              1 <1>                0.0000
     13 H13         -1.3279 -19.5455  10.8067 H              1 <1>                0.0000
     14 H14         -1.1075 -18.6418   8.0742 H              1 <1>                0.0000
     15 H15         -1.5839 -17.5352   9.3844 H              1 <1>                0.0000
     16 H16          1.0103 -17.0429   7.9257 H              1 <1>                0.0000
     17 H17         -0.5204 -16.5837   7.1420 H              1 <1>                0.0000
     18 H18         -1.1054 -15.4094   9.3717 H              1 <1>                0.0000
     19 H19          0.7395 -13.0677   9.8172 H              1 <1>                0.0000
     20 H20          0.3154 -12.1518   8.3510 H              1 <1>                0.0000
     21 H21         -0.9598 -12.9526   9.3002 H              1 <1>                0.0000
     22 H22          1.8116 -15.2962   7.0348 H              1 <1>                0.0000
     23 H23          1.9338 -13.5205   7.0281 H              1 <1>                0.0000
     24 H24          2.3579 -14.4362   8.4943 H              1 <1>                0.0000
     25 H25         -1.7267 -14.1597   7.2515 H              1 <1>                0.0000
     26 H26         -0.4515 -13.3589   6.3023 H              1 <1>                0.0000
     27 H27         -0.5738 -15.1348   6.3090 H              1 <1>                0.0000
     28 H28          0.9883 -17.9917   9.8897 H              1 <1>                0.0000
     29 H29          0.5172 -19.4559   9.2987 H              1 <1>                0.0000
     30 H30          1.3351 -16.4581  10.0424 H              1 <1>                0.0000
@<TRIPOS>BOND
    1    1    2 1     
    2    1   11 1     
    3    1   12 1     
    4    1   13 1     
    5    2    3 1     
    6    2   28 1     
    7    2   29 1     
    8    3    4 1     
    9    3   14 1     
   10    3   15 1     
   11    4    5 1     
   12    4   16 1     
   13    4   17 1     
   14    5    6 1     
   15    5    7 1     
   16    5   18 1     
   17    6   30 1     
   18    7    8 1     
   19    7    9 1     
   20    7   10 1     
   21    8   19 1     
   22    8   20 1     
   23    8   21 1     
   24    9   22 1     
   25    9   23 1     
   26    9   24 1     
   27   10   25 1     
   28   10   26 1     
   29   10   27 1     
@<TRIPOS>SUBSTRUCTURE
      1 ****           1
@<TRIPOS>SET
DONOR_HYDROGENS      STATIC     ATOMS    <user>   **** ""
3 28 29 30
ATOM$RED        STATIC     ATOMS    COLORGROUP SYSTEM
3 28 29 30
@<TRIPOS>COMMENT
> <Gold.Version>
2022.2.0

> <Gold.Id.Protein>
3pbl|protein|mol2

> <Gold.Protein.RotatedTorsions>
[ 1303 1298 1297 1294 ] final   15.64 input  179.99 | X-H torsion
[ 2461 2456 2455 2452 ] final  152.53 input   30.03 | X-H torsion
[ 2515 2510 2509 2506 ] final   61.06 input  -89.99 | X-H torsion
[ 3721 3712 3711 3710 ] final  -20.09 input -179.91 | X-H torsion
[ 3841 3832 3831 3830 ] final  162.74 input -179.91 | X-H torsion
[ 3767 3762 3761 3758 ] final  -81.01 input  -89.99 | X-H torsion
[ 2472 2467 2466 2463 ] final  145.87 input  -89.97 | X-H torsion

> <Gold.Protein.ActiveResidues>
 VAL82   VAL86   LEU89   PHE106  VAL107  ASP110  VAL111  MET112  CYS114  THR115 
 CYS181  SER182  ILE183  PHE188  VAL189  ILE190  SER192  SER193  SER196  TRP342 
 PHE345  PHE346  HIS349  VAL350  TYR365  THR369  GLY372  TYR373 

> <Gold.Protein.RotatedAtoms>
    3.4927  -10.0554    4.1924 H   0  0  0  0  0  0  0  0  0  0  0  0  # atno 1303 bound_to 1298
    1.8394   -9.0072    8.3273 H   0  0  0  0  0  0  0  0  0  0  0  0  # atno 2461 bound_to 2456
   -5.5100   -5.2241    8.5164 H   0  0  0  0  0  0  0  0  0  0  0  0  # atno 2472 bound_to 2467
    2.1448   -7.4681    5.4647 H   0  0  0  0  0  0  0  0  0  0  0  0  # atno 2515 bound_to 2510
   -2.5537  -17.8012   14.4927 H   0  0  0  0  0  0  0  0  0  0  0  0  # atno 3721 bound_to 3712
   -5.3146  -21.9430   11.0969 H   0  0  0  0  0  0  0  0  0  0  0  0  # atno 3767 bound_to 3762
    3.0772  -20.2537    8.5199 H   0  0  0  0  0  0  0  0  0  0  0  0  # atno 3841 bound_to 3832
    4.0180   -8.5264    3.9634 LP  0  0  0  0  0  0  0  0  0  0  0  0  # atno 4297 bound_to 1298
    4.8517   -9.5392    4.9359 LP  0  0  0  0  0  0  0  0  0  0  0  0  # atno 4298 bound_to 1298
    1.5529   -7.9208    7.1419 LP  0  0  0  0  0  0  0  0  0  0  0  0  # atno 4299 bound_to 2456
    0.3457   -8.8803    7.6791 LP  0  0  0  0  0  0  0  0  0  0  0  0  # atno 4300 bound_to 2456
    2.8213   -8.4832    4.3795 LP  0  0  0  0  0  0  0  0  0  0  0  0  # atno 4301 bound_to 2510
    2.3308   -9.0483    5.8309 LP  0  0  0  0  0  0  0  0  0  0  0  0  # atno 4302 bound_to 2510
   -3.5315  -16.5740   14.1526 LP  0  0  0  0  0  0  0  0  0  0  0  0  # atno 4306 bound_to 3712
   -3.0478  -17.6005   12.9783 LP  0  0  0  0  0  0  0  0  0  0  0  0  # atno 4307 bound_to 3712
    2.1125  -21.0541    9.5222 LP  0  0  0  0  0  0  0  0  0  0  0  0  # atno 4314 bound_to 3832
    1.5622  -19.7551    8.6998 LP  0  0  0  0  0  0  0  0  0  0  0  0  # atno 4315 bound_to 3832
   -3.9510  -22.7918   11.3920 LP  0  0  0  0  0  0  0  0  0  0  0  0  # atno 4318 bound_to 3762
   -4.8620  -23.1400   10.0823 LP  0  0  0  0  0  0  0  0  0  0  0  0  # atno 4319 bound_to 3762
   -4.1064   -4.8082    7.7931 LP  0  0  0  0  0  0  0  0  0  0  0  0  # atno 4320 bound_to 2467
   -4.1007   -5.3613    9.3296 LP  0  0  0  0  0  0  0  0  0  0  0  0  # atno 4321 bound_to 2467

> <Gold.Score>
     Score     S(PLP)   S(hbond)     S(cho)   S(metal)  DE(clash)   DE(tors)     intcor
     43.41     -32.82       3.93       0.00       0.00       0.00       0.60       0.01

> <Gold.PLP.Fitness>
43.4061

> <Gold.PLP.PLP>
-32.8178

> <Gold.PLP.part.hbond>
-3.0000

> <Gold.PLP.part.metal>
0.0000

> <Gold.PLP.part.buried>
-1.1658

> <Gold.PLP.part.nonpolar>
-28.8994

> <Gold.PLP.part.repulsive>
0.0000

> <Gold.PLP.ligand.clash>
0.0000

> <Gold.PLP.ligand.torsion>
0.6012

> <Gold.PLP.Chemscore.Hbond>
3.9280

> <Gold.PLP.Chemscore.CHOScore>
0.0000

> <Gold.PLP.Chemscore.Metal>
0.0000

> <Gold.Chemscore.Hbonds>
donor molecule, donor type, donor heavy atom, donor atom, acceptor molecule, acceptor atom, score
      L1  H     2    28       P1  1227  1.98
      L1  H     2    29       P1  3832  0.94
      L1  H     6    30       P1  1227  1.00

> <Gold.PLP.Chemscore.Internal.Correction>
0.0067

