#       Name:                EN300-4934512_i002
#       Creating user name   fsindt
#       Creation time:       Tue Feb 28 15:36:57 2023


#       File generated by GOLD software.
#

@<TRIPOS>MOLECULE
EN300-4934512_i002|amine_1|mol2|5053|dock6
    30    29     1
SMALL
USER_CHARGES


@<TRIPOS>ATOM
      1 C1           1.9307 -16.2093  12.8835 C.3            1 <1>                0.0000
      2 N2           1.2070 -16.0023  11.6221 N.4            1 <1>                1.0000
      3 C3           1.5874 -14.7055  11.0462 C.3            1 <1>                0.0000
      4 C4           0.5971 -14.3271   9.9431 C.3            1 <1>                0.0000
      5 C5           1.3664 -13.8787   8.6990 C.3            1 <1>                0.0000
      6 O6           1.9313 -15.0203   8.0511 O.3            1 <1>                0.0000
      7 C7           0.4118 -13.1673   7.7379 C.3            1 <1>                0.0000
      8 C8           1.2079 -12.5774   6.5721 C.3            1 <1>                0.0000
      9 C9          -0.6120 -14.1696   7.2009 C.3            1 <1>                0.0000
     10 C10         -0.3150 -12.0436   8.4795 C.3            1 <1>                0.0000
     11 H11          1.6485 -17.1716  13.3107 H              1 <1>                0.0000
     12 H12          3.0039 -16.1971  12.6930 H              1 <1>                0.0000
     13 H13          1.6768 -15.4127  13.5829 H              1 <1>                0.0000
     14 H14          1.5719 -13.9435  11.8254 H              1 <1>                0.0000
     15 H15          2.5906 -14.7750  10.6258 H              1 <1>                0.0000
     16 H16         -0.0202 -15.1910   9.6969 H              1 <1>                0.0000
     17 H17         -0.0393 -13.5129  10.2899 H              1 <1>                0.0000
     18 H18          2.1636 -13.1954   8.9914 H              1 <1>                0.0000
     19 H19          1.7257 -13.3780   6.0438 H              1 <1>                0.0000
     20 H20          0.5279 -12.0706   5.8873 H              1 <1>                0.0000
     21 H21          1.9373 -11.8634   6.9545 H              1 <1>                0.0000
     22 H22         -1.1791 -14.5898   8.0315 H              1 <1>                0.0000
     23 H23         -1.2920 -13.6628   6.5162 H              1 <1>                0.0000
     24 H24         -0.0942 -14.9701   6.6726 H              1 <1>                0.0000
     25 H25          0.4144 -11.3296   8.8620 H              1 <1>                0.0000
     26 H26         -0.9950 -11.5368   7.7947 H              1 <1>                0.0000
     27 H27         -0.8821 -12.4639   9.3101 H              1 <1>                0.0000
     28 H28          1.4419 -16.7397  10.9746 H              1 <1>                0.0000
     29 H29          0.2135 -16.0136  11.7985 H              1 <1>                0.0000
     30 H30          2.0942 -15.7678   8.6427 H              1 <1>                0.0000
@<TRIPOS>BOND
    1    1    2 1     
    2    1   11 1     
    3    1   12 1     
    4    1   13 1     
    5    2    3 1     
    6    2   28 1     
    7    2   29 1     
    8    3    4 1     
    9    3   14 1     
   10    3   15 1     
   11    4    5 1     
   12    4   16 1     
   13    4   17 1     
   14    5    6 1     
   15    5    7 1     
   16    5   18 1     
   17    6   30 1     
   18    7    8 1     
   19    7    9 1     
   20    7   10 1     
   21    8   19 1     
   22    8   20 1     
   23    8   21 1     
   24    9   22 1     
   25    9   23 1     
   26    9   24 1     
   27   10   25 1     
   28   10   26 1     
   29   10   27 1     
@<TRIPOS>SUBSTRUCTURE
      1 ****           1
@<TRIPOS>SET
DONOR_HYDROGENS      STATIC     ATOMS    <user>   **** ""
3 28 29 30
ATOM$RED        STATIC     ATOMS    COLORGROUP SYSTEM
3 28 29 30
@<TRIPOS>COMMENT
> <Gold.Version>
2022.2.0

> <Gold.Id.Protein>
3pbl|protein|mol2

> <Gold.Protein.RotatedTorsions>
[ 1303 1298 1297 1294 ] final  -80.98 input  179.99 | X-H torsion
[ 2461 2456 2455 2452 ] final  110.21 input   30.03 | X-H torsion
[ 2515 2510 2509 2506 ] final  144.51 input  -89.99 | X-H torsion
[ 3721 3712 3711 3710 ] final   13.33 input -179.91 | X-H torsion
[ 3841 3832 3831 3830 ] final   78.95 input -179.91 | X-H torsion
[ 3767 3762 3761 3758 ] final -175.44 input  -89.99 | X-H torsion
[ 2472 2467 2466 2463 ] final   49.57 input  -89.97 | X-H torsion

> <Gold.Protein.ActiveResidues>
 VAL82   VAL86   LEU89   PHE106  VAL107  ASP110  VAL111  MET112  CYS114  THR115 
 CYS181  SER182  ILE183  PHE188  VAL189  ILE190  SER192  SER193  SER196  TRP342 
 PHE345  PHE346  HIS349  VAL350  TYR365  THR369  GLY372  TYR373 

> <Gold.Protein.RotatedAtoms>
    3.7149   -8.7143    3.8264 H   0  0  0  0  0  0  0  0  0  0  0  0  # atno 1303 bound_to 1298
    2.1541   -8.5287    7.9592 H   0  0  0  0  0  0  0  0  0  0  0  0  # atno 2461 bound_to 2456
   -4.4727   -4.8041    7.6678 H   0  0  0  0  0  0  0  0  0  0  0  0  # atno 2472 bound_to 2467
    2.1183   -8.5583    6.0847 H   0  0  0  0  0  0  0  0  0  0  0  0  # atno 2515 bound_to 2510
   -2.4704  -18.0153   14.0507 H   0  0  0  0  0  0  0  0  0  0  0  0  # atno 3721 bound_to 3712
   -4.1376  -22.4769   11.5923 H   0  0  0  0  0  0  0  0  0  0  0  0  # atno 3767 bound_to 3762
    2.7162  -20.9514    9.3680 H   0  0  0  0  0  0  0  0  0  0  0  0  # atno 3841 bound_to 3832
    4.9120   -9.1754    4.8366 LP  0  0  0  0  0  0  0  0  0  0  0  0  # atno 4297 bound_to 1298
    3.7354  -10.2318    4.4289 LP  0  0  0  0  0  0  0  0  0  0  0  0  # atno 4298 bound_to 1298
    0.8924   -8.0492    7.0397 LP  0  0  0  0  0  0  0  0  0  0  0  0  # atno 4299 bound_to 2456
    0.6915   -9.2302    8.1494 LP  0  0  0  0  0  0  0  0  0  0  0  0  # atno 4300 bound_to 2456
    2.3698   -7.4437    4.9184 LP  0  0  0  0  0  0  0  0  0  0  0  0  # atno 4301 bound_to 2510
    2.8088   -8.9971    4.6717 LP  0  0  0  0  0  0  0  0  0  0  0  0  # atno 4302 bound_to 2510
   -3.3576  -16.8049   14.6213 LP  0  0  0  0  0  0  0  0  0  0  0  0  # atno 4306 bound_to 3712
   -3.3180  -17.1225   13.0200 LP  0  0  0  0  0  0  0  0  0  0  0  0  # atno 4307 bound_to 3712
    1.3912  -20.0857    9.1017 LP  0  0  0  0  0  0  0  0  0  0  0  0  # atno 4314 bound_to 3832
    2.7005  -19.9176    8.1404 LP  0  0  0  0  0  0  0  0  0  0  0  0  # atno 4315 bound_to 3832
   -4.5071  -23.3010   10.2317 LP  0  0  0  0  0  0  0  0  0  0  0  0  # atno 4318 bound_to 3762
   -5.4825  -22.0971   10.7474 LP  0  0  0  0  0  0  0  0  0  0  0  0  # atno 4319 bound_to 3762
   -3.8145   -5.2455    9.0955 LP  0  0  0  0  0  0  0  0  0  0  0  0  # atno 4320 bound_to 2467
   -5.4297   -5.3439    8.8757 LP  0  0  0  0  0  0  0  0  0  0  0  0  # atno 4321 bound_to 2467

> <Gold.Score>
     Score     S(PLP)   S(hbond)     S(cho)   S(metal)  DE(clash)   DE(tors)     intcor
     41.62     -33.73       3.00       0.00       0.00       0.00       0.56       0.01

> <Gold.PLP.Fitness>
41.6247

> <Gold.PLP.PLP>
-33.7329

> <Gold.PLP.part.hbond>
-3.0000

> <Gold.PLP.part.metal>
0.0000

> <Gold.PLP.part.buried>
-3.0023

> <Gold.PLP.part.nonpolar>
-28.9209

> <Gold.PLP.part.repulsive>
0.0000

> <Gold.PLP.ligand.clash>
0.0000

> <Gold.PLP.ligand.torsion>
0.5575

> <Gold.PLP.Chemscore.Hbond>
3.0000

> <Gold.PLP.Chemscore.CHOScore>
0.0000

> <Gold.PLP.Chemscore.Metal>
0.0000

> <Gold.Chemscore.Hbonds>
donor molecule, donor type, donor heavy atom, donor atom, acceptor molecule, acceptor atom, score
      L1  H     2    28       P1  1227  2.00
      L1  H     6    30       P1  1227  1.00

> <Gold.PLP.Chemscore.Internal.Correction>
0.0067

