#       Name:                EN300-4934512_i002
#       Creating user name   fsindt
#       Creation time:       Tue Feb 28 15:37:07 2023


#       File generated by GOLD software.
#

@<TRIPOS>MOLECULE
EN300-4934512_i002|amine_1|mol2|5053|dock16
    30    29     1
SMALL
USER_CHARGES


@<TRIPOS>ATOM
      1 C1          -0.9596 -18.5989   8.3853 C.3            1 <1>                0.0000
      2 N2          -0.3667 -17.9320   9.5521 N.4            1 <1>                1.0000
      3 C3          -0.7086 -18.6796  10.7696 C.3            1 <1>                0.0000
      4 C4          -0.7524 -17.7211  11.9613 C.3            1 <1>                0.0000
      5 C5           0.6532 -17.1823  12.2344 C.3            1 <1>                0.0000
      6 O6           1.0443 -16.3111  11.1712 O.3            1 <1>                0.0000
      7 C7           0.6554 -16.4087  13.5545 C.3            1 <1>                0.0000
      8 C8          -0.1129 -15.0974  13.3783 C.3            1 <1>                0.0000
      9 C9          -0.0163 -17.2515  14.6406 C.3            1 <1>                0.0000
     10 C10          2.0975 -16.1037  13.9645 C.3            1 <1>                0.0000
     11 H11         -0.7059 -18.0442   7.4818 H              1 <1>                0.0000
     12 H12         -0.5697 -19.6140   8.3098 H              1 <1>                0.0000
     13 H13         -2.0432 -18.6333   8.4982 H              1 <1>                0.0000
     14 H14         -1.6841 -19.1496  10.6454 H              1 <1>                0.0000
     15 H15          0.0444 -19.4471  10.9481 H              1 <1>                0.0000
     16 H16         -1.4221 -16.8913  11.7358 H              1 <1>                0.0000
     17 H17         -1.1153 -18.2520  12.8414 H              1 <1>                0.0000
     18 H18          1.3549 -18.0138  12.2994 H              1 <1>                0.0000
     19 H19         -1.1403 -15.3147  13.0862 H              1 <1>                0.0000
     20 H20         -0.1114 -14.5462  14.3188 H              1 <1>                0.0000
     21 H21          0.3656 -14.4970  12.6046 H              1 <1>                0.0000
     22 H22          0.5310 -18.1856  14.7660 H              1 <1>                0.0000
     23 H23         -0.0148 -16.7003  15.5809 H              1 <1>                0.0000
     24 H24         -1.0437 -17.4687  14.3484 H              1 <1>                0.0000
     25 H25          2.5760 -15.5033  13.1908 H              1 <1>                0.0000
     26 H26          2.0990 -15.5525  14.9049 H              1 <1>                0.0000
     27 H27          2.6449 -17.0379  14.0899 H              1 <1>                0.0000
     28 H28          0.6364 -17.9000   9.4476 H              1 <1>                0.0000
     29 H29         -0.7276 -16.9923   9.6219 H              1 <1>                0.0000
     30 H30          1.8233 -16.6113  10.6831 H              1 <1>                0.0000
@<TRIPOS>BOND
    1    1    2 1     
    2    1   11 1     
    3    1   12 1     
    4    1   13 1     
    5    2    3 1     
    6    2   28 1     
    7    2   29 1     
    8    3    4 1     
    9    3   14 1     
   10    3   15 1     
   11    4    5 1     
   12    4   16 1     
   13    4   17 1     
   14    5    6 1     
   15    5    7 1     
   16    5   18 1     
   17    6   30 1     
   18    7    8 1     
   19    7    9 1     
   20    7   10 1     
   21    8   19 1     
   22    8   20 1     
   23    8   21 1     
   24    9   22 1     
   25    9   23 1     
   26    9   24 1     
   27   10   25 1     
   28   10   26 1     
   29   10   27 1     
@<TRIPOS>SUBSTRUCTURE
      1 ****           1
@<TRIPOS>SET
DONOR_HYDROGENS      STATIC     ATOMS    <user>   **** ""
3 28 29 30
ATOM$RED        STATIC     ATOMS    COLORGROUP SYSTEM
3 28 29 30
@<TRIPOS>COMMENT
> <Gold.Version>
2022.2.0

> <Gold.Id.Protein>
3pbl|protein|mol2

> <Gold.Protein.RotatedTorsions>
[ 1303 1298 1297 1294 ] final -146.40 input  179.99 | X-H torsion
[ 2461 2456 2455 2452 ] final -130.60 input   30.03 | X-H torsion
[ 2515 2510 2509 2506 ] final  -92.27 input  -89.99 | X-H torsion
[ 3721 3712 3711 3710 ] final   77.95 input -179.91 | X-H torsion
[ 3841 3832 3831 3830 ] final    3.34 input -179.91 | X-H torsion
[ 3767 3762 3761 3758 ] final   95.55 input  -89.99 | X-H torsion
[ 2472 2467 2466 2463 ] final   -8.79 input  -89.97 | X-H torsion

> <Gold.Protein.ActiveResidues>
 VAL82   VAL86   LEU89   PHE106  VAL107  ASP110  VAL111  MET112  CYS114  THR115 
 CYS181  SER182  ILE183  PHE188  VAL189  ILE190  SER192  SER193  SER196  TRP342 
 PHE345  PHE346  HIS349  VAL350  TYR365  THR369  GLY372  TYR373 

> <Gold.Protein.RotatedAtoms>
    4.5695   -8.5449    4.3545 H   0  0  0  0  0  0  0  0  0  0  0  0  # atno 1303 bound_to 1298
    0.7017   -9.2342    8.1570 H   0  0  0  0  0  0  0  0  0  0  0  0  # atno 2461 bound_to 2456
   -3.7261   -4.9114    8.1934 H   0  0  0  0  0  0  0  0  0  0  0  0  # atno 2472 bound_to 2467
    2.8164   -8.9595    4.6350 H   0  0  0  0  0  0  0  0  0  0  0  0  # atno 2515 bound_to 2510
   -2.6994  -17.7486   13.1941 H   0  0  0  0  0  0  0  0  0  0  0  0  # atno 3721 bound_to 3712
   -4.1358  -23.3172   10.5717 H   0  0  0  0  0  0  0  0  0  0  0  0  # atno 3767 bound_to 3762
    1.7667  -20.5245    9.5738 H   0  0  0  0  0  0  0  0  0  0  0  0  # atno 3841 bound_to 3832
    4.4605  -10.0881    4.8769 LP  0  0  0  0  0  0  0  0  0  0  0  0  # atno 4297 bound_to 1298
    3.3320   -9.4886    3.8601 LP  0  0  0  0  0  0  0  0  0  0  0  0  # atno 4298 bound_to 1298
    2.1554   -8.5191    7.9500 LP  0  0  0  0  0  0  0  0  0  0  0  0  # atno 4299 bound_to 2456
    0.8805   -8.0550    7.0413 LP  0  0  0  0  0  0  0  0  0  0  0  0  # atno 4300 bound_to 2456
    2.1328   -8.6085    6.0756 LP  0  0  0  0  0  0  0  0  0  0  0  0  # atno 4301 bound_to 2510
    2.3474   -7.4308    4.9649 LP  0  0  0  0  0  0  0  0  0  0  0  0  # atno 4302 bound_to 2510
   -2.8445  -17.6740   14.7913 LP  0  0  0  0  0  0  0  0  0  0  0  0  # atno 4306 bound_to 3712
   -3.5667  -16.5613   13.8390 LP  0  0  0  0  0  0  0  0  0  0  0  0  # atno 4307 bound_to 3712
    2.0945  -19.6451    8.2717 LP  0  0  0  0  0  0  0  0  0  0  0  0  # atno 4314 bound_to 3832
    3.0941  -20.8513    8.7328 LP  0  0  0  0  0  0  0  0  0  0  0  0  # atno 4315 bound_to 3832
   -5.4818  -22.4174   10.3584 LP  0  0  0  0  0  0  0  0  0  0  0  0  # atno 4318 bound_to 3762
   -4.5095  -22.1407   11.6409 LP  0  0  0  0  0  0  0  0  0  0  0  0  # atno 4319 bound_to 3762
   -4.6451   -5.4567    9.4282 LP  0  0  0  0  0  0  0  0  0  0  0  0  # atno 4320 bound_to 2467
   -5.3455   -5.0254    8.0175 LP  0  0  0  0  0  0  0  0  0  0  0  0  # atno 4321 bound_to 2467

> <Gold.Score>
     Score     S(PLP)   S(hbond)     S(cho)   S(metal)  DE(clash)   DE(tors)     intcor
     39.01     -30.81       3.00       0.00       0.00       0.00       0.40       0.00

> <Gold.PLP.Fitness>
39.0087

> <Gold.PLP.PLP>
-30.8146

> <Gold.PLP.part.hbond>
-2.0000

> <Gold.PLP.part.metal>
0.0000

> <Gold.PLP.part.buried>
-3.3288

> <Gold.PLP.part.nonpolar>
-26.3867

> <Gold.PLP.part.repulsive>
0.0000

> <Gold.PLP.ligand.clash>
0.0000

> <Gold.PLP.ligand.torsion>
0.4048

> <Gold.PLP.Chemscore.Hbond>
3.0000

> <Gold.PLP.Chemscore.CHOScore>
0.0000

> <Gold.PLP.Chemscore.Metal>
0.0000

> <Gold.Chemscore.Hbonds>
donor molecule, donor type, donor heavy atom, donor atom, acceptor molecule, acceptor atom, score
      L1  H     2    28       P1  1227  2.00
      L1  H     6    30       P1  1227  1.00

> <Gold.PLP.Chemscore.Internal.Correction>
0.0037

