#       Name:                EN300-4934512_i002
#       Creating user name   fsindt
#       Creation time:       Tue Feb 28 15:37:02 2023


#       File generated by GOLD software.
#

@<TRIPOS>MOLECULE
EN300-4934512_i002|amine_1|mol2|5053|dock11
    30    29     1
SMALL
USER_CHARGES


@<TRIPOS>ATOM
      1 C1          -0.7073 -18.6007   8.3871 C.3            1 <1>                0.0000
      2 N2           0.0854 -18.6958   9.6201 N.4            1 <1>                1.0000
      3 C3          -0.7924 -18.5055  10.7826 C.3            1 <1>                0.0000
      4 C4          -0.0900 -17.6185  11.8124 C.3            1 <1>                0.0000
      5 C5           0.7534 -18.4897  12.7453 C.3            1 <1>                0.0000
      6 O6           1.8369 -19.0635  12.0111 O.3            1 <1>                0.0000
      7 C7           1.3072 -17.6303  13.8836 C.3            1 <1>                0.0000
      8 C8           2.3625 -16.6703  13.3307 C.3            1 <1>                0.0000
      9 C9           0.1690 -16.8274  14.5168 C.3            1 <1>                0.0000
     10 C10          1.9440 -18.5338  14.9415 C.3            1 <1>                0.0000
     11 H11         -0.0559 -18.7420   7.5245 H              1 <1>                0.0000
     12 H12         -1.4781 -19.3715   8.3903 H              1 <1>                0.0000
     13 H13         -1.1761 -17.6183   8.3314 H              1 <1>                0.0000
     14 H14         -1.7191 -18.0283  10.4638 H              1 <1>                0.0000
     15 H15         -1.0175 -19.4736  11.2301 H              1 <1>                0.0000
     16 H16          0.5552 -16.9060  11.2985 H              1 <1>                0.0000
     17 H17         -0.8359 -17.0782  12.3955 H              1 <1>                0.0000
     18 H18          0.1334 -19.2851  13.1590 H              1 <1>                0.0000
     19 H19          1.9088 -16.0267  12.5771 H              1 <1>                0.0000
     20 H20          2.7571 -16.0580  14.1417 H              1 <1>                0.0000
     21 H21          3.1733 -17.2422  12.8797 H              1 <1>                0.0000
     22 H22         -0.5827 -17.5113  14.9106 H              1 <1>                0.0000
     23 H23          0.5637 -16.2151  15.3276 H              1 <1>                0.0000
     24 H24         -0.2846 -16.1837  13.7631 H              1 <1>                0.0000
     25 H25          2.7548 -19.1058  14.4904 H              1 <1>                0.0000
     26 H26          2.3386 -17.9215  15.7524 H              1 <1>                0.0000
     27 H27          1.1922 -19.2178  15.3353 H              1 <1>                0.0000
     28 H28          0.5195 -19.6052   9.6718 H              1 <1>                0.0000
     29 H29          0.7990 -17.9823   9.6172 H              1 <1>                0.0000
     30 H30          1.9954 -18.6461  11.1533 H              1 <1>                0.0000
@<TRIPOS>BOND
    1    1    2 1     
    2    1   11 1     
    3    1   12 1     
    4    1   13 1     
    5    2    3 1     
    6    2   28 1     
    7    2   29 1     
    8    3    4 1     
    9    3   14 1     
   10    3   15 1     
   11    4    5 1     
   12    4   16 1     
   13    4   17 1     
   14    5    6 1     
   15    5    7 1     
   16    5   18 1     
   17    6   30 1     
   18    7    8 1     
   19    7    9 1     
   20    7   10 1     
   21    8   19 1     
   22    8   20 1     
   23    8   21 1     
   24    9   22 1     
   25    9   23 1     
   26    9   24 1     
   27   10   25 1     
   28   10   26 1     
   29   10   27 1     
@<TRIPOS>SUBSTRUCTURE
      1 ****           1
@<TRIPOS>SET
DONOR_HYDROGENS      STATIC     ATOMS    <user>   **** ""
3 28 29 30
ATOM$RED        STATIC     ATOMS    COLORGROUP SYSTEM
3 28 29 30
@<TRIPOS>COMMENT
> <Gold.Version>
2022.2.0

> <Gold.Id.Protein>
3pbl|protein|mol2

> <Gold.Protein.RotatedTorsions>
[ 1303 1298 1297 1294 ] final  114.01 input  179.99 | X-H torsion
[ 2461 2456 2455 2452 ] final   64.80 input   30.03 | X-H torsion
[ 2515 2510 2509 2506 ] final -126.20 input  -89.99 | X-H torsion
[ 3721 3712 3711 3710 ] final -138.80 input -179.91 | X-H torsion
[ 3841 3832 3831 3830 ] final  117.48 input -179.91 | X-H torsion
[ 3767 3762 3761 3758 ] final  -22.01 input  -89.99 | X-H torsion
[ 2472 2467 2466 2463 ] final  -38.83 input  -89.97 | X-H torsion

> <Gold.Protein.ActiveResidues>
 VAL82   VAL86   LEU89   PHE106  VAL107  ASP110  VAL111  MET112  CYS114  THR115 
 CYS181  SER182  ILE183  PHE188  VAL189  ILE190  SER192  SER193  SER196  TRP342 
 PHE345  PHE346  HIS349  VAL350  TYR365  THR369  GLY372  TYR373 

> <Gold.Protein.RotatedAtoms>
    4.6881   -9.8529    4.9445 H   0  0  0  0  0  0  0  0  0  0  0  0  # atno 1303 bound_to 1298
    1.9661   -8.0650    7.4303 H   0  0  0  0  0  0  0  0  0  0  0  0  # atno 2461 bound_to 2456
   -3.6373   -5.0657    8.6486 H   0  0  0  0  0  0  0  0  0  0  0  0  # atno 2472 bound_to 2467
    2.6818   -9.2323    5.0934 H   0  0  0  0  0  0  0  0  0  0  0  0  # atno 2515 bound_to 2510
   -3.2978  -16.5552   14.1535 H   0  0  0  0  0  0  0  0  0  0  0  0  # atno 3721 bound_to 3712
   -5.4718  -22.4459   10.3322 H   0  0  0  0  0  0  0  0  0  0  0  0  # atno 3767 bound_to 3762
    3.0682  -20.7472    8.9673 H   0  0  0  0  0  0  0  0  0  0  0  0  # atno 3841 bound_to 3832
    3.3595   -9.7921    3.9970 LP  0  0  0  0  0  0  0  0  0  0  0  0  # atno 4297 bound_to 1298
    4.3143   -8.4762    4.1499 LP  0  0  0  0  0  0  0  0  0  0  0  0  # atno 4298 bound_to 1298
    0.3965   -8.5025    7.3194 LP  0  0  0  0  0  0  0  0  0  0  0  0  # atno 4299 bound_to 2456
    1.3754   -9.2404    8.3983 LP  0  0  0  0  0  0  0  0  0  0  0  0  # atno 4300 bound_to 2456
    2.0326   -8.0688    6.0371 LP  0  0  0  0  0  0  0  0  0  0  0  0  # atno 4301 bound_to 2510
    2.5822   -7.6977    4.5448 LP  0  0  0  0  0  0  0  0  0  0  0  0  # atno 4302 bound_to 2510
   -3.0338  -17.6239   12.9847 LP  0  0  0  0  0  0  0  0  0  0  0  0  # atno 4306 bound_to 3712
   -2.6864  -17.9891   14.5379 LP  0  0  0  0  0  0  0  0  0  0  0  0  # atno 4307 bound_to 3712
    1.5471  -20.5866    9.4536 LP  0  0  0  0  0  0  0  0  0  0  0  0  # atno 4314 bound_to 3832
    2.1380  -19.6525    8.2515 LP  0  0  0  0  0  0  0  0  0  0  0  0  # atno 4315 bound_to 3832
   -4.5429  -22.1190   11.6349 LP  0  0  0  0  0  0  0  0  0  0  0  0  # atno 4318 bound_to 3762
   -4.1130  -23.3101   10.6038 LP  0  0  0  0  0  0  0  0  0  0  0  0  # atno 4319 bound_to 3762
   -5.1034   -5.4461    9.2588 LP  0  0  0  0  0  0  0  0  0  0  0  0  # atno 4320 bound_to 2467
   -4.9760   -4.8817    7.7317 LP  0  0  0  0  0  0  0  0  0  0  0  0  # atno 4321 bound_to 2467

> <Gold.Score>
     Score     S(PLP)   S(hbond)     S(cho)   S(metal)  DE(clash)   DE(tors)     intcor
     40.93     -31.54       3.55       0.00       0.00       0.00       0.63       0.01

> <Gold.PLP.Fitness>
40.9261

> <Gold.PLP.PLP>
-31.5358

> <Gold.PLP.part.hbond>
-3.0000

> <Gold.PLP.part.metal>
0.0000

> <Gold.PLP.part.buried>
-4.0320

> <Gold.PLP.part.nonpolar>
-25.4789

> <Gold.PLP.part.repulsive>
0.0000

> <Gold.PLP.ligand.clash>
0.0000

> <Gold.PLP.ligand.torsion>
0.6320

> <Gold.PLP.Chemscore.Hbond>
3.5492

> <Gold.PLP.Chemscore.CHOScore>
0.0000

> <Gold.PLP.Chemscore.Metal>
0.0000

> <Gold.Chemscore.Hbonds>
donor molecule, donor type, donor heavy atom, donor atom, acceptor molecule, acceptor atom, score
      L1  H     2    28       P1  3832  0.63
      L1  H     2    29       P1  1227  1.92
      L1  H     6    30       P1  1227  1.00

> <Gold.PLP.Chemscore.Internal.Correction>
0.0067

