#       Name:                EN300-4934512_i002
#       Creating user name   fsindt
#       Creation time:       Tue Feb 28 15:37:09 2023


#       File generated by GOLD software.
#

@<TRIPOS>MOLECULE
EN300-4934512_i002|amine_1|mol2|5053|dock18
    30    29     1
SMALL
USER_CHARGES


@<TRIPOS>ATOM
      1 C1           0.8009 -15.3934   7.1955 C.3            1 <1>                0.0000
      2 N2           0.5671 -14.4085   8.2600 N.4            1 <1>                1.0000
      3 C3           0.1697 -13.1267   7.6625 C.3            1 <1>                0.0000
      4 C4          -0.7855 -12.3971   8.6091 C.3            1 <1>                0.0000
      5 C5           0.0226 -11.6261   9.6546 C.3            1 <1>                0.0000
      6 O6           0.9786 -10.7916   8.9974 O.3            1 <1>                0.0000
      7 C7          -0.9209 -10.7596  10.4913 C.3            1 <1>                0.0000
      8 C8          -0.0999  -9.8462  11.4037 C.3            1 <1>                0.0000
      9 C9          -1.7881  -9.9068   9.5628 C.3            1 <1>                0.0000
     10 C10         -1.8181 -11.6590  11.3438 C.3            1 <1>                0.0000
     11 H11          1.0958 -16.3446   7.6389 H              1 <1>                0.0000
     12 H12         -0.1141 -15.5296   6.6190 H              1 <1>                0.0000
     13 H13          1.5946 -15.0372   6.5388 H              1 <1>                0.0000
     14 H14          1.0552 -12.5134   7.4961 H              1 <1>                0.0000
     15 H15         -0.3302 -13.3088   6.7112 H              1 <1>                0.0000
     16 H16         -1.4004 -11.7006   8.0391 H              1 <1>                0.0000
     17 H17         -1.4271 -13.1231   9.1086 H              1 <1>                0.0000
     18 H18          0.5414 -12.3305  10.3048 H              1 <1>                0.0000
     19 H19          0.5394  -9.2055  10.7963 H              1 <1>                0.0000
     20 H20         -0.7720  -9.2288  11.9998 H              1 <1>                0.0000
     21 H21          0.5179 -10.4536  12.0651 H              1 <1>                0.0000
     22 H22         -2.3730 -10.5575   8.9128 H              1 <1>                0.0000
     23 H23         -2.4602  -9.2895  10.1589 H              1 <1>                0.0000
     24 H24         -1.1488  -9.2661   8.9555 H              1 <1>                0.0000
     25 H25         -1.2004 -12.2664  12.0052 H              1 <1>                0.0000
     26 H26         -2.4903 -11.0416  11.9398 H              1 <1>                0.0000
     27 H27         -2.4030 -12.3097  10.6937 H              1 <1>                0.0000
     28 H28         -0.1675 -14.7383   8.8680 H              1 <1>                0.0000
     29 H29          1.4141 -14.2826   8.7937 H              1 <1>                0.0000
     30 H30          1.8084 -11.2388   8.7814 H              1 <1>                0.0000
@<TRIPOS>BOND
    1    1    2 1     
    2    1   11 1     
    3    1   12 1     
    4    1   13 1     
    5    2    3 1     
    6    2   28 1     
    7    2   29 1     
    8    3    4 1     
    9    3   14 1     
   10    3   15 1     
   11    4    5 1     
   12    4   16 1     
   13    4   17 1     
   14    5    6 1     
   15    5    7 1     
   16    5   18 1     
   17    6   30 1     
   18    7    8 1     
   19    7    9 1     
   20    7   10 1     
   21    8   19 1     
   22    8   20 1     
   23    8   21 1     
   24    9   22 1     
   25    9   23 1     
   26    9   24 1     
   27   10   25 1     
   28   10   26 1     
   29   10   27 1     
@<TRIPOS>SUBSTRUCTURE
      1 ****           1
@<TRIPOS>SET
DONOR_HYDROGENS      STATIC     ATOMS    <user>   **** ""
3 28 29 30
ATOM$RED        STATIC     ATOMS    COLORGROUP SYSTEM
3 28 29 30
@<TRIPOS>COMMENT
> <Gold.Version>
2022.2.0

> <Gold.Id.Protein>
3pbl|protein|mol2

> <Gold.Protein.RotatedTorsions>
[ 1303 1298 1297 1294 ] final   83.67 input  179.99 | X-H torsion
[ 2461 2456 2455 2452 ] final -153.10 input   30.03 | X-H torsion
[ 2515 2510 2509 2506 ] final  -80.28 input  -89.99 | X-H torsion
[ 3721 3712 3711 3710 ] final -146.24 input -179.91 | X-H torsion
[ 3841 3832 3831 3830 ] final   60.97 input -179.91 | X-H torsion
[ 3767 3762 3761 3758 ] final   42.80 input  -89.99 | X-H torsion
[ 2472 2467 2466 2463 ] final  148.04 input  -89.97 | X-H torsion

> <Gold.Protein.ActiveResidues>
 VAL82   VAL86   LEU89   PHE106  VAL107  ASP110  VAL111  MET112  CYS114  THR115 
 CYS181  SER182  ILE183  PHE188  VAL189  ILE190  SER192  SER193  SER196  TRP342 
 PHE345  PHE346  HIS349  VAL350  TYR365  THR369  GLY372  TYR373 

> <Gold.Protein.RotatedAtoms>
    4.3319  -10.1710    4.8204 H   0  0  0  0  0  0  0  0  0  0  0  0  # atno 1303 bound_to 1298
    1.0250   -9.2887    8.3243 H   0  0  0  0  0  0  0  0  0  0  0  0  # atno 2461 bound_to 2456
   -5.5092   -5.2361    8.5501 H   0  0  0  0  0  0  0  0  0  0  0  0  # atno 2472 bound_to 2467
    2.8337   -8.8047    4.5148 H   0  0  0  0  0  0  0  0  0  0  0  0  # atno 2515 bound_to 2510
   -3.3184  -16.5362   14.0446 H   0  0  0  0  0  0  0  0  0  0  0  0  # atno 3721 bound_to 3712
   -4.8090  -23.1710   10.0947 H   0  0  0  0  0  0  0  0  0  0  0  0  # atno 3767 bound_to 3762
    2.4839  -20.9455    9.5067 H   0  0  0  0  0  0  0  0  0  0  0  0  # atno 3841 bound_to 3832
    3.3548   -9.3331    3.8156 LP  0  0  0  0  0  0  0  0  0  0  0  0  # atno 4297 bound_to 1298
    4.6755   -8.6169    4.4554 LP  0  0  0  0  0  0  0  0  0  0  0  0  # atno 4298 bound_to 1298
    2.1256   -8.2649    7.6857 LP  0  0  0  0  0  0  0  0  0  0  0  0  # atno 4299 bound_to 2456
    0.5871   -8.2547    7.1384 LP  0  0  0  0  0  0  0  0  0  0  0  0  # atno 4300 bound_to 2456
    2.1955   -8.7858    6.0175 LP  0  0  0  0  0  0  0  0  0  0  0  0  # atno 4301 bound_to 2510
    2.2673   -7.4084    5.1434 LP  0  0  0  0  0  0  0  0  0  0  0  0  # atno 4302 bound_to 2510
   -2.9725  -17.7251   13.0225 LP  0  0  0  0  0  0  0  0  0  0  0  0  # atno 4306 bound_to 3712
   -2.7241  -17.9098   14.6259 LP  0  0  0  0  0  0  0  0  0  0  0  0  # atno 4307 bound_to 3712
    1.4499  -19.8861    8.8866 LP  0  0  0  0  0  0  0  0  0  0  0  0  # atno 4314 bound_to 3832
    2.9101  -20.1240    8.1954 LP  0  0  0  0  0  0  0  0  0  0  0  0  # atno 4315 bound_to 3832
   -5.3484  -21.9585   11.0465 LP  0  0  0  0  0  0  0  0  0  0  0  0  # atno 4318 bound_to 3762
   -3.9700  -22.7457   11.4296 LP  0  0  0  0  0  0  0  0  0  0  0  0  # atno 4319 bound_to 3762
   -4.1376   -4.8054    7.7759 LP  0  0  0  0  0  0  0  0  0  0  0  0  # atno 4320 bound_to 2467
   -4.0703   -5.3520    9.3132 LP  0  0  0  0  0  0  0  0  0  0  0  0  # atno 4321 bound_to 2467

> <Gold.Score>
     Score     S(PLP)   S(hbond)     S(cho)   S(metal)  DE(clash)   DE(tors)     intcor
     39.69     -37.58       1.00       0.00       0.00       0.00       0.45       0.00

> <Gold.PLP.Fitness>
39.6910

> <Gold.PLP.PLP>
-37.5835

> <Gold.PLP.part.hbond>
-1.0000

> <Gold.PLP.part.metal>
0.0000

> <Gold.PLP.part.buried>
-3.8937

> <Gold.PLP.part.nonpolar>
-33.2285

> <Gold.PLP.part.repulsive>
0.0071

> <Gold.PLP.ligand.clash>
0.0000

> <Gold.PLP.ligand.torsion>
0.4481

> <Gold.PLP.Chemscore.Hbond>
1.0000

> <Gold.PLP.Chemscore.CHOScore>
0.0000

> <Gold.PLP.Chemscore.Metal>
0.0000

> <Gold.Chemscore.Hbonds>
donor molecule, donor type, donor heavy atom, donor atom, acceptor molecule, acceptor atom, score
      P1  H  2456  2461       L1     6  1.00

> <Gold.PLP.Chemscore.Internal.Correction>
0.0037

