#       Name:                EN300-4934512_i002
#       Creating user name   fsindt
#       Creation time:       Tue Feb 28 15:36:55 2023


#       File generated by GOLD software.
#

@<TRIPOS>MOLECULE
EN300-4934512_i002|amine_1|mol2|5053|dock4
    30    29     1
SMALL
USER_CHARGES


@<TRIPOS>ATOM
      1 C1          -0.8146 -18.4305   8.5808 C.3            1 <1>                0.0000
      2 N2           0.1740 -18.8989   9.5612 N.4            1 <1>                1.0000
      3 C3          -0.5082 -19.2569  10.8119 C.3            1 <1>                0.0000
      4 C4           0.4101 -18.9561  11.9981 C.3            1 <1>                0.0000
      5 C5           0.3932 -17.4541  12.2881 C.3            1 <1>                0.0000
      6 O6          -0.9241 -17.0586  12.6761 O.3            1 <1>                0.0000
      7 C7           1.3736 -17.1423  13.4207 C.3            1 <1>                0.0000
      8 C8           1.2630 -15.6637  13.7982 C.3            1 <1>                0.0000
      9 C9           1.0378 -18.0060  14.6382 C.3            1 <1>                0.0000
     10 C10          2.8002 -17.4452  12.9583 C.3            1 <1>                0.0000
     11 H11         -0.3083 -18.1650   7.6526 H              1 <1>                0.0000
     12 H12         -1.5373 -19.2231   8.3864 H              1 <1>                0.0000
     13 H13         -1.3318 -17.5561   8.9756 H              1 <1>                0.0000
     14 H14         -1.4248 -18.6745  10.9053 H              1 <1>                0.0000
     15 H15         -0.7522 -20.3191  10.8014 H              1 <1>                0.0000
     16 H16          0.0600 -19.4997  12.8756 H              1 <1>                0.0000
     17 H17          1.4267 -19.2686  11.7589 H              1 <1>                0.0000
     18 H18          0.6874 -16.9076  11.3921 H              1 <1>                0.0000
     19 H19          0.2466 -15.4479  14.1276 H              1 <1>                0.0000
     20 H20          1.9614 -15.4415  14.6051 H              1 <1>                0.0000
     21 H21          1.5021 -15.0484  12.9310 H              1 <1>                0.0000
     22 H22          1.1166 -19.0593  14.3692 H              1 <1>                0.0000
     23 H23          1.7361 -17.7838  15.4450 H              1 <1>                0.0000
     24 H24          0.0214 -17.7901  14.9676 H              1 <1>                0.0000
     25 H25          3.0394 -16.8299  12.0910 H              1 <1>                0.0000
     26 H26          3.4986 -17.2230  13.7652 H              1 <1>                0.0000
     27 H27          2.8790 -18.4985  12.6893 H              1 <1>                0.0000
     28 H28          0.6529 -19.7084   9.1957 H              1 <1>                0.0000
     29 H29          0.8430 -18.1652   9.7410 H              1 <1>                0.0000
     30 H30         -1.1556 -16.1557  12.4185 H              1 <1>                0.0000
@<TRIPOS>BOND
    1    1    2 1     
    2    1   11 1     
    3    1   12 1     
    4    1   13 1     
    5    2    3 1     
    6    2   28 1     
    7    2   29 1     
    8    3    4 1     
    9    3   14 1     
   10    3   15 1     
   11    4    5 1     
   12    4   16 1     
   13    4   17 1     
   14    5    6 1     
   15    5    7 1     
   16    5   18 1     
   17    6   30 1     
   18    7    8 1     
   19    7    9 1     
   20    7   10 1     
   21    8   19 1     
   22    8   20 1     
   23    8   21 1     
   24    9   22 1     
   25    9   23 1     
   26    9   24 1     
   27   10   25 1     
   28   10   26 1     
   29   10   27 1     
@<TRIPOS>SUBSTRUCTURE
      1 ****           1
@<TRIPOS>SET
DONOR_HYDROGENS      STATIC     ATOMS    <user>   **** ""
3 28 29 30
ATOM$RED        STATIC     ATOMS    COLORGROUP SYSTEM
3 28 29 30
@<TRIPOS>COMMENT
> <Gold.Version>
2022.2.0

> <Gold.Id.Protein>
3pbl|protein|mol2

> <Gold.Protein.RotatedTorsions>
[ 1303 1298 1297 1294 ] final -129.39 input  179.99 | X-H torsion
[ 2461 2456 2455 2452 ] final  -31.15 input   30.03 | X-H torsion
[ 2515 2510 2509 2506 ] final -125.72 input  -89.99 | X-H torsion
[ 3721 3712 3711 3710 ] final   76.51 input -179.91 | X-H torsion
[ 3841 3832 3831 3830 ] final  105.09 input -179.91 | X-H torsion
[ 3767 3762 3761 3758 ] final   -4.83 input  -89.99 | X-H torsion
[ 2472 2467 2466 2463 ] final -144.51 input  -89.97 | X-H torsion

> <Gold.Protein.ActiveResidues>
 VAL82   VAL86   LEU89   PHE106  VAL107  ASP110  VAL111  MET112  CYS114  THR115 
 CYS181  SER182  ILE183  PHE188  VAL189  ILE190  SER192  SER193  SER196  TRP342 
 PHE345  PHE346  HIS349  VAL350  TYR365  THR369  GLY372  TYR373 

> <Gold.Protein.RotatedAtoms>
    4.3593   -8.4799    4.1832 H   0  0  0  0  0  0  0  0  0  0  0  0  # atno 1303 bound_to 1298
    0.6089   -8.2346    7.1260 H   0  0  0  0  0  0  0  0  0  0  0  0  # atno 2461 bound_to 2456
   -4.8958   -5.4632    9.3674 H   0  0  0  0  0  0  0  0  0  0  0  0  # atno 2472 bound_to 2467
    2.6845   -9.2304    5.0862 H   0  0  0  0  0  0  0  0  0  0  0  0  # atno 2515 bound_to 2510
   -2.6898  -17.7633   13.2070 H   0  0  0  0  0  0  0  0  0  0  0  0  # atno 3721 bound_to 3712
   -5.3644  -22.6571   10.1797 H   0  0  0  0  0  0  0  0  0  0  0  0  # atno 3767 bound_to 3762
    2.9843  -20.8422    9.1044 H   0  0  0  0  0  0  0  0  0  0  0  0  # atno 3841 bound_to 3832
    4.6547   -9.8975    4.9379 LP  0  0  0  0  0  0  0  0  0  0  0  0  # atno 4297 bound_to 1298
    3.3481   -9.7443    3.9705 LP  0  0  0  0  0  0  0  0  0  0  0  0  # atno 4298 bound_to 1298
    0.9949   -9.2880    8.3130 LP  0  0  0  0  0  0  0  0  0  0  0  0  # atno 4299 bound_to 2456
    2.1337   -8.2854    7.7090 LP  0  0  0  0  0  0  0  0  0  0  0  0  # atno 4300 bound_to 2456
    2.0331   -8.0762    6.0397 LP  0  0  0  0  0  0  0  0  0  0  0  0  # atno 4301 bound_to 2510
    2.5790   -7.6921    4.5494 LP  0  0  0  0  0  0  0  0  0  0  0  0  # atno 4302 bound_to 2510
   -2.8550  -17.6542   14.8003 LP  0  0  0  0  0  0  0  0  0  0  0  0  # atno 4306 bound_to 3712
   -3.5673  -16.5641   13.8150 LP  0  0  0  0  0  0  0  0  0  0  0  0  # atno 4307 bound_to 3712
    1.4566  -20.4240    9.3640 LP  0  0  0  0  0  0  0  0  0  0  0  0  # atno 4314 bound_to 3832
    2.3254  -19.7054    8.1827 LP  0  0  0  0  0  0  0  0  0  0  0  0  # atno 4315 bound_to 3832
   -4.7821  -21.9943   11.5539 LP  0  0  0  0  0  0  0  0  0  0  0  0  # atno 4318 bound_to 3762
   -3.9811  -23.2237   10.8372 LP  0  0  0  0  0  0  0  0  0  0  0  0  # atno 4319 bound_to 3762
   -5.1729   -4.9439    7.8442 LP  0  0  0  0  0  0  0  0  0  0  0  0  # atno 4320 bound_to 2467
   -3.6483   -4.9865    8.4277 LP  0  0  0  0  0  0  0  0  0  0  0  0  # atno 4321 bound_to 2467

> <Gold.Score>
     Score     S(PLP)   S(hbond)     S(cho)   S(metal)  DE(clash)   DE(tors)     intcor
     40.02     -30.16       3.51       0.00       0.00       0.00       0.34       0.01

> <Gold.PLP.Fitness>
40.0233

> <Gold.PLP.PLP>
-30.1634

> <Gold.PLP.part.hbond>
-3.0000

> <Gold.PLP.part.metal>
0.0000

> <Gold.PLP.part.buried>
-3.2211

> <Gold.PLP.part.nonpolar>
-24.9293

> <Gold.PLP.part.repulsive>
0.0000

> <Gold.PLP.ligand.clash>
0.0000

> <Gold.PLP.ligand.torsion>
0.3385

> <Gold.PLP.Chemscore.Hbond>
3.5100

> <Gold.PLP.Chemscore.CHOScore>
0.0000

> <Gold.PLP.Chemscore.Metal>
0.0000

> <Gold.Chemscore.Hbonds>
donor molecule, donor type, donor heavy atom, donor atom, acceptor molecule, acceptor atom, score
      L1  H     2    28       P1  3832  0.95
      L1  H     2    29       P1  1227  1.89
      P1  H  3712  3721       L1     6  0.67

> <Gold.PLP.Chemscore.Internal.Correction>
0.0068

