#       Name:                EN300-107901_i001
#       Creating user name   fsindt
#       Creation time:       Tue Feb 28 18:57:50 2023


#       File generated by GOLD software.
#

@<TRIPOS>MOLECULE
EN300-107901_i001|acide_2|mol2|6590|dock5
    27    28     1
SMALL
USER_CHARGES


@<TRIPOS>ATOM
      1 O1          -1.1119 -18.3695  15.0368 O.co2          1 <1>               -1.0000
      2 C2          -0.3970 -19.1058  14.3785 C.2            1 <1>                0.0000
      3 O3           0.4514 -19.7852  14.9309 O.co2          1 <1>                0.0000
      4 C4          -0.5646 -19.1800  12.8976 C.3            1 <1>                0.0000
      5 C5           0.6636 -19.1252  12.0047 C.3            1 <1>                0.0000
      6 C6           2.0391 -19.0319  12.6021 C.3            1 <1>                0.0000
      7 C7           2.5698 -17.5575  12.4911 C.3            1 <1>                0.0000
      8 C8           2.4328 -17.1121  13.9904 C.3            1 <1>                0.0000
      9 C9           1.1384 -16.4866  14.4549 C.3            1 <1>                0.0000
     10 C10         -0.0923 -16.2064  13.6654 C.3            1 <1>                0.0000
     11 C11          0.0284 -16.6112  12.2107 C.3            1 <1>                0.0000
     12 C12         -0.3789 -18.0378  11.9383 C.3            1 <1>                0.0000
     13 H13         -1.3238 -19.9441  12.6023 H              1 <1>                0.0000
     14 H14          0.6501 -19.8609  11.1458 H              1 <1>                0.0000
     15 H15          2.0718 -19.3464  13.6395 H              1 <1>                0.0000
     16 H16          2.7358 -19.6673  12.0330 H              1 <1>                0.0000
     17 H17          3.6609 -17.6339  12.2877 H              1 <1>                0.0000
     18 H18          2.1303 -16.9819  11.7553 H              1 <1>                0.0000
     19 H19          2.6573 -17.9886  14.6061 H              1 <1>                0.0000
     20 H20          3.2513 -16.3975  14.1665 H              1 <1>                0.0000
     21 H21          0.8383 -17.0234  15.3841 H              1 <1>                0.0000
     22 H22          1.4457 -15.4947  14.8938 H              1 <1>                0.0000
     23 H23         -0.9927 -16.6432  14.1319 H              1 <1>                0.0000
     24 H24         -0.3015 -15.1044  13.7099 H              1 <1>                0.0000
     25 H25         -0.7665 -15.9698  11.6731 H              1 <1>                0.0000
     26 H26          0.8862 -16.2052  11.6973 H              1 <1>                0.0000
     27 H27         -1.0880 -18.0860  11.0325 H              1 <1>                0.0000
@<TRIPOS>BOND
    1    1    2 ar    
    2    2    3 ar    
    3    2    4 1     
    4    4    5 1     
    5    4   12 1     
    6    4   13 1     
    7    5    6 1     
    8    5   12 1     
    9    5   14 1     
   10    6    7 1     
   11    6   15 1     
   12    6   16 1     
   13    7    8 1     
   14    7   17 1     
   15    7   18 1     
   16    8    9 1     
   17    8   19 1     
   18    8   20 1     
   19    9   10 1     
   20    9   21 1     
   21    9   22 1     
   22   10   11 1     
   23   10   23 1     
   24   10   24 1     
   25   11   12 1     
   26   11   25 1     
   27   11   26 1     
   28   12   27 1     
@<TRIPOS>SUBSTRUCTURE
      1 ****           1
@<TRIPOS>COMMENT
> <Gold.Version>
2022.2.0

> <Gold.Id.Protein>
3pbl|protein|mol2

> <Gold.Protein.RotatedTorsions>
[ 1303 1298 1297 1294 ] final  107.03 input  179.99 | X-H torsion
[ 2461 2456 2455 2452 ] final  164.00 input   30.03 | X-H torsion
[ 2515 2510 2509 2506 ] final   91.01 input  -89.99 | X-H torsion
[ 3721 3712 3711 3710 ] final  -22.69 input -179.91 | X-H torsion
[ 3841 3832 3831 3830 ] final  157.42 input -179.91 | X-H torsion
[ 3767 3762 3761 3758 ] final   48.53 input  -89.99 | X-H torsion
[ 2472 2467 2466 2463 ] final   77.81 input  -89.97 | X-H torsion

> <Gold.Protein.ActiveResidues>
 VAL82   VAL86   LEU89   PHE106  VAL107  ASP110  VAL111  MET112  CYS114  THR115 
 CYS181  SER182  ILE183  PHE188  VAL189  ILE190  SER192  SER193  SER196  TRP342 
 PHE345  PHE346  HIS349  VAL350  TYR365  THR369  GLY372  TYR373 

> <Gold.Protein.RotatedAtoms>
    4.6169   -9.9416    4.9294 H   0  0  0  0  0  0  0  0  0  0  0  0  # atno 1303 bound_to 1298
    1.6888   -9.1093    8.3768 H   0  0  0  0  0  0  0  0  0  0  0  0  # atno 2461 bound_to 2456
   -4.9257   -4.8700    7.7123 H   0  0  0  0  0  0  0  0  0  0  0  0  # atno 2472 bound_to 2467
    2.0419   -7.7464    5.8509 H   0  0  0  0  0  0  0  0  0  0  0  0  # atno 2515 bound_to 2510
   -2.5657  -17.7760   14.5203 H   0  0  0  0  0  0  0  0  0  0  0  0  # atno 3721 bound_to 3712
   -4.7290  -23.2137   10.1206 H   0  0  0  0  0  0  0  0  0  0  0  0  # atno 3767 bound_to 3762
    3.1011  -20.3176    8.5623 H   0  0  0  0  0  0  0  0  0  0  0  0  # atno 3841 bound_to 3832
    3.3389   -9.6924    3.9440 LP  0  0  0  0  0  0  0  0  0  0  0  0  # atno 4297 bound_to 1298
    4.4062   -8.4871    4.2179 LP  0  0  0  0  0  0  0  0  0  0  0  0  # atno 4298 bound_to 1298
    1.7183   -7.9490    7.2278 LP  0  0  0  0  0  0  0  0  0  0  0  0  # atno 4299 bound_to 2456
    0.3308   -8.7500    7.5437 LP  0  0  0  0  0  0  0  0  0  0  0  0  # atno 4300 bound_to 2456
    2.7157   -8.0076    4.3868 LP  0  0  0  0  0  0  0  0  0  0  0  0  # atno 4301 bound_to 2510
    2.5394   -9.2454    5.4373 LP  0  0  0  0  0  0  0  0  0  0  0  0  # atno 4302 bound_to 2510
   -3.5394  -16.5669   14.1105 LP  0  0  0  0  0  0  0  0  0  0  0  0  # atno 4306 bound_to 3712
   -3.0262  -17.6367   12.9885 LP  0  0  0  0  0  0  0  0  0  0  0  0  # atno 4307 bound_to 3712
    2.0336  -21.0157    9.5366 LP  0  0  0  0  0  0  0  0  0  0  0  0  # atno 4314 bound_to 3832
    1.6135  -19.7197    8.6364 LP  0  0  0  0  0  0  0  0  0  0  0  0  # atno 4315 bound_to 3832
   -5.3936  -21.9864   10.9686 LP  0  0  0  0  0  0  0  0  0  0  0  0  # atno 4318 bound_to 3762
   -4.0047  -22.6752   11.4816 LP  0  0  0  0  0  0  0  0  0  0  0  0  # atno 4319 bound_to 3762
   -3.6434   -5.0842    8.7002 LP  0  0  0  0  0  0  0  0  0  0  0  0  # atno 4320 bound_to 2467
   -5.1479   -5.4393    9.2265 LP  0  0  0  0  0  0  0  0  0  0  0  0  # atno 4321 bound_to 2467

> <Gold.Score>
     Score     S(PLP)   S(hbond)     S(cho)   S(metal)  DE(clash)   DE(tors)     intcor
     30.56     -27.58       1.00       0.00       0.00       0.00       0.17       0.32

> <Gold.PLP.Fitness>
30.5635

> <Gold.PLP.PLP>
-27.5815

> <Gold.PLP.part.hbond>
-1.0000

> <Gold.PLP.part.metal>
0.0000

> <Gold.PLP.part.buried>
0.2380

> <Gold.PLP.part.nonpolar>
-27.6713

> <Gold.PLP.part.repulsive>
0.0499

> <Gold.PLP.ligand.clash>
0.0000

> <Gold.PLP.ligand.torsion>
0.1682

> <Gold.PLP.Chemscore.Hbond>
1.0000

> <Gold.PLP.Chemscore.CHOScore>
0.0000

> <Gold.PLP.Chemscore.Metal>
0.0000

> <Gold.Chemscore.Hbonds>
donor molecule, donor type, donor heavy atom, donor atom, acceptor molecule, acceptor atom, score
      P1  H  3712  3721       L1     1  1.00

> <Gold.PLP.Chemscore.Internal.Correction>
0.3185

