#       Name:                EN300-107901_i001
#       Creating user name   fsindt
#       Creation time:       Tue Feb 28 18:57:53 2023


#       File generated by GOLD software.
#

@<TRIPOS>MOLECULE
EN300-107901_i001|acide_2|mol2|6590|dock15
    27    28     1
SMALL
USER_CHARGES


@<TRIPOS>ATOM
      1 O1          -1.2751 -19.6034  14.6134 O.co2          1 <1>               -1.0000
      2 C2          -0.5559 -20.3793  15.2194 C.2            1 <1>                0.0000
      3 O3          -1.0327 -21.1224  16.0602 O.co2          1 <1>                0.0000
      4 C4           0.9069 -20.4235  14.9278 C.3            1 <1>                0.0000
      5 C5           1.3788 -20.4469  13.4837 C.3            1 <1>                0.0000
      6 C6           0.3884 -20.3914  12.3551 C.3            1 <1>                0.0000
      7 C7           0.1993 -21.8247  11.7406 C.3            1 <1>                0.0000
      8 C8          -1.2229 -22.1718  12.3082 C.3            1 <1>                0.0000
      9 C9          -1.3302 -22.8605  13.6485 C.3            1 <1>                0.0000
     10 C10         -0.2351 -23.2899  14.5613 C.3            1 <1>                0.0000
     11 C11          1.1459 -22.9813  14.0208 C.3            1 <1>                0.0000
     12 C12          1.6572 -21.6133  14.3978 C.3            1 <1>                0.0000
     13 H13          1.4858 -19.7430  15.5980 H              1 <1>                0.0000
     14 H14          2.2651 -19.7772  13.2707 H              1 <1>                0.0000
     15 H15         -0.5774 -20.0025  12.6588 H              1 <1>                0.0000
     16 H16          0.7761 -19.7463  11.5511 H              1 <1>                0.0000
     17 H17          0.0701 -21.6792  10.6452 H              1 <1>                0.0000
     18 H18          0.9777 -22.4832  11.9027 H              1 <1>                0.0000
     19 H19         -1.7951 -21.2391  12.3292 H              1 <1>                0.0000
     20 H20         -1.7020 -22.8070  11.5475 H              1 <1>                0.0000
     21 H21         -2.0725 -22.2838  14.2467 H              1 <1>                0.0000
     22 H22         -1.9298 -23.7922  13.4401 H              1 <1>                0.0000
     23 H23         -0.3665 -22.8916  15.5826 H              1 <1>                0.0000
     24 H24         -0.3146 -24.3988  14.7168 H              1 <1>                0.0000
     25 H25          1.8376 -23.7186  14.5780 H              1 <1>                0.0000
     26 H26          1.3374 -23.3556  13.0270 H              1 <1>                0.0000
     27 H27          2.7352 -21.6842  14.7960 H              1 <1>                0.0000
@<TRIPOS>BOND
    1    1    2 ar    
    2    2    3 ar    
    3    2    4 1     
    4    4    5 1     
    5    4   12 1     
    6    4   13 1     
    7    5    6 1     
    8    5   12 1     
    9    5   14 1     
   10    6    7 1     
   11    6   15 1     
   12    6   16 1     
   13    7    8 1     
   14    7   17 1     
   15    7   18 1     
   16    8    9 1     
   17    8   19 1     
   18    8   20 1     
   19    9   10 1     
   20    9   21 1     
   21    9   22 1     
   22   10   11 1     
   23   10   23 1     
   24   10   24 1     
   25   11   12 1     
   26   11   25 1     
   27   11   26 1     
   28   12   27 1     
@<TRIPOS>SUBSTRUCTURE
      1 ****           1
@<TRIPOS>COMMENT
> <Gold.Version>
2022.2.0

> <Gold.Id.Protein>
3pbl|protein|mol2

> <Gold.Protein.RotatedTorsions>
[ 1303 1298 1297 1294 ] final  -53.18 input  179.99 | X-H torsion
[ 2461 2456 2455 2452 ] final  -43.26 input   30.03 | X-H torsion
[ 2515 2510 2509 2506 ] final   16.81 input  -89.99 | X-H torsion
[ 3721 3712 3711 3710 ] final   -4.83 input -179.91 | X-H torsion
[ 3841 3832 3831 3830 ] final  179.54 input -179.91 | X-H torsion
[ 3767 3762 3761 3758 ] final  102.20 input  -89.99 | X-H torsion
[ 2472 2467 2466 2463 ] final  119.78 input  -89.97 | X-H torsion

> <Gold.Protein.ActiveResidues>
 VAL82   VAL86   LEU89   PHE106  VAL107  ASP110  VAL111  MET112  CYS114  THR115 
 CYS181  SER182  ILE183  PHE188  VAL189  ILE190  SER192  SER193  SER196  TRP342 
 PHE345  PHE346  HIS349  VAL350  TYR365  THR369  GLY372  TYR373 

> <Gold.Protein.RotatedAtoms>
    3.4449   -9.0748    3.7787 H   0  0  0  0  0  0  0  0  0  0  0  0  # atno 1303 bound_to 1298
    0.4852   -8.3642    7.2123 H   0  0  0  0  0  0  0  0  0  0  0  0  # atno 2461 bound_to 2456
   -5.4159   -5.0742    8.1293 H   0  0  0  0  0  0  0  0  0  0  0  0  # atno 2472 bound_to 2467
    2.4239   -7.4859    4.8122 H   0  0  0  0  0  0  0  0  0  0  0  0  # atno 2515 bound_to 2510
   -2.4985  -17.9262   14.3077 H   0  0  0  0  0  0  0  0  0  0  0  0  # atno 3721 bound_to 3712
   -4.0747  -23.2940   10.6594 H   0  0  0  0  0  0  0  0  0  0  0  0  # atno 3767 bound_to 3762
    2.9617  -20.0553    8.4137 H   0  0  0  0  0  0  0  0  0  0  0  0  # atno 3841 bound_to 3832
    4.8153   -8.7897    4.6196 LP  0  0  0  0  0  0  0  0  0  0  0  0  # atno 4297 bound_to 1298
    4.1022  -10.2569    4.6935 LP  0  0  0  0  0  0  0  0  0  0  0  0  # atno 4298 bound_to 1298
    1.1851   -9.2789    8.3703 LP  0  0  0  0  0  0  0  0  0  0  0  0  # atno 4299 bound_to 2456
    2.0672   -8.1650    7.5654 LP  0  0  0  0  0  0  0  0  0  0  0  0  # atno 4300 bound_to 2456
    2.7859   -9.0773    4.7669 LP  0  0  0  0  0  0  0  0  0  0  0  0  # atno 4301 bound_to 2510
    2.0869   -8.4364    6.0963 LP  0  0  0  0  0  0  0  0  0  0  0  0  # atno 4302 bound_to 2510
   -3.4679  -16.6488   14.3872 LP  0  0  0  0  0  0  0  0  0  0  0  0  # atno 4306 bound_to 3712
   -3.1752  -17.3814   12.9574 LP  0  0  0  0  0  0  0  0  0  0  0  0  # atno 4307 bound_to 3712
    2.3664  -21.1370    9.4391 LP  0  0  0  0  0  0  0  0  0  0  0  0  # atno 4314 bound_to 3832
    1.4417  -19.9014    8.9055 LP  0  0  0  0  0  0  0  0  0  0  0  0  # atno 4315 bound_to 3832
   -5.4517  -22.4975   10.2903 LP  0  0  0  0  0  0  0  0  0  0  0  0  # atno 4318 bound_to 3762
   -4.6008  -22.0838   11.6213 LP  0  0  0  0  0  0  0  0  0  0  0  0  # atno 4319 bound_to 3762
   -3.7960   -4.8761    8.0762 LP  0  0  0  0  0  0  0  0  0  0  0  0  # atno 4320 bound_to 2467
   -4.5052   -5.4432    9.4335 LP  0  0  0  0  0  0  0  0  0  0  0  0  # atno 4321 bound_to 2467

> <Gold.Score>
     Score     S(PLP)   S(hbond)     S(cho)   S(metal)  DE(clash)   DE(tors)     intcor
     30.23     -27.27       0.99       0.00       0.00       0.00       0.17       0.32

> <Gold.PLP.Fitness>
30.2273

> <Gold.PLP.PLP>
-27.2739

> <Gold.PLP.part.hbond>
-1.0000

> <Gold.PLP.part.metal>
0.0000

> <Gold.PLP.part.buried>
-1.7131

> <Gold.PLP.part.nonpolar>
-24.4588

> <Gold.PLP.part.repulsive>
0.0030

> <Gold.PLP.ligand.clash>
0.0000

> <Gold.PLP.ligand.torsion>
0.1705

> <Gold.PLP.Chemscore.Hbond>
0.9920

> <Gold.PLP.Chemscore.CHOScore>
0.0000

> <Gold.PLP.Chemscore.Metal>
0.0000

> <Gold.Chemscore.Hbonds>
donor molecule, donor type, donor heavy atom, donor atom, acceptor molecule, acceptor atom, score
      P1  H  3712  3721       L1     1  0.99

> <Gold.PLP.Chemscore.Internal.Correction>
0.3185

