#       Name:                EN300-107901_i001
#       Creating user name   fsindt
#       Creation time:       Tue Feb 28 18:57:51 2023


#       File generated by GOLD software.
#

@<TRIPOS>MOLECULE
EN300-107901_i001|acide_2|mol2|6590|dock7
    27    28     1
SMALL
USER_CHARGES


@<TRIPOS>ATOM
      1 O1          -0.2058 -15.9222  14.7079 O.co2          1 <1>               -1.0000
      2 C2           0.5706 -16.0856  13.7822 C.2            1 <1>                0.0000
      3 O3           0.1830 -15.9635  12.6327 O.co2          1 <1>                0.0000
      4 C4           1.9967 -16.4292  14.0563 C.3            1 <1>                0.0000
      5 C5           2.6861 -17.4833  13.2065 C.3            1 <1>                0.0000
      6 C6           1.9551 -18.1526  12.0772 C.3            1 <1>                0.0000
      7 C7           1.5006 -19.5914  12.5146 C.3            1 <1>                0.0000
      8 C8          -0.0382 -19.3396  12.6985 C.3            1 <1>                0.0000
      9 C9          -0.5530 -18.8947  14.0474 C.3            1 <1>                0.0000
     10 C10          0.2151 -18.6508  15.2992 C.3            1 <1>                0.0000
     11 C11          1.7000 -18.9082  15.1464 C.3            1 <1>                0.0000
     12 C12          2.4836 -17.7051  14.6841 C.3            1 <1>                0.0000
     13 H13          2.6114 -15.5201  14.2636 H              1 <1>                0.0000
     14 H14          3.7413 -17.2178  12.8977 H              1 <1>                0.0000
     15 H15          1.0901 -17.5911  11.7418 H              1 <1>                0.0000
     16 H16          2.6323 -18.2776  11.2178 H              1 <1>                0.0000
     17 H17          1.6049 -20.2376  11.6150 H              1 <1>                0.0000
     18 H18          2.0364 -20.0087  13.2921 H              1 <1>                0.0000
     19 H19         -0.3369 -18.6143  11.9354 H              1 <1>                0.0000
     20 H20         -0.5308 -20.2865  12.4294 H              1 <1>                0.0000
     21 H21         -1.2069 -18.0111  13.8653 H              1 <1>                0.0000
     22 H22         -1.3334 -19.6617  14.3187 H              1 <1>                0.0000
     23 H23          0.0208 -17.6470  15.7160 H              1 <1>                0.0000
     24 H24         -0.1816 -19.3311  16.0993 H              1 <1>                0.0000
     25 H25          2.0647 -19.1013  16.2245 H              1 <1>                0.0000
     26 H26          1.9529 -19.8801  14.7519 H              1 <1>                0.0000
     27 H27          3.4190 -17.5603  15.3396 H              1 <1>                0.0000
@<TRIPOS>BOND
    1    1    2 ar    
    2    2    3 ar    
    3    2    4 1     
    4    4    5 1     
    5    4   12 1     
    6    4   13 1     
    7    5    6 1     
    8    5   12 1     
    9    5   14 1     
   10    6    7 1     
   11    6   15 1     
   12    6   16 1     
   13    7    8 1     
   14    7   17 1     
   15    7   18 1     
   16    8    9 1     
   17    8   19 1     
   18    8   20 1     
   19    9   10 1     
   20    9   21 1     
   21    9   22 1     
   22   10   11 1     
   23   10   23 1     
   24   10   24 1     
   25   11   12 1     
   26   11   25 1     
   27   11   26 1     
   28   12   27 1     
@<TRIPOS>SUBSTRUCTURE
      1 ****           1
@<TRIPOS>COMMENT
> <Gold.Version>
2022.2.0

> <Gold.Id.Protein>
3pbl|protein|mol2

> <Gold.Protein.RotatedTorsions>
[ 1303 1298 1297 1294 ] final -106.80 input  179.99 | X-H torsion
[ 2461 2456 2455 2452 ] final  -22.54 input   30.03 | X-H torsion
[ 2515 2510 2509 2506 ] final   83.87 input  -89.99 | X-H torsion
[ 3721 3712 3711 3710 ] final   10.91 input -179.91 | X-H torsion
[ 3841 3832 3831 3830 ] final -141.67 input -179.91 | X-H torsion
[ 3767 3762 3761 3758 ] final   72.40 input  -89.99 | X-H torsion
[ 2472 2467 2466 2463 ] final -157.01 input  -89.97 | X-H torsion

> <Gold.Protein.ActiveResidues>
 VAL82   VAL86   LEU89   PHE106  VAL107  ASP110  VAL111  MET112  CYS114  THR115 
 CYS181  SER182  ILE183  PHE188  VAL189  ILE190  SER192  SER193  SER196  TRP342 
 PHE345  PHE346  HIS349  VAL350  TYR365  THR369  GLY372  TYR373 

> <Gold.Protein.RotatedAtoms>
    4.0513   -8.5145    3.9826 H   0  0  0  0  0  0  0  0  0  0  0  0  # atno 1303 bound_to 1298
    0.7145   -8.1521    7.0805 H   0  0  0  0  0  0  0  0  0  0  0  0  # atno 2461 bound_to 2456
   -5.0786   -5.4500    9.2750 H   0  0  0  0  0  0  0  0  0  0  0  0  # atno 2472 bound_to 2467
    2.0575   -7.6622    5.7707 H   0  0  0  0  0  0  0  0  0  0  0  0  # atno 2515 bound_to 2510
   -2.4716  -18.0075   14.0864 H   0  0  0  0  0  0  0  0  0  0  0  0  # atno 3721 bound_to 3712
   -4.4027  -23.3242   10.3035 H   0  0  0  0  0  0  0  0  0  0  0  0  # atno 3767 bound_to 3762
    2.5191  -19.6920    8.3624 H   0  0  0  0  0  0  0  0  0  0  0  0  # atno 3841 bound_to 3832
    4.8381   -9.5769    4.9410 LP  0  0  0  0  0  0  0  0  0  0  0  0  # atno 4297 bound_to 1298
    3.4728  -10.0302    4.1681 LP  0  0  0  0  0  0  0  0  0  0  0  0  # atno 4298 bound_to 1298
    0.8660   -9.2759    8.2559 LP  0  0  0  0  0  0  0  0  0  0  0  0  # atno 4299 bound_to 2456
    2.1570   -8.3800    7.8116 LP  0  0  0  0  0  0  0  0  0  0  0  0  # atno 4300 bound_to 2456
    2.7492   -8.1177    4.3636 LP  0  0  0  0  0  0  0  0  0  0  0  0  # atno 4301 bound_to 2510
    2.4902   -9.2196    5.5406 LP  0  0  0  0  0  0  0  0  0  0  0  0  # atno 4302 bound_to 2510
   -3.3741  -16.7803   14.5937 LP  0  0  0  0  0  0  0  0  0  0  0  0  # atno 4306 bound_to 3712
   -3.3000  -17.1560   13.0063 LP  0  0  0  0  0  0  0  0  0  0  0  0  # atno 4307 bound_to 3712
    2.8831  -21.0847    9.0723 LP  0  0  0  0  0  0  0  0  0  0  0  0  # atno 4314 bound_to 3832
    1.4362  -20.3734    9.3314 LP  0  0  0  0  0  0  0  0  0  0  0  0  # atno 4315 bound_to 3832
   -5.5044  -22.1670   10.6411 LP  0  0  0  0  0  0  0  0  0  0  0  0  # atno 4318 bound_to 3762
   -4.2202  -22.3841   11.6262 LP  0  0  0  0  0  0  0  0  0  0  0  0  # atno 4319 bound_to 3762
   -5.0028   -4.8889    7.7434 LP  0  0  0  0  0  0  0  0  0  0  0  0  # atno 4320 bound_to 2467
   -3.6356   -5.0547    8.6209 LP  0  0  0  0  0  0  0  0  0  0  0  0  # atno 4321 bound_to 2467

> <Gold.Score>
     Score     S(PLP)   S(hbond)     S(cho)   S(metal)  DE(clash)   DE(tors)     intcor
     29.78     -27.02       1.00       0.00       0.00       0.00       0.28       0.32

> <Gold.PLP.Fitness>
29.7792

> <Gold.PLP.PLP>
-27.0171

> <Gold.PLP.part.hbond>
-1.0000

> <Gold.PLP.part.metal>
0.0000

> <Gold.PLP.part.buried>
2.7326

> <Gold.PLP.part.nonpolar>
-29.4228

> <Gold.PLP.part.repulsive>
0.1512

> <Gold.PLP.ligand.clash>
0.0000

> <Gold.PLP.ligand.torsion>
0.2782

> <Gold.PLP.Chemscore.Hbond>
1.0000

> <Gold.PLP.Chemscore.CHOScore>
0.0000

> <Gold.PLP.Chemscore.Metal>
0.0000

> <Gold.Chemscore.Hbonds>
donor molecule, donor type, donor heavy atom, donor atom, acceptor molecule, acceptor atom, score
      P1  H  2305  2313       L1     1  1.00

> <Gold.PLP.Chemscore.Internal.Correction>
0.3185

