#       Name:                EN300-107901_i001
#       Creating user name   fsindt
#       Creation time:       Tue Feb 28 18:57:54 2023


#       File generated by GOLD software.
#

@<TRIPOS>MOLECULE
EN300-107901_i001|acide_2|mol2|6590|dock16
    27    28     1
SMALL
USER_CHARGES


@<TRIPOS>ATOM
      1 O1          -0.7594 -17.1676  12.6070 O.co2          1 <1>               -1.0000
      2 C2          -0.1608 -17.0399  13.6614 C.2            1 <1>                0.0000
      3 O3          -0.7796 -16.8488  14.6944 O.co2          1 <1>                0.0000
      4 C4           1.3289 -17.1236  13.6885 C.3            1 <1>                0.0000
      5 C5           2.0281 -18.2225  12.9062 C.3            1 <1>                0.0000
      6 C6           1.2351 -19.1980  12.0833 C.3            1 <1>                0.0000
      7 C7           1.1215 -20.5682  12.8433 C.3            1 <1>                0.0000
      8 C8          -0.3801 -20.4971  13.2964 C.3            1 <1>                0.0000
      9 C9          -0.7161 -19.8654  14.6270 C.3            1 <1>                0.0000
     10 C10          0.2083 -19.2729  15.6325 C.3            1 <1>                0.0000
     11 C11          1.6641 -19.3506  15.2215 C.3            1 <1>                0.0000
     12 C12          2.1329 -18.1691  14.4094 C.3            1 <1>                0.0000
     13 H13          1.8039 -16.1162  13.6064 H              1 <1>                0.0000
     14 H14          2.9496 -17.8828  12.3450 H              1 <1>                0.0000
     15 H15          0.2403 -18.8386  11.8439 H              1 <1>                0.0000
     16 H16          1.7601 -19.3991  11.1363 H              1 <1>                0.0000
     17 H17          1.1745 -21.3612  12.0648 H              1 <1>                0.0000
     18 H18          1.8510 -20.7440  13.5524 H              1 <1>                0.0000
     19 H19         -0.9306 -19.9872  12.4998 H              1 <1>                0.0000
     20 H20         -0.7412 -21.5370  13.3001 H              1 <1>                0.0000
     21 H21         -1.5348 -19.1339  14.4368 H              1 <1>                0.0000
     22 H22         -1.2912 -20.6616  15.1804 H              1 <1>                0.0000
     23 H23         -0.0796 -18.2421  15.9037 H              1 <1>                0.0000
     24 H24          0.0839 -19.8266  16.6011 H              1 <1>                0.0000
     25 H25          2.2424 -19.2720  16.2174 H              1 <1>                0.0000
     26 H26          2.0073 -20.3380  14.9543 H              1 <1>                0.0000
     27 H27          3.1305 -17.7695  14.8226 H              1 <1>                0.0000
@<TRIPOS>BOND
    1    1    2 ar    
    2    2    3 ar    
    3    2    4 1     
    4    4    5 1     
    5    4   12 1     
    6    4   13 1     
    7    5    6 1     
    8    5   12 1     
    9    5   14 1     
   10    6    7 1     
   11    6   15 1     
   12    6   16 1     
   13    7    8 1     
   14    7   17 1     
   15    7   18 1     
   16    8    9 1     
   17    8   19 1     
   18    8   20 1     
   19    9   10 1     
   20    9   21 1     
   21    9   22 1     
   22   10   11 1     
   23   10   23 1     
   24   10   24 1     
   25   11   12 1     
   26   11   25 1     
   27   11   26 1     
   28   12   27 1     
@<TRIPOS>SUBSTRUCTURE
      1 ****           1
@<TRIPOS>COMMENT
> <Gold.Version>
2022.2.0

> <Gold.Id.Protein>
3pbl|protein|mol2

> <Gold.Protein.RotatedTorsions>
[ 1303 1298 1297 1294 ] final  127.40 input  179.99 | X-H torsion
[ 2461 2456 2455 2452 ] final   19.42 input   30.03 | X-H torsion
[ 2515 2510 2509 2506 ] final   16.85 input  -89.99 | X-H torsion
[ 3721 3712 3711 3710 ] final   72.05 input -179.91 | X-H torsion
[ 3841 3832 3831 3830 ] final  164.93 input -179.91 | X-H torsion
[ 3767 3762 3761 3758 ] final  166.62 input  -89.99 | X-H torsion
[ 2472 2467 2466 2463 ] final  121.53 input  -89.97 | X-H torsion

> <Gold.Protein.ActiveResidues>
 VAL82   VAL86   LEU89   PHE106  VAL107  ASP110  VAL111  MET112  CYS114  THR115 
 CYS181  SER182  ILE183  PHE188  VAL189  ILE190  SER192  SER193  SER196  TRP342 
 PHE345  PHE346  HIS349  VAL350  TYR365  THR369  GLY372  TYR373 

> <Gold.Protein.RotatedAtoms>
    4.8002   -9.6640    4.9491 H   0  0  0  0  0  0  0  0  0  0  0  0  # atno 1303 bound_to 1298
    1.3493   -7.9217    7.0719 H   0  0  0  0  0  0  0  0  0  0  0  0  # atno 2461 bound_to 2456
   -5.4281   -5.0843    8.1535 H   0  0  0  0  0  0  0  0  0  0  0  0  # atno 2472 bound_to 2467
    2.4236   -7.4856    4.8127 H   0  0  0  0  0  0  0  0  0  0  0  0  # atno 2515 bound_to 2510
   -2.6610  -17.8068   13.2497 H   0  0  0  0  0  0  0  0  0  0  0  0  # atno 3721 bound_to 3712
   -3.9918  -22.6983   11.4647 H   0  0  0  0  0  0  0  0  0  0  0  0  # atno 3767 bound_to 3762
    3.0655  -20.2274    8.5036 H   0  0  0  0  0  0  0  0  0  0  0  0  # atno 3841 bound_to 3832
    3.4302   -9.9648    4.1131 LP  0  0  0  0  0  0  0  0  0  0  0  0  # atno 4297 bound_to 1298
    4.1315   -8.4924    4.0291 LP  0  0  0  0  0  0  0  0  0  0  0  0  # atno 4298 bound_to 1298
    0.4066   -9.0154    7.8353 LP  0  0  0  0  0  0  0  0  0  0  0  0  # atno 4299 bound_to 2456
    1.9819   -8.8709    8.2408 LP  0  0  0  0  0  0  0  0  0  0  0  0  # atno 4300 bound_to 2456
    2.7861   -9.0770    4.7665 LP  0  0  0  0  0  0  0  0  0  0  0  0  # atno 4301 bound_to 2510
    2.0870   -8.4369    6.0963 LP  0  0  0  0  0  0  0  0  0  0  0  0  # atno 4302 bound_to 2510
   -2.8884  -17.5922   14.8246 LP  0  0  0  0  0  0  0  0  0  0  0  0  # atno 4306 bound_to 3712
   -3.5670  -16.5759   13.7414 LP  0  0  0  0  0  0  0  0  0  0  0  0  # atno 4307 bound_to 3712
    2.1453  -21.0683    9.5145 LP  0  0  0  0  0  0  0  0  0  0  0  0  # atno 4314 bound_to 3832
    1.5429  -19.7713    8.7262 LP  0  0  0  0  0  0  0  0  0  0  0  0  # atno 4315 bound_to 3832
   -4.7560  -23.2005   10.1117 LP  0  0  0  0  0  0  0  0  0  0  0  0  # atno 4318 bound_to 3762
   -5.3792  -21.9764   10.9948 LP  0  0  0  0  0  0  0  0  0  0  0  0  # atno 4319 bound_to 3762
   -3.8124   -4.8697    8.0535 LP  0  0  0  0  0  0  0  0  0  0  0  0  # atno 4320 bound_to 2467
   -4.4766   -5.4396    9.4321 LP  0  0  0  0  0  0  0  0  0  0  0  0  # atno 4321 bound_to 2467

> <Gold.Score>
     Score     S(PLP)   S(hbond)     S(cho)   S(metal)  DE(clash)   DE(tors)     intcor
     29.37     -27.24       0.75       0.00       0.00       0.00       0.21       0.32

> <Gold.PLP.Fitness>
29.3694

> <Gold.PLP.PLP>
-27.2405

> <Gold.PLP.part.hbond>
-2.0000

> <Gold.PLP.part.metal>
0.0000

> <Gold.PLP.part.buried>
-1.2821

> <Gold.PLP.part.nonpolar>
-24.0386

> <Gold.PLP.part.repulsive>
0.1141

> <Gold.PLP.ligand.clash>
0.0000

> <Gold.PLP.ligand.torsion>
0.2130

> <Gold.PLP.Chemscore.Hbond>
0.7454

> <Gold.PLP.Chemscore.CHOScore>
0.0000

> <Gold.PLP.Chemscore.Metal>
0.0000

> <Gold.Chemscore.Hbonds>
donor molecule, donor type, donor heavy atom, donor atom, acceptor molecule, acceptor atom, score
      P1  H  3712  3721       L1     1  0.75

> <Gold.PLP.Chemscore.Internal.Correction>
0.3185

