#       Name:                EN300-107901_i001
#       Creating user name   fsindt
#       Creation time:       Tue Feb 28 18:57:50 2023


#       File generated by GOLD software.
#

@<TRIPOS>MOLECULE
EN300-107901_i001|acide_2|mol2|6590|dock6
    27    28     1
SMALL
USER_CHARGES


@<TRIPOS>ATOM
      1 O1          -1.1645 -18.1070  15.3568 O.co2          1 <1>               -1.0000
      2 C2          -0.6659 -19.0890  14.8338 C.2            1 <1>                0.0000
      3 O3          -1.3681 -19.8781  14.2249 O.co2          1 <1>                0.0000
      4 C4           0.8047 -19.3218  14.9337 C.3            1 <1>                0.0000
      5 C5           1.7611 -18.1695  14.6764 C.3            1 <1>                0.0000
      6 C6           1.2369 -16.7980  14.3575 C.3            1 <1>                0.0000
      7 C7           1.3619 -16.5244  12.8156 C.3            1 <1>                0.0000
      8 C8          -0.1467 -16.6518  12.3999 C.3            1 <1>                0.0000
      9 C9          -0.6853 -18.0046  11.9969 C.3            1 <1>                0.0000
     10 C10          0.0349 -19.3055  11.9235 C.3            1 <1>                0.0000
     11 C11          1.4978 -19.1985  12.3019 C.3            1 <1>                0.0000
     12 C12          1.7616 -19.3790  13.7760 C.3            1 <1>                0.0000
     13 H13          1.0664 -19.9594  15.8126 H              1 <1>                0.0000
     14 H14          2.6251 -18.1079  15.4037 H              1 <1>                0.0000
     15 H15          0.2058 -16.6579  14.6628 H              1 <1>                0.0000
     16 H16          1.8482 -16.0378  14.8687 H              1 <1>                0.0000
     17 H17          1.6238 -15.4483  12.7107 H              1 <1>                0.0000
     18 H18          2.0678 -17.0920  12.3201 H              1 <1>                0.0000
     19 H19         -0.7412 -16.2529  13.2276 H              1 <1>                0.0000
     20 H20         -0.2858 -15.9540  11.5599 H              1 <1>                0.0000
     21 H21         -1.6239 -18.1614  12.5765 H              1 <1>                0.0000
     22 H22         -1.1166 -17.8418  10.9682 H              1 <1>                0.0000
     23 H23         -0.4747 -20.0950  12.5033 H              1 <1>                0.0000
     24 H24         -0.0311 -19.6908  10.8711 H              1 <1>                0.0000
     25 H25          1.9862 -20.1162  11.8003 H              1 <1>                0.0000
     26 H26          2.0522 -18.4484  11.7595 H              1 <1>                0.0000
     27 H27          2.6288 -20.1184  13.9401 H              1 <1>                0.0000
@<TRIPOS>BOND
    1    1    2 ar    
    2    2    3 ar    
    3    2    4 1     
    4    4    5 1     
    5    4   12 1     
    6    4   13 1     
    7    5    6 1     
    8    5   12 1     
    9    5   14 1     
   10    6    7 1     
   11    6   15 1     
   12    6   16 1     
   13    7    8 1     
   14    7   17 1     
   15    7   18 1     
   16    8    9 1     
   17    8   19 1     
   18    8   20 1     
   19    9   10 1     
   20    9   21 1     
   21    9   22 1     
   22   10   11 1     
   23   10   23 1     
   24   10   24 1     
   25   11   12 1     
   26   11   25 1     
   27   11   26 1     
   28   12   27 1     
@<TRIPOS>SUBSTRUCTURE
      1 ****           1
@<TRIPOS>COMMENT
> <Gold.Version>
2022.2.0

> <Gold.Id.Protein>
3pbl|protein|mol2

> <Gold.Protein.RotatedTorsions>
[ 1303 1298 1297 1294 ] final -156.39 input  179.99 | X-H torsion
[ 2461 2456 2455 2452 ] final   21.31 input   30.03 | X-H torsion
[ 2515 2510 2509 2506 ] final  -60.02 input  -89.99 | X-H torsion
[ 3721 3712 3711 3710 ] final  -39.28 input -179.91 | X-H torsion
[ 3841 3832 3831 3830 ] final  -29.74 input -179.91 | X-H torsion
[ 3767 3762 3761 3758 ] final  -81.11 input  -89.99 | X-H torsion
[ 2472 2467 2466 2463 ] final  -95.87 input  -89.97 | X-H torsion

> <Gold.Protein.ActiveResidues>
 VAL82   VAL86   LEU89   PHE106  VAL107  ASP110  VAL111  MET112  CYS114  THR115 
 CYS181  SER182  ILE183  PHE188  VAL189  ILE190  SER192  SER193  SER196  TRP342 
 PHE345  PHE346  HIS349  VAL350  TYR365  THR369  GLY372  TYR373 

> <Gold.Protein.RotatedAtoms>
    4.6756   -8.6174    4.4564 H   0  0  0  0  0  0  0  0  0  0  0  0  # atno 1303 bound_to 1298
    1.3793   -7.9193    7.0800 H   0  0  0  0  0  0  0  0  0  0  0  0  # atno 2461 bound_to 2456
   -4.1253   -5.3691    9.3416 H   0  0  0  0  0  0  0  0  0  0  0  0  # atno 2472 bound_to 2467
    2.8232   -8.5002    4.3840 H   0  0  0  0  0  0  0  0  0  0  0  0  # atno 2515 bound_to 2510
   -2.6575  -17.5935   14.6642 H   0  0  0  0  0  0  0  0  0  0  0  0  # atno 3721 bound_to 3712
   -5.3136  -21.9427   11.0982 H   0  0  0  0  0  0  0  0  0  0  0  0  # atno 3767 bound_to 3762
    1.5716  -20.1339    9.3449 H   0  0  0  0  0  0  0  0  0  0  0  0  # atno 3841 bound_to 3832
    4.3314  -10.1717    4.8197 LP  0  0  0  0  0  0  0  0  0  0  0  0  # atno 4297 bound_to 1298
    3.3549   -9.3324    3.8154 LP  0  0  0  0  0  0  0  0  0  0  0  0  # atno 4298 bound_to 1298
    0.3950   -8.9970    7.8129 LP  0  0  0  0  0  0  0  0  0  0  0  0  # atno 4299 bound_to 2456
    1.9635   -8.8916    8.2551 LP  0  0  0  0  0  0  0  0  0  0  0  0  # atno 4300 bound_to 2456
    2.3234   -9.0371    5.8427 LP  0  0  0  0  0  0  0  0  0  0  0  0  # atno 4301 bound_to 2510
    2.1499   -7.4618    5.4489 LP  0  0  0  0  0  0  0  0  0  0  0  0  # atno 4302 bound_to 2510
   -3.5668  -16.5616   13.8357 LP  0  0  0  0  0  0  0  0  0  0  0  0  # atno 4306 bound_to 3712
   -2.8927  -17.8527   13.0972 LP  0  0  0  0  0  0  0  0  0  0  0  0  # atno 4307 bound_to 3712
    2.5872  -19.8366    8.1381 LP  0  0  0  0  0  0  0  0  0  0  0  0  # atno 4314 bound_to 3832
    2.8268  -21.1110    9.1308 LP  0  0  0  0  0  0  0  0  0  0  0  0  # atno 4315 bound_to 3832
   -3.9505  -22.7931   11.3910 LP  0  0  0  0  0  0  0  0  0  0  0  0  # atno 4318 bound_to 3762
   -4.8634  -23.1391   10.0820 LP  0  0  0  0  0  0  0  0  0  0  0  0  # atno 4319 bound_to 3762
   -5.5097   -5.2137    8.4898 LP  0  0  0  0  0  0  0  0  0  0  0  0  # atno 4320 bound_to 2467
   -4.0818   -4.8108    7.8078 LP  0  0  0  0  0  0  0  0  0  0  0  0  # atno 4321 bound_to 2467

> <Gold.Score>
     Score     S(PLP)   S(hbond)     S(cho)   S(metal)  DE(clash)   DE(tors)     intcor
     30.57     -27.60       1.00       0.00       0.00       0.00       0.17       0.32

> <Gold.PLP.Fitness>
30.5743

> <Gold.PLP.PLP>
-27.6016

> <Gold.PLP.part.hbond>
-2.0000

> <Gold.PLP.part.metal>
0.0000

> <Gold.PLP.part.buried>
-0.8922

> <Gold.PLP.part.nonpolar>
-24.5789

> <Gold.PLP.part.repulsive>
0.0120

> <Gold.PLP.ligand.clash>
0.0000

> <Gold.PLP.ligand.torsion>
0.1729

> <Gold.PLP.Chemscore.Hbond>
1.0000

> <Gold.PLP.Chemscore.CHOScore>
0.0000

> <Gold.PLP.Chemscore.Metal>
0.0000

> <Gold.Chemscore.Hbonds>
donor molecule, donor type, donor heavy atom, donor atom, acceptor molecule, acceptor atom, score
      P1  H  3712  3721       L1     1  1.00

> <Gold.PLP.Chemscore.Internal.Correction>
0.3185

