#       Name:                EN300-107901_i001
#       Creating user name   fsindt
#       Creation time:       Tue Feb 28 18:57:53 2023


#       File generated by GOLD software.
#

@<TRIPOS>MOLECULE
EN300-107901_i001|acide_2|mol2|6590|dock14
    27    28     1
SMALL
USER_CHARGES


@<TRIPOS>ATOM
      1 O1          -1.1044 -18.9616  12.9522 O.co2          1 <1>               -1.0000
      2 C2          -0.2112 -19.3730  13.6728 C.2            1 <1>                0.0000
      3 O3          -0.2933 -19.2397  14.8820 O.co2          1 <1>                0.0000
      4 C4           0.9797 -20.0451  13.0754 C.3            1 <1>                0.0000
      5 C5           0.7789 -21.1029  12.0033 C.3            1 <1>                0.0000
      6 C6          -0.6011 -21.4491  11.5202 C.3            1 <1>                0.0000
      7 C7          -1.0687 -22.8022  12.1671 C.3            1 <1>                0.0000
      8 C8          -2.1119 -22.2542  13.2046 C.3            1 <1>                0.0000
      9 C9          -1.6431 -21.8882  14.5934 C.3            1 <1>                0.0000
     10 C10         -0.2703 -21.9777  15.1628 C.3            1 <1>                0.0000
     11 C11          0.7467 -22.5237  14.1819 C.3            1 <1>                0.0000
     12 C12          1.4004 -21.4658  13.3283 C.3            1 <1>                0.0000
     13 H13          1.8063 -19.3226  12.8705 H              1 <1>                0.0000
     14 H14          1.4998 -21.0308  11.1347 H              1 <1>                0.0000
     15 H15         -1.3314 -20.6776  11.7382 H              1 <1>                0.0000
     16 H16         -0.5859 -21.6033  10.4298 H              1 <1>                0.0000
     17 H17         -1.6564 -23.3338  11.3862 H              1 <1>                0.0000
     18 H18         -0.3114 -23.4212  12.4973 H              1 <1>                0.0000
     19 H19         -2.5982 -21.3894  12.7428 H              1 <1>                0.0000
     20 H20         -2.8869 -23.0314  13.2890 H              1 <1>                0.0000
     21 H21         -2.0404 -20.8695  14.8077 H              1 <1>                0.0000
     22 H22         -2.2938 -22.4998  15.2815 H              1 <1>                0.0000
     23 H23          0.0623 -21.0182  15.5960 H              1 <1>                0.0000
     24 H24         -0.2987 -22.6555  16.0572 H              1 <1>                0.0000
     25 H25          1.5953 -22.9279  14.8520 H              1 <1>                0.0000
     26 H26          0.4807 -23.4678  13.7322 H              1 <1>                0.0000
     27 H27          2.5427 -21.6098  13.3168 H              1 <1>                0.0000
@<TRIPOS>BOND
    1    1    2 ar    
    2    2    3 ar    
    3    2    4 1     
    4    4    5 1     
    5    4   12 1     
    6    4   13 1     
    7    5    6 1     
    8    5   12 1     
    9    5   14 1     
   10    6    7 1     
   11    6   15 1     
   12    6   16 1     
   13    7    8 1     
   14    7   17 1     
   15    7   18 1     
   16    8    9 1     
   17    8   19 1     
   18    8   20 1     
   19    9   10 1     
   20    9   21 1     
   21    9   22 1     
   22   10   11 1     
   23   10   23 1     
   24   10   24 1     
   25   11   12 1     
   26   11   25 1     
   27   11   26 1     
   28   12   27 1     
@<TRIPOS>SUBSTRUCTURE
      1 ****           1
@<TRIPOS>COMMENT
> <Gold.Version>
2022.2.0

> <Gold.Id.Protein>
3pbl|protein|mol2

> <Gold.Protein.RotatedTorsions>
[ 1303 1298 1297 1294 ] final  -93.84 input  179.99 | X-H torsion
[ 2461 2456 2455 2452 ] final  -39.26 input   30.03 | X-H torsion
[ 2515 2510 2509 2506 ] final  173.30 input  -89.99 | X-H torsion
[ 3721 3712 3711 3710 ] final   30.24 input -179.91 | X-H torsion
[ 3841 3832 3831 3830 ] final -100.39 input -179.91 | X-H torsion
[ 3767 3762 3761 3758 ] final  -63.13 input  -89.99 | X-H torsion
[ 2472 2467 2466 2463 ] final  -41.81 input  -89.97 | X-H torsion

> <Gold.Protein.ActiveResidues>
 VAL82   VAL86   LEU89   PHE106  VAL107  ASP110  VAL111  MET112  CYS114  THR115 
 CYS181  SER182  ILE183  PHE188  VAL189  ILE190  SER192  SER193  SER196  TRP342 
 PHE345  PHE346  HIS349  VAL350  TYR365  THR369  GLY372  TYR373 

> <Gold.Protein.RotatedAtoms>
    3.8763   -8.5951    3.8923 H   0  0  0  0  0  0  0  0  0  0  0  0  # atno 1303 bound_to 1298
    0.5226   -8.3199    7.1811 H   0  0  0  0  0  0  0  0  0  0  0  0  # atno 2461 bound_to 2456
   -3.6424   -5.0827    8.6943 H   0  0  0  0  0  0  0  0  0  0  0  0  # atno 2472 bound_to 2467
    2.2792   -8.9623    5.9098 H   0  0  0  0  0  0  0  0  0  0  0  0  # atno 2515 bound_to 2510
   -2.4830  -18.0326   13.7969 H   0  0  0  0  0  0  0  0  0  0  0  0  # atno 3721 bound_to 3712
   -5.4468  -22.0377   10.8531 H   0  0  0  0  0  0  0  0  0  0  0  0  # atno 3767 bound_to 3762
    1.9704  -19.5865    8.6078 H   0  0  0  0  0  0  0  0  0  0  0  0  # atno 3841 bound_to 3832
    4.8948   -9.3755    4.9022 LP  0  0  0  0  0  0  0  0  0  0  0  0  # atno 4297 bound_to 1298
    3.5912  -10.1510    4.2973 LP  0  0  0  0  0  0  0  0  0  0  0  0  # atno 4298 bound_to 1298
    1.1215   -9.2853    8.3544 LP  0  0  0  0  0  0  0  0  0  0  0  0  # atno 4299 bound_to 2456
    2.0934   -8.2029    7.6125 LP  0  0  0  0  0  0  0  0  0  0  0  0  # atno 4300 bound_to 2456
    2.1854   -7.4316    5.3494 LP  0  0  0  0  0  0  0  0  0  0  0  0  # atno 4301 bound_to 2510
    2.8322   -8.6049    4.4157 LP  0  0  0  0  0  0  0  0  0  0  0  0  # atno 4302 bound_to 2510
   -3.2304  -17.0028   14.7760 LP  0  0  0  0  0  0  0  0  0  0  0  0  # atno 4306 bound_to 3712
   -3.4305  -16.9046   13.1583 LP  0  0  0  0  0  0  0  0  0  0  0  0  # atno 4307 bound_to 3712
    3.1272  -20.6985    8.5754 LP  0  0  0  0  0  0  0  0  0  0  0  0  # atno 4314 bound_to 3832
    1.8260  -20.8815    9.5449 LP  0  0  0  0  0  0  0  0  0  0  0  0  # atno 4315 bound_to 3832
   -4.0679  -22.5717   11.5461 LP  0  0  0  0  0  0  0  0  0  0  0  0  # atno 4318 bound_to 3762
   -4.6129  -23.2654   10.1719 LP  0  0  0  0  0  0  0  0  0  0  0  0  # atno 4319 bound_to 3762
   -5.1429   -5.4402    9.2303 LP  0  0  0  0  0  0  0  0  0  0  0  0  # atno 4320 bound_to 2467
   -4.9314   -4.8706    7.7146 LP  0  0  0  0  0  0  0  0  0  0  0  0  # atno 4321 bound_to 2467

> <Gold.Score>
     Score     S(PLP)   S(hbond)     S(cho)   S(metal)  DE(clash)   DE(tors)     intcor
     29.72     -26.75       1.00       0.00       0.00       0.00       0.17       0.32

> <Gold.PLP.Fitness>
29.7227

> <Gold.PLP.PLP>
-26.7453

> <Gold.PLP.part.hbond>
-1.0000

> <Gold.PLP.part.metal>
0.0000

> <Gold.PLP.part.buried>
-2.6097

> <Gold.PLP.part.nonpolar>
-23.2568

> <Gold.PLP.part.repulsive>
0.0270

> <Gold.PLP.ligand.clash>
0.0000

> <Gold.PLP.ligand.torsion>
0.1705

> <Gold.PLP.Chemscore.Hbond>
1.0000

> <Gold.PLP.Chemscore.CHOScore>
0.0000

> <Gold.PLP.Chemscore.Metal>
0.0000

> <Gold.Chemscore.Hbonds>
donor molecule, donor type, donor heavy atom, donor atom, acceptor molecule, acceptor atom, score
      P1  H  3712  3721       L1     1  1.00

> <Gold.PLP.Chemscore.Internal.Correction>
0.3185

