#       Name:                EN300-107901_i001
#       Creating user name   fsindt
#       Creation time:       Tue Feb 28 18:57:50 2023


#       File generated by GOLD software.
#

@<TRIPOS>MOLECULE
EN300-107901_i001|acide_2|mol2|6590|dock4
    27    28     1
SMALL
USER_CHARGES


@<TRIPOS>ATOM
      1 O1          -0.3287 -20.4986  16.0013 O.co2          1 <1>               -1.0000
      2 C2          -0.1757 -20.1825  14.8338 C.2            1 <1>                0.0000
      3 O3          -1.0162 -19.5014  14.2715 O.co2          1 <1>                0.0000
      4 C4           1.0432 -20.6241  14.0949 C.3            1 <1>                0.0000
      5 C5           0.8990 -21.2030  12.6975 C.3            1 <1>                0.0000
      6 C6          -0.4517 -21.3010  12.0465 C.3            1 <1>                0.0000
      7 C7          -0.9722 -22.7814  12.1185 C.3            1 <1>                0.0000
      8 C8          -2.0724 -22.6227  13.2273 C.3            1 <1>                0.0000
      9 C9          -1.6873 -22.8119  14.6758 C.3            1 <1>                0.0000
     10 C10         -0.3536 -23.1502  15.2446 C.3            1 <1>                0.0000
     11 C11          0.7170 -23.3272  14.1877 C.3            1 <1>                0.0000
     12 C12          1.4331 -22.0503  13.8246 C.3            1 <1>                0.0000
     13 H13          1.8882 -19.9042  14.2180 H              1 <1>                0.0000
     14 H14          1.6733 -20.8380  11.9582 H              1 <1>                0.0000
     15 H15         -1.1863 -20.6416  12.4956 H              1 <1>                0.0000
     16 H16         -0.3701 -21.0412  10.9794 H              1 <1>                0.0000
     17 H17         -1.5153 -22.9670  11.1655 H              1 <1>                0.0000
     18 H18         -0.2431 -23.5029  12.2358 H              1 <1>                0.0000
     19 H19         -2.5203 -21.6331  13.0939 H              1 <1>                0.0000
     20 H20         -2.8589 -23.3504  12.9750 H              1 <1>                0.0000
     21 H21         -2.0870 -21.9325  15.2312 H              1 <1>                0.0000
     22 H22         -2.3857 -23.6132  15.0514 H              1 <1>                0.0000
     23 H23         -0.0390 -22.4303  16.0205 H              1 <1>                0.0000
     24 H24         -0.4444 -24.1095  15.8205 H              1 <1>                0.0000
     25 H25          1.5181 -23.9779  14.7047 H              1 <1>                0.0000
     26 H26          0.4701 -24.0288  13.4060 H              1 <1>                0.0000
     27 H27          2.5724 -22.2167  13.8223 H              1 <1>                0.0000
@<TRIPOS>BOND
    1    1    2 ar    
    2    2    3 ar    
    3    2    4 1     
    4    4    5 1     
    5    4   12 1     
    6    4   13 1     
    7    5    6 1     
    8    5   12 1     
    9    5   14 1     
   10    6    7 1     
   11    6   15 1     
   12    6   16 1     
   13    7    8 1     
   14    7   17 1     
   15    7   18 1     
   16    8    9 1     
   17    8   19 1     
   18    8   20 1     
   19    9   10 1     
   20    9   21 1     
   21    9   22 1     
   22   10   11 1     
   23   10   23 1     
   24   10   24 1     
   25   11   12 1     
   26   11   25 1     
   27   11   26 1     
   28   12   27 1     
@<TRIPOS>SUBSTRUCTURE
      1 ****           1
@<TRIPOS>COMMENT
> <Gold.Version>
2022.2.0

> <Gold.Id.Protein>
3pbl|protein|mol2

> <Gold.Protein.RotatedTorsions>
[ 1303 1298 1297 1294 ] final   25.20 input  179.99 | X-H torsion
[ 2461 2456 2455 2452 ] final  165.98 input   30.03 | X-H torsion
[ 2515 2510 2509 2506 ] final  -84.85 input  -89.99 | X-H torsion
[ 3721 3712 3711 3710 ] final   14.75 input -179.91 | X-H torsion
[ 3841 3832 3831 3830 ] final -142.58 input -179.91 | X-H torsion
[ 3767 3762 3761 3758 ] final  -53.43 input  -89.99 | X-H torsion
[ 2472 2467 2466 2463 ] final   87.01 input  -89.97 | X-H torsion

> <Gold.Protein.ActiveResidues>
 VAL82   VAL86   LEU89   PHE106  VAL107  ASP110  VAL111  MET112  CYS114  THR115 
 CYS181  SER182  ILE183  PHE188  VAL189  ILE190  SER192  SER193  SER196  TRP342 
 PHE345  PHE346  HIS349  VAL350  TYR365  THR369  GLY372  TYR373 

> <Gold.Protein.RotatedAtoms>
    3.5813  -10.1430    4.2880 H   0  0  0  0  0  0  0  0  0  0  0  0  # atno 1303 bound_to 1298
    1.6609   -9.1250    8.3827 H   0  0  0  0  0  0  0  0  0  0  0  0  # atno 2461 bound_to 2456
   -5.0600   -4.9061    7.7715 H   0  0  0  0  0  0  0  0  0  0  0  0  # atno 2472 bound_to 2467
    2.8292   -8.8665    4.5572 H   0  0  0  0  0  0  0  0  0  0  0  0  # atno 2515 bound_to 2510
   -2.4700  -18.0192   14.0296 H   0  0  0  0  0  0  0  0  0  0  0  0  # atno 3721 bound_to 3712
   -5.4893  -22.1135   10.7195 H   0  0  0  0  0  0  0  0  0  0  0  0  # atno 3767 bound_to 3762
    2.5312  -19.6980    8.3604 H   0  0  0  0  0  0  0  0  0  0  0  0  # atno 3841 bound_to 3832
    3.8891   -8.5877    3.8977 LP  0  0  0  0  0  0  0  0  0  0  0  0  # atno 4297 bound_to 1298
    4.8919   -9.3903    4.9060 LP  0  0  0  0  0  0  0  0  0  0  0  0  # atno 4298 bound_to 1298
    1.7451   -7.9565    7.2447 LP  0  0  0  0  0  0  0  0  0  0  0  0  # atno 4299 bound_to 2456
    0.3319   -8.7268    7.5209 LP  0  0  0  0  0  0  0  0  0  0  0  0  # atno 4300 bound_to 2456
    2.1702   -8.7202    6.0439 LP  0  0  0  0  0  0  0  0  0  0  0  0  # atno 4301 bound_to 2510
    2.2971   -7.4122    5.0745 LP  0  0  0  0  0  0  0  0  0  0  0  0  # atno 4302 bound_to 2510
   -3.3477  -16.8197   14.6369 LP  0  0  0  0  0  0  0  0  0  0  0  0  # atno 4306 bound_to 3712
   -3.3283  -17.1031   13.0288 LP  0  0  0  0  0  0  0  0  0  0  0  0  # atno 4307 bound_to 3712
    2.8735  -21.0897    9.0828 LP  0  0  0  0  0  0  0  0  0  0  0  0  # atno 4314 bound_to 3832
    1.4319  -20.3614    9.3233 LP  0  0  0  0  0  0  0  0  0  0  0  0  # atno 4315 bound_to 3832
   -4.1582  -22.4532   11.6025 LP  0  0  0  0  0  0  0  0  0  0  0  0  # atno 4318 bound_to 3762
   -4.4802  -23.3082   10.2490 LP  0  0  0  0  0  0  0  0  0  0  0  0  # atno 4319 bound_to 3762
   -3.6348   -5.0322    8.5585 LP  0  0  0  0  0  0  0  0  0  0  0  0  # atno 4320 bound_to 2467
   -5.0221   -5.4552    9.3089 LP  0  0  0  0  0  0  0  0  0  0  0  0  # atno 4321 bound_to 2467

> <Gold.Score>
     Score     S(PLP)   S(hbond)     S(cho)   S(metal)  DE(clash)   DE(tors)     intcor
     30.71     -27.74       1.00       0.00       0.00       0.00       0.17       0.32

> <Gold.PLP.Fitness>
30.7145

> <Gold.PLP.PLP>
-27.7371

> <Gold.PLP.part.hbond>
-1.0000

> <Gold.PLP.part.metal>
0.0000

> <Gold.PLP.part.buried>
-2.5651

> <Gold.PLP.part.nonpolar>
-24.2026

> <Gold.PLP.part.repulsive>
0.0465

> <Gold.PLP.ligand.clash>
0.0000

> <Gold.PLP.ligand.torsion>
0.1705

> <Gold.PLP.Chemscore.Hbond>
1.0000

> <Gold.PLP.Chemscore.CHOScore>
0.0000

> <Gold.PLP.Chemscore.Metal>
0.0000

> <Gold.Chemscore.Hbonds>
donor molecule, donor type, donor heavy atom, donor atom, acceptor molecule, acceptor atom, score
      P1  H  3712  3721       L1     3  1.00

> <Gold.PLP.Chemscore.Internal.Correction>
0.3185

