#       Name:                EN300-107901_i001
#       Creating user name   fsindt
#       Creation time:       Tue Feb 28 18:57:51 2023


#       File generated by GOLD software.
#

@<TRIPOS>MOLECULE
EN300-107901_i001|acide_2|mol2|6590|dock9
    27    28     1
SMALL
USER_CHARGES


@<TRIPOS>ATOM
      1 O1           0.8733 -19.1095  15.1280 O.co2          1 <1>               -1.0000
      2 C2           0.3008 -18.0500  14.9378 C.2            1 <1>                0.0000
      3 O3          -0.9177 -18.0072  14.9366 O.co2          1 <1>                0.0000
      4 C4           1.0915 -16.8047  14.7126 C.3            1 <1>                0.0000
      5 C5           0.6971 -15.8648  13.5857 C.3            1 <1>                0.0000
      6 C6          -0.4973 -16.1633  12.7244 C.3            1 <1>                0.0000
      7 C7          -0.0265 -16.7396  11.3409 C.3            1 <1>                0.0000
      8 C8          -0.4163 -18.2481  11.5349 C.3            1 <1>                0.0000
      9 C9           0.5934 -19.1951  12.1401 C.3            1 <1>                0.0000
     10 C10          1.9789 -18.9037  12.6005 C.3            1 <1>                0.0000
     11 C11          2.3802 -17.4565  12.4026 C.3            1 <1>                0.0000
     12 C12          2.0338 -16.5624  13.5669 C.3            1 <1>                0.0000
     13 H13          1.3541 -16.2989  15.6731 H              1 <1>                0.0000
     14 H14          0.7281 -14.7679  13.8596 H              1 <1>                0.0000
     15 H15         -1.1877 -16.8608  13.1858 H              1 <1>                0.0000
     16 H16         -1.0462 -15.2320  12.5138 H              1 <1>                0.0000
     17 H17         -0.7277 -16.3325  10.5792 H              1 <1>                0.0000
     18 H18          0.9406 -16.5032  11.0677 H              1 <1>                0.0000
     19 H19         -1.3365 -18.2669  12.1269 H              1 <1>                0.0000
     20 H20         -0.6890 -18.6179  10.5346 H              1 <1>                0.0000
     21 H21          0.0679 -19.7470  12.9530 H              1 <1>                0.0000
     22 H22          0.6972 -20.0209  11.3797 H              1 <1>                0.0000
     23 H23          2.1470 -19.2298  13.6419 H              1 <1>                0.0000
     24 H24          2.6906 -19.5507  12.0216 H              1 <1>                0.0000
     25 H25          3.5340 -17.4842  12.3850 H              1 <1>                0.0000
     26 H26          2.2478 -17.0830  11.3989 H              1 <1>                0.0000
     27 H27          2.9376 -15.9090  13.8530 H              1 <1>                0.0000
@<TRIPOS>BOND
    1    1    2 ar    
    2    2    3 ar    
    3    2    4 1     
    4    4    5 1     
    5    4   12 1     
    6    4   13 1     
    7    5    6 1     
    8    5   12 1     
    9    5   14 1     
   10    6    7 1     
   11    6   15 1     
   12    6   16 1     
   13    7    8 1     
   14    7   17 1     
   15    7   18 1     
   16    8    9 1     
   17    8   19 1     
   18    8   20 1     
   19    9   10 1     
   20    9   21 1     
   21    9   22 1     
   22   10   11 1     
   23   10   23 1     
   24   10   24 1     
   25   11   12 1     
   26   11   25 1     
   27   11   26 1     
   28   12   27 1     
@<TRIPOS>SUBSTRUCTURE
      1 ****           1
@<TRIPOS>COMMENT
> <Gold.Version>
2022.2.0

> <Gold.Id.Protein>
3pbl|protein|mol2

> <Gold.Protein.RotatedTorsions>
[ 1303 1298 1297 1294 ] final   95.62 input  179.99 | X-H torsion
[ 2461 2456 2455 2452 ] final  -14.90 input   30.03 | X-H torsion
[ 2515 2510 2509 2506 ] final -176.68 input  -89.99 | X-H torsion
[ 3721 3712 3711 3710 ] final  -10.40 input -179.91 | X-H torsion
[ 3841 3832 3831 3830 ] final  127.72 input -179.91 | X-H torsion
[ 3767 3762 3761 3758 ] final -104.14 input  -89.99 | X-H torsion
[ 2472 2467 2466 2463 ] final   12.63 input  -89.97 | X-H torsion

> <Gold.Protein.ActiveResidues>
 VAL82   VAL86   LEU89   PHE106  VAL107  ASP110  VAL111  MET112  CYS114  THR115 
 CYS181  SER182  ILE183  PHE188  VAL189  ILE190  SER192  SER193  SER196  TRP342 
 PHE345  PHE346  HIS349  VAL350  TYR365  THR369  GLY372  TYR373 

> <Gold.Protein.RotatedAtoms>
    4.4852  -10.0680    4.8870 H   0  0  0  0  0  0  0  0  0  0  0  0  # atno 1303 bound_to 1298
    0.8184   -8.0873    7.0520 H   0  0  0  0  0  0  0  0  0  0  0  0  # atno 2461 bound_to 2456
   -3.9323   -4.8357    7.9204 H   0  0  0  0  0  0  0  0  0  0  0  0  # atno 2472 bound_to 2467
    2.3464   -9.0705    5.8057 H   0  0  0  0  0  0  0  0  0  0  0  0  # atno 2515 bound_to 2510
   -2.5155  -17.8854   14.3794 H   0  0  0  0  0  0  0  0  0  0  0  0  # atno 3721 bound_to 3712
   -5.0592  -21.9189   11.3747 H   0  0  0  0  0  0  0  0  0  0  0  0  # atno 3767 bound_to 3762
    3.1124  -20.6516    8.8543 H   0  0  0  0  0  0  0  0  0  0  0  0  # atno 3841 bound_to 3832
    3.3303   -9.5199    3.8711 LP  0  0  0  0  0  0  0  0  0  0  0  0  # atno 4297 bound_to 1298
    4.5465   -8.5331    4.3333 LP  0  0  0  0  0  0  0  0  0  0  0  0  # atno 4298 bound_to 1298
    0.7586   -9.2524    8.1949 LP  0  0  0  0  0  0  0  0  0  0  0  0  # atno 4299 bound_to 2456
    2.1606   -8.4683    7.9010 LP  0  0  0  0  0  0  0  0  0  0  0  0  # atno 4300 bound_to 2456
    2.1336   -7.4813    5.4975 LP  0  0  0  0  0  0  0  0  0  0  0  0  # atno 4301 bound_to 2510
    2.8167   -8.4471    4.3718 LP  0  0  0  0  0  0  0  0  0  0  0  0  # atno 4302 bound_to 2510
   -3.4945  -16.6151   14.3046 LP  0  0  0  0  0  0  0  0  0  0  0  0  # atno 4306 bound_to 3712
   -3.1289  -17.4622   12.9572 LP  0  0  0  0  0  0  0  0  0  0  0  0  # atno 4307 bound_to 3712
    1.6472  -20.7147    9.5063 LP  0  0  0  0  0  0  0  0  0  0  0  0  # atno 4314 bound_to 3832
    1.9869  -19.6349    8.3293 LP  0  0  0  0  0  0  0  0  0  0  0  0  # atno 4315 bound_to 3832
   -3.9092  -23.0497   11.1189 LP  0  0  0  0  0  0  0  0  0  0  0  0  # atno 4318 bound_to 3762
   -5.1590  -22.9062   10.0777 LP  0  0  0  0  0  0  0  0  0  0  0  0  # atno 4319 bound_to 3762
   -4.2986   -5.4100    9.4044 LP  0  0  0  0  0  0  0  0  0  0  0  0  # atno 4320 bound_to 2467
   -5.4859   -5.1478    8.3143 LP  0  0  0  0  0  0  0  0  0  0  0  0  # atno 4321 bound_to 2467

> <Gold.Score>
     Score     S(PLP)   S(hbond)     S(cho)   S(metal)  DE(clash)   DE(tors)     intcor
     31.71     -28.76       1.00       0.00       0.00       0.00       0.18       0.32

> <Gold.PLP.Fitness>
31.7109

> <Gold.PLP.PLP>
-28.7573

> <Gold.PLP.part.hbond>
-1.0000

> <Gold.PLP.part.metal>
0.0000

> <Gold.PLP.part.buried>
-0.2572

> <Gold.PLP.part.nonpolar>
-28.3986

> <Gold.PLP.part.repulsive>
0.0873

> <Gold.PLP.ligand.clash>
0.0000

> <Gold.PLP.ligand.torsion>
0.1824

> <Gold.PLP.Chemscore.Hbond>
1.0000

> <Gold.PLP.Chemscore.CHOScore>
0.0000

> <Gold.PLP.Chemscore.Metal>
0.0000

> <Gold.Chemscore.Hbonds>
donor molecule, donor type, donor heavy atom, donor atom, acceptor molecule, acceptor atom, score
      P1  H  3712  3721       L1     3  1.00

> <Gold.PLP.Chemscore.Internal.Correction>
0.3185

