#       Name:                EN300-107901_i001
#       Creating user name   fsindt
#       Creation time:       Tue Feb 28 18:57:54 2023


#       File generated by GOLD software.
#

@<TRIPOS>MOLECULE
EN300-107901_i001|acide_2|mol2|6590|dock17
    27    28     1
SMALL
USER_CHARGES


@<TRIPOS>ATOM
      1 O1          -1.0299 -17.6861  12.0791 O.co2          1 <1>               -1.0000
      2 C2          -0.6701 -18.8304  12.2976 C.2            1 <1>                0.0000
      3 O3          -1.4020 -19.5942  12.9037 O.co2          1 <1>                0.0000
      4 C4           0.6634 -19.2977  11.8179 C.3            1 <1>                0.0000
      5 C5           1.4530 -20.2873  12.6580 C.3            1 <1>                0.0000
      6 C6           0.8872 -20.8206  13.9437 C.3            1 <1>                0.0000
      7 C7           1.5562 -20.0915  15.1638 C.3            1 <1>                0.0000
      8 C8           0.3665 -19.1672  15.6060 C.3            1 <1>                0.0000
      9 C9           0.2437 -17.7887  15.0001 C.3            1 <1>                0.0000
     10 C10          1.1287 -17.1334  13.9982 C.3            1 <1>                0.0000
     11 C11          2.2944 -18.0030  13.5744 C.3            1 <1>                0.0000
     12 C12          1.9906 -18.9020  12.4020 C.3            1 <1>                0.0000
     13 H13          0.6595 -19.5130  10.7220 H              1 <1>                0.0000
     14 H14          1.9463 -21.1145  12.0650 H              1 <1>                0.0000
     15 H15         -0.1899 -20.7118  14.0090 H              1 <1>                0.0000
     16 H16          1.1262 -21.8914  14.0396 H              1 <1>                0.0000
     17 H17          1.6675 -20.8585  15.9619 H              1 <1>                0.0000
     18 H18          2.4778 -19.6661  14.9755 H              1 <1>                0.0000
     19 H19         -0.5566 -19.7280  15.4297 H              1 <1>                0.0000
     20 H20          0.4574 -19.0640  16.6981 H              1 <1>                0.0000
     21 H21         -0.8095 -17.6845  14.6516 H              1 <1>                0.0000
     22 H22          0.2254 -17.0916  15.8859 H              1 <1>                0.0000
     23 H23          0.5636 -16.7632  13.1249 H              1 <1>                0.0000
     24 H24          1.5367 -16.1885  14.4466 H              1 <1>                0.0000
     25 H25          3.0754 -17.2522  13.1758 H              1 <1>                0.0000
     26 H26          2.8919 -18.3869  14.3868 H              1 <1>                0.0000
     27 H27          2.8298 -18.8336  11.6167 H              1 <1>                0.0000
@<TRIPOS>BOND
    1    1    2 ar    
    2    2    3 ar    
    3    2    4 1     
    4    4    5 1     
    5    4   12 1     
    6    4   13 1     
    7    5    6 1     
    8    5   12 1     
    9    5   14 1     
   10    6    7 1     
   11    6   15 1     
   12    6   16 1     
   13    7    8 1     
   14    7   17 1     
   15    7   18 1     
   16    8    9 1     
   17    8   19 1     
   18    8   20 1     
   19    9   10 1     
   20    9   21 1     
   21    9   22 1     
   22   10   11 1     
   23   10   23 1     
   24   10   24 1     
   25   11   12 1     
   26   11   25 1     
   27   11   26 1     
   28   12   27 1     
@<TRIPOS>SUBSTRUCTURE
      1 ****           1
@<TRIPOS>COMMENT
> <Gold.Version>
2022.2.0

> <Gold.Id.Protein>
3pbl|protein|mol2

> <Gold.Protein.RotatedTorsions>
[ 1303 1298 1297 1294 ] final -123.95 input  179.99 | X-H torsion
[ 2461 2456 2455 2452 ] final  124.02 input   30.03 | X-H torsion
[ 2515 2510 2509 2506 ] final  117.90 input  -89.99 | X-H torsion
[ 3721 3712 3711 3710 ] final   87.21 input -179.91 | X-H torsion
[ 3841 3832 3831 3830 ] final  -23.56 input -179.91 | X-H torsion
[ 3767 3762 3761 3758 ] final  -61.20 input  -89.99 | X-H torsion
[ 2472 2467 2466 2463 ] final  131.77 input  -89.97 | X-H torsion

> <Gold.Protein.ActiveResidues>
 VAL82   VAL86   LEU89   PHE106  VAL107  ASP110  VAL111  MET112  CYS114  THR115 
 CYS181  SER182  ILE183  PHE188  VAL189  ILE190  SER192  SER193  SER196  TRP342 
 PHE345  PHE346  HIS349  VAL350  TYR365  THR369  GLY372  TYR373 

> <Gold.Protein.RotatedAtoms>
    4.2866   -8.4756    4.1310 H   0  0  0  0  0  0  0  0  0  0  0  0  # atno 1303 bound_to 1298
    2.1002   -8.6936    8.1051 H   0  0  0  0  0  0  0  0  0  0  0  0  # atno 2461 bound_to 2456
   -5.4826   -5.1435    8.3012 H   0  0  0  0  0  0  0  0  0  0  0  0  # atno 2472 bound_to 2467
    2.0381   -8.1329    6.0574 H   0  0  0  0  0  0  0  0  0  0  0  0  # atno 2515 bound_to 2510
   -2.7637  -17.6476   13.1219 H   0  0  0  0  0  0  0  0  0  0  0  0  # atno 3721 bound_to 3712
   -5.4570  -22.0515   10.8263 H   0  0  0  0  0  0  0  0  0  0  0  0  # atno 3767 bound_to 3762
    1.5897  -20.2074    9.3994 H   0  0  0  0  0  0  0  0  0  0  0  0  # atno 3841 bound_to 3832
    4.7077   -9.8258    4.9470 LP  0  0  0  0  0  0  0  0  0  0  0  0  # atno 4297 bound_to 1298
    3.3678   -9.8203    4.0137 LP  0  0  0  0  0  0  0  0  0  0  0  0  # atno 4298 bound_to 1298
    1.1041   -7.9686    7.0330 LP  0  0  0  0  0  0  0  0  0  0  0  0  # atno 4299 bound_to 2456
    0.5338   -9.1460    8.0102 LP  0  0  0  0  0  0  0  0  0  0  0  0  # atno 4300 bound_to 2456
    2.5550   -7.6513    4.5855 LP  0  0  0  0  0  0  0  0  0  0  0  0  # atno 4301 bound_to 2510
    2.7038   -9.2150    5.0320 LP  0  0  0  0  0  0  0  0  0  0  0  0  # atno 4302 bound_to 2510
   -2.7810  -17.7958   14.7205 LP  0  0  0  0  0  0  0  0  0  0  0  0  # atno 4306 bound_to 3712
   -3.5560  -16.5561   13.9930 LP  0  0  0  0  0  0  0  0  0  0  0  0  # atno 4307 bound_to 3712
    2.4986  -19.7842    8.1461 LP  0  0  0  0  0  0  0  0  0  0  0  0  # atno 4314 bound_to 3832
    2.8943  -21.0785    9.0598 LP  0  0  0  0  0  0  0  0  0  0  0  0  # atno 4315 bound_to 3832
   -4.0845  -22.5479   11.5589 LP  0  0  0  0  0  0  0  0  0  0  0  0  # atno 4318 bound_to 3762
   -4.5861  -23.2755   10.1858 LP  0  0  0  0  0  0  0  0  0  0  0  0  # atno 4319 bound_to 3762
   -3.9222   -4.8373    7.9302 LP  0  0  0  0  0  0  0  0  0  0  0  0  # atno 4320 bound_to 2467
   -4.3123   -5.4127    9.4077 LP  0  0  0  0  0  0  0  0  0  0  0  0  # atno 4321 bound_to 2467

> <Gold.Score>
     Score     S(PLP)   S(hbond)     S(cho)   S(metal)  DE(clash)   DE(tors)     intcor
     29.54     -27.21       1.00       0.00       0.00       0.00       0.49       0.32

> <Gold.PLP.Fitness>
29.5423

> <Gold.PLP.PLP>
-27.2118

> <Gold.PLP.part.hbond>
-2.0000

> <Gold.PLP.part.metal>
0.0000

> <Gold.PLP.part.buried>
-1.6446

> <Gold.PLP.part.nonpolar>
-24.0719

> <Gold.PLP.part.repulsive>
0.0537

> <Gold.PLP.ligand.clash>
0.0000

> <Gold.PLP.ligand.torsion>
0.4940

> <Gold.PLP.Chemscore.Hbond>
1.0000

> <Gold.PLP.Chemscore.CHOScore>
0.0000

> <Gold.PLP.Chemscore.Metal>
0.0000

> <Gold.Chemscore.Hbonds>
donor molecule, donor type, donor heavy atom, donor atom, acceptor molecule, acceptor atom, score
      P1  H  3712  3721       L1     1  1.00

> <Gold.PLP.Chemscore.Internal.Correction>
0.3185

