#       Name:                EN300-107901_i001
#       Creating user name   fsindt
#       Creation time:       Tue Feb 28 18:57:52 2023


#       File generated by GOLD software.
#

@<TRIPOS>MOLECULE
EN300-107901_i001|acide_2|mol2|6590|dock10
    27    28     1
SMALL
USER_CHARGES


@<TRIPOS>ATOM
      1 O1          -1.4672 -18.4025  12.3106 O.co2          1 <1>               -1.0000
      2 C2          -0.4508 -18.2813  11.6483 C.2            1 <1>                0.0000
      3 O3          -0.3641 -17.3883  10.8228 O.co2          1 <1>                0.0000
      4 C4           0.6894 -19.2221  11.8524 C.3            1 <1>                0.0000
      5 C5           0.9486 -19.7899  13.2377 C.3            1 <1>                0.0000
      6 C6           0.0485 -19.4384  14.3884 C.3            1 <1>                0.0000
      7 C7           0.7429 -18.3633  15.2994 C.3            1 <1>                0.0000
      8 C8          -0.0985 -17.0976  14.9053 C.3            1 <1>                0.0000
      9 C9           0.3608 -16.2423  13.7478 C.3            1 <1>                0.0000
     10 C10          1.5570 -16.4209  12.8795 C.3            1 <1>                0.0000
     11 C11          2.3926 -17.6264  13.2577 C.3            1 <1>                0.0000
     12 C12          1.9693 -18.9017  12.5724 C.3            1 <1>                0.0000
     13 H13          0.7720 -19.9627  11.0205 H              1 <1>                0.0000
     14 H14          1.2022 -20.8921  13.2511 H              1 <1>                0.0000
     15 H15         -0.9189 -19.0660  14.0700 H              1 <1>                0.0000
     16 H16         -0.1201 -20.3286  15.0144 H              1 <1>                0.0000
     17 H17          0.4591 -18.6121  16.3459 H              1 <1>                0.0000
     18 H18          1.7722 -18.3219  15.2311 H              1 <1>                0.0000
     19 H19         -1.1228 -17.4381  14.7250 H              1 <1>                0.0000
     20 H20         -0.1394 -16.4717  15.8100 H              1 <1>                0.0000
     21 H21         -0.5252 -16.0921  13.0890 H              1 <1>                0.0000
     22 H22          0.4577 -15.2068  14.1828 H              1 <1>                0.0000
     23 H23          1.2931 -16.4337  11.8075 H              1 <1>                0.0000
     24 H24          2.1994 -15.5043  12.9645 H              1 <1>                0.0000
     25 H25          3.4369 -17.3919  12.8256 H              1 <1>                0.0000
     26 H26          2.6906 -17.6638  14.2941 H              1 <1>                0.0000
     27 H27          2.8853 -19.4430  12.1324 H              1 <1>                0.0000
@<TRIPOS>BOND
    1    1    2 ar    
    2    2    3 ar    
    3    2    4 1     
    4    4    5 1     
    5    4   12 1     
    6    4   13 1     
    7    5    6 1     
    8    5   12 1     
    9    5   14 1     
   10    6    7 1     
   11    6   15 1     
   12    6   16 1     
   13    7    8 1     
   14    7   17 1     
   15    7   18 1     
   16    8    9 1     
   17    8   19 1     
   18    8   20 1     
   19    9   10 1     
   20    9   21 1     
   21    9   22 1     
   22   10   11 1     
   23   10   23 1     
   24   10   24 1     
   25   11   12 1     
   26   11   25 1     
   27   11   26 1     
   28   12   27 1     
@<TRIPOS>SUBSTRUCTURE
      1 ****           1
@<TRIPOS>COMMENT
> <Gold.Version>
2022.2.0

> <Gold.Id.Protein>
3pbl|protein|mol2

> <Gold.Protein.RotatedTorsions>
[ 1303 1298 1297 1294 ] final   69.25 input  179.99 | X-H torsion
[ 2461 2456 2455 2452 ] final  -22.82 input   30.03 | X-H torsion
[ 2515 2510 2509 2506 ] final   30.49 input  -89.99 | X-H torsion
[ 3721 3712 3711 3710 ] final   73.14 input -179.91 | X-H torsion
[ 3841 3832 3831 3830 ] final -163.92 input -179.91 | X-H torsion
[ 3767 3762 3761 3758 ] final   41.58 input  -89.99 | X-H torsion
[ 2472 2467 2466 2463 ] final  -81.44 input  -89.97 | X-H torsion

> <Gold.Protein.ActiveResidues>
 VAL82   VAL86   LEU89   PHE106  VAL107  ASP110  VAL111  MET112  CYS114  THR115 
 CYS181  SER182  ILE183  PHE188  VAL189  ILE190  SER192  SER193  SER196  TRP342 
 PHE345  PHE346  HIS349  VAL350  TYR365  THR369  GLY372  TYR373 

> <Gold.Protein.RotatedAtoms>
    4.1355  -10.2488    4.7141 H   0  0  0  0  0  0  0  0  0  0  0  0  # atno 1303 bound_to 1298
    0.7110   -8.1546    7.0817 H   0  0  0  0  0  0  0  0  0  0  0  0  # atno 2461 bound_to 2456
   -3.9340   -5.3037    9.2185 H   0  0  0  0  0  0  0  0  0  0  0  0  # atno 2472 bound_to 2467
    2.3287   -7.4224    5.0054 H   0  0  0  0  0  0  0  0  0  0  0  0  # atno 2515 bound_to 2510
   -2.6679  -17.7965   13.2389 H   0  0  0  0  0  0  0  0  0  0  0  0  # atno 3721 bound_to 3712
   -4.8259  -23.1612   10.0902 H   0  0  0  0  0  0  0  0  0  0  0  0  # atno 3767 bound_to 3762
    2.7968  -19.8776    8.3568 H   0  0  0  0  0  0  0  0  0  0  0  0  # atno 3841 bound_to 3832
    3.4282   -9.1110    3.7805 LP  0  0  0  0  0  0  0  0  0  0  0  0  # atno 4297 bound_to 1298
    4.7985   -8.7612    4.5969 LP  0  0  0  0  0  0  0  0  0  0  0  0  # atno 4298 bound_to 1298
    0.8700   -9.2765    8.2579 LP  0  0  0  0  0  0  0  0  0  0  0  0  # atno 4299 bound_to 2456
    2.1566   -8.3769    7.8084 LP  0  0  0  0  0  0  0  0  0  0  0  0  # atno 4300 bound_to 2456
    2.8219   -8.9264    4.6046 LP  0  0  0  0  0  0  0  0  0  0  0  0  # atno 4301 bound_to 2510
    2.1462   -8.6507    6.0654 LP  0  0  0  0  0  0  0  0  0  0  0  0  # atno 4302 bound_to 2510
   -2.8801  -17.6075   14.8191 LP  0  0  0  0  0  0  0  0  0  0  0  0  # atno 4306 bound_to 3712
   -3.5674  -16.5725   13.7593 LP  0  0  0  0  0  0  0  0  0  0  0  0  # atno 4307 bound_to 3712
    2.6076  -21.1568    9.3076 LP  0  0  0  0  0  0  0  0  0  0  0  0  # atno 4314 bound_to 3832
    1.3911  -20.0868    9.1027 LP  0  0  0  0  0  0  0  0  0  0  0  0  # atno 4315 bound_to 3832
   -5.3380  -21.9535   11.0628 LP  0  0  0  0  0  0  0  0  0  0  0  0  # atno 4318 bound_to 3762
   -3.9635  -22.7606   11.4179 LP  0  0  0  0  0  0  0  0  0  0  0  0  # atno 4319 bound_to 3762
   -5.4864   -5.2913    8.7123 LP  0  0  0  0  0  0  0  0  0  0  0  0  # atno 4320 bound_to 2467
   -4.2963   -4.7986    7.7085 LP  0  0  0  0  0  0  0  0  0  0  0  0  # atno 4321 bound_to 2467

> <Gold.Score>
     Score     S(PLP)   S(hbond)     S(cho)   S(metal)  DE(clash)   DE(tors)     intcor
     30.15     -27.94       1.00       0.00       0.00       0.00       0.56       0.32

> <Gold.PLP.Fitness>
30.1452

> <Gold.PLP.PLP>
-27.9399

> <Gold.PLP.part.hbond>
-1.0000

> <Gold.PLP.part.metal>
0.0000

> <Gold.PLP.part.buried>
-3.2273

> <Gold.PLP.part.nonpolar>
-24.3554

> <Gold.PLP.part.repulsive>
0.1084

> <Gold.PLP.ligand.clash>
0.0000

> <Gold.PLP.ligand.torsion>
0.5566

> <Gold.PLP.Chemscore.Hbond>
1.0000

> <Gold.PLP.Chemscore.CHOScore>
0.0000

> <Gold.PLP.Chemscore.Metal>
0.0000

> <Gold.Chemscore.Hbonds>
donor molecule, donor type, donor heavy atom, donor atom, acceptor molecule, acceptor atom, score
      P1  H  3712  3721       L1     1  1.00

> <Gold.PLP.Chemscore.Internal.Correction>
0.3185

