#       Name:                EN300-107901_i001
#       Creating user name   fsindt
#       Creation time:       Tue Feb 28 18:57:52 2023


#       File generated by GOLD software.
#

@<TRIPOS>MOLECULE
EN300-107901_i001|acide_2|mol2|6590|dock11
    27    28     1
SMALL
USER_CHARGES


@<TRIPOS>ATOM
      1 O1          -2.1425 -23.3067  12.3171 O.co2          1 <1>               -1.0000
      2 C2          -2.1258 -23.9210  13.3701 C.2            1 <1>                0.0000
      3 O3          -3.1255 -23.9637  14.0668 O.co2          1 <1>                0.0000
      4 C4          -0.8838 -24.6256  13.8033 C.3            1 <1>                0.0000
      5 C5          -0.4059 -24.4798  15.2382 C.3            1 <1>                0.0000
      6 C6          -1.1905 -23.6633  16.2258 C.3            1 <1>                0.0000
      7 C7          -0.4989 -22.2682  16.4333 C.3            1 <1>                0.0000
      8 C8          -1.5000 -21.3546  15.6407 C.3            1 <1>                0.0000
      9 C9          -1.2684 -21.1184  14.1666 C.3            1 <1>                0.0000
     10 C10         -0.1739 -21.6421  13.3038 C.3            1 <1>                0.0000
     11 C11          0.8138 -22.5098  14.0560 C.3            1 <1>                0.0000
     12 C12          0.4365 -23.9697  14.0965 C.3            1 <1>                0.0000
     13 H13         -0.8307 -25.6641  13.3959 H              1 <1>                0.0000
     14 H14         -0.0470 -25.4424  15.7114 H              1 <1>                0.0000
     15 H15         -2.2208 -23.5100  15.9238 H              1 <1>                0.0000
     16 H16         -1.1956 -24.1676  17.2049 H              1 <1>                0.0000
     17 H17         -0.6291 -22.0130  17.5083 H              1 <1>                0.0000
     18 H18          0.5058 -22.2318  16.1986 H              1 <1>                0.0000
     19 H19         -2.5008 -21.7708  15.7918 H              1 <1>                0.0000
     20 H20         -1.4921 -20.3828  16.1576 H              1 <1>                0.0000
     21 H21         -2.2377 -21.3171  13.6540 H              1 <1>                0.0000
     22 H22         -1.2205 -19.9967  14.0644 H              1 <1>                0.0000
     23 H23         -0.5625 -22.1574  12.4080 H              1 <1>                0.0000
     24 H24          0.3823 -20.7711  12.8654 H              1 <1>                0.0000
     25 H25          1.7709 -22.4703  13.4119 H              1 <1>                0.0000
     26 H26          1.2368 -22.0544  14.9381 H              1 <1>                0.0000
     27 H27          1.3409 -24.6251  13.8167 H              1 <1>                0.0000
@<TRIPOS>BOND
    1    1    2 ar    
    2    2    3 ar    
    3    2    4 1     
    4    4    5 1     
    5    4   12 1     
    6    4   13 1     
    7    5    6 1     
    8    5   12 1     
    9    5   14 1     
   10    6    7 1     
   11    6   15 1     
   12    6   16 1     
   13    7    8 1     
   14    7   17 1     
   15    7   18 1     
   16    8    9 1     
   17    8   19 1     
   18    8   20 1     
   19    9   10 1     
   20    9   21 1     
   21    9   22 1     
   22   10   11 1     
   23   10   23 1     
   24   10   24 1     
   25   11   12 1     
   26   11   25 1     
   27   11   26 1     
   28   12   27 1     
@<TRIPOS>SUBSTRUCTURE
      1 ****           1
@<TRIPOS>COMMENT
> <Gold.Version>
2022.2.0

> <Gold.Id.Protein>
3pbl|protein|mol2

> <Gold.Protein.RotatedTorsions>
[ 1303 1298 1297 1294 ] final   56.32 input  179.99 | X-H torsion
[ 2461 2456 2455 2452 ] final  117.14 input   30.03 | X-H torsion
[ 2515 2510 2509 2506 ] final  -71.73 input  -89.99 | X-H torsion
[ 3721 3712 3711 3710 ] final   97.88 input -179.91 | X-H torsion
[ 3841 3832 3831 3830 ] final  -76.75 input -179.91 | X-H torsion
[ 3767 3762 3761 3758 ] final  146.26 input  -89.99 | X-H torsion
[ 2472 2467 2466 2463 ] final  -94.43 input  -89.97 | X-H torsion

> <Gold.Protein.ActiveResidues>
 VAL82   VAL86   LEU89   PHE106  VAL107  ASP110  VAL111  MET112  CYS114  THR115 
 CYS181  SER182  ILE183  PHE188  VAL189  ILE190  SER192  SER193  SER196  TRP342 
 PHE345  PHE346  HIS349  VAL350  TYR365  THR369  GLY372  TYR373 

> <Gold.Protein.RotatedAtoms>
    3.9580  -10.2718    4.5997 H   0  0  0  0  0  0  0  0  0  0  0  0  # atno 1303 bound_to 1298
    2.1335   -8.6116    8.0347 H   0  0  0  0  0  0  0  0  0  0  0  0  # atno 2461 bound_to 2456
   -4.1047   -5.3632    9.3315 H   0  0  0  0  0  0  0  0  0  0  0  0  # atno 2472 bound_to 2467
    2.8354   -8.6813    4.4477 H   0  0  0  0  0  0  0  0  0  0  0  0  # atno 2515 bound_to 2510
   -2.8422  -17.5195   13.0638 H   0  0  0  0  0  0  0  0  0  0  0  0  # atno 3721 bound_to 3712
   -3.9114  -22.9396   11.2494 H   0  0  0  0  0  0  0  0  0  0  0  0  # atno 3767 bound_to 3762
    1.7254  -19.6826    8.8455 H   0  0  0  0  0  0  0  0  0  0  0  0  # atno 3841 bound_to 3832
    3.5315   -8.9254    3.7802 LP  0  0  0  0  0  0  0  0  0  0  0  0  # atno 4297 bound_to 1298
    4.8728   -8.9238    4.7116 LP  0  0  0  0  0  0  0  0  0  0  0  0  # atno 4298 bound_to 1298
    0.9969   -8.0044    7.0313 LP  0  0  0  0  0  0  0  0  0  0  0  0  # atno 4299 bound_to 2456
    0.6077   -9.1922    8.0821 LP  0  0  0  0  0  0  0  0  0  0  0  0  # atno 4300 bound_to 2456
    2.2468   -8.9006    5.9547 LP  0  0  0  0  0  0  0  0  0  0  0  0  # atno 4301 bound_to 2510
    2.2143   -7.4170    5.2732 LP  0  0  0  0  0  0  0  0  0  0  0  0  # atno 4302 bound_to 2510
   -2.7178  -17.9228   14.6129 LP  0  0  0  0  0  0  0  0  0  0  0  0  # atno 4306 bound_to 3712
   -3.5285  -16.5770   14.1677 LP  0  0  0  0  0  0  0  0  0  0  0  0  # atno 4307 bound_to 3712
    3.0716  -20.3928    8.3362 LP  0  0  0  0  0  0  0  0  0  0  0  0  # atno 4314 bound_to 3832
    2.1646  -21.0762    9.5096 LP  0  0  0  0  0  0  0  0  0  0  0  0  # atno 4315 bound_to 3832
   -5.0317  -23.0194   10.0638 LP  0  0  0  0  0  0  0  0  0  0  0  0  # atno 4318 bound_to 3762
   -5.1839  -21.9161   11.2580 LP  0  0  0  0  0  0  0  0  0  0  0  0  # atno 4319 bound_to 3762
   -5.5101   -5.2217    8.5121 LP  0  0  0  0  0  0  0  0  0  0  0  0  # atno 4320 bound_to 2467
   -4.1020   -4.8086    7.7957 LP  0  0  0  0  0  0  0  0  0  0  0  0  # atno 4321 bound_to 2467

> <Gold.Score>
     Score     S(PLP)   S(hbond)     S(cho)   S(metal)  DE(clash)   DE(tors)     intcor
     32.68     -29.72       1.00       0.00       0.00       0.00       0.18       0.32

> <Gold.PLP.Fitness>
32.6838

> <Gold.PLP.PLP>
-29.7158

> <Gold.PLP.part.hbond>
-1.0000

> <Gold.PLP.part.metal>
0.0000

> <Gold.PLP.part.buried>
-3.6384

> <Gold.PLP.part.nonpolar>
-25.6905

> <Gold.PLP.part.repulsive>
0.1255

> <Gold.PLP.ligand.clash>
0.0000

> <Gold.PLP.ligand.torsion>
0.1752

> <Gold.PLP.Chemscore.Hbond>
1.0000

> <Gold.PLP.Chemscore.CHOScore>
0.0000

> <Gold.PLP.Chemscore.Metal>
0.0000

> <Gold.Chemscore.Hbonds>
donor molecule, donor type, donor heavy atom, donor atom, acceptor molecule, acceptor atom, score
      P1  H  3762  3767       L1     1  1.00

> <Gold.PLP.Chemscore.Internal.Correction>
0.3185

