#       Name:                EN300-107901_i001
#       Creating user name   fsindt
#       Creation time:       Tue Feb 28 18:57:49 2023


#       File generated by GOLD software.
#

@<TRIPOS>MOLECULE
EN300-107901_i001|acide_2|mol2|6590|dock2
    27    28     1
SMALL
USER_CHARGES


@<TRIPOS>ATOM
      1 O1          -1.1319 -18.5561  14.9934 O.co2          1 <1>               -1.0000
      2 C2           0.0016 -18.9919  14.8852 C.2            1 <1>                0.0000
      3 O3           0.1797 -20.1692  14.6228 O.co2          1 <1>                0.0000
      4 C4           1.1710 -18.0830  15.0679 C.3            1 <1>                0.0000
      5 C5           1.1713 -16.7232  14.3899 C.3            1 <1>                0.0000
      6 C6          -0.0065 -16.2778  13.5700 C.3            1 <1>                0.0000
      7 C7           0.3206 -16.4286  12.0409 C.3            1 <1>                0.0000
      8 C8          -0.5565 -17.6865  11.7043 C.3            1 <1>                0.0000
      9 C9           0.0485 -19.0633  11.8493 C.3            1 <1>                0.0000
     10 C10          1.4255 -19.4308  12.2799 C.3            1 <1>                0.0000
     11 C11          2.2934 -18.2286  12.5897 C.3            1 <1>                0.0000
     12 C12          2.2005 -17.7615  14.0209 C.3            1 <1>                0.0000
     13 H13          1.5342 -18.0791  16.1240 H              1 <1>                0.0000
     14 H14          1.5489 -15.8774  15.0390 H              1 <1>                0.0000
     15 H15         -0.9126 -16.8284  13.7977 H              1 <1>                0.0000
     16 H16         -0.2039 -15.2097  13.7520 H              1 <1>                0.0000
     17 H17         -0.1642 -15.5661  11.5324 H              1 <1>                0.0000
     18 H18          1.3247 -16.4392  11.8009 H              1 <1>                0.0000
     19 H19         -1.4615 -17.6182  12.3159 H              1 <1>                0.0000
     20 H20         -0.8821 -17.5541  10.6612 H              1 <1>                0.0000
     21 H21         -0.6729 -19.6694  12.4440 H              1 <1>                0.0000
     22 H22         -0.0862 -19.5390  10.8362 H              1 <1>                0.0000
     23 H23          1.4199 -20.1505  13.1172 H              1 <1>                0.0000
     24 H24          1.9129 -20.0159  11.4550 H              1 <1>                0.0000
     25 H25          3.3721 -18.6238  12.4779 H              1 <1>                0.0000
     26 H26          2.3463 -17.4931  11.8020 H              1 <1>                0.0000
     27 H27          3.2529 -17.5923  14.4562 H              1 <1>                0.0000
@<TRIPOS>BOND
    1    1    2 ar    
    2    2    3 ar    
    3    2    4 1     
    4    4    5 1     
    5    4   12 1     
    6    4   13 1     
    7    5    6 1     
    8    5   12 1     
    9    5   14 1     
   10    6    7 1     
   11    6   15 1     
   12    6   16 1     
   13    7    8 1     
   14    7   17 1     
   15    7   18 1     
   16    8    9 1     
   17    8   19 1     
   18    8   20 1     
   19    9   10 1     
   20    9   21 1     
   21    9   22 1     
   22   10   11 1     
   23   10   23 1     
   24   10   24 1     
   25   11   12 1     
   26   11   25 1     
   27   11   26 1     
   28   12   27 1     
@<TRIPOS>SUBSTRUCTURE
      1 ****           1
@<TRIPOS>COMMENT
> <Gold.Version>
2022.2.0

> <Gold.Id.Protein>
3pbl|protein|mol2

> <Gold.Protein.RotatedTorsions>
[ 1303 1298 1297 1294 ] final  100.64 input  179.99 | X-H torsion
[ 2461 2456 2455 2452 ] final  127.56 input   30.03 | X-H torsion
[ 2515 2510 2509 2506 ] final  -68.68 input  -89.99 | X-H torsion
[ 3721 3712 3711 3710 ] final    7.53 input -179.91 | X-H torsion
[ 3841 3832 3831 3830 ] final  -78.01 input -179.91 | X-H torsion
[ 3767 3762 3761 3758 ] final   22.38 input  -89.99 | X-H torsion
[ 2472 2467 2466 2463 ] final  165.64 input  -89.97 | X-H torsion

> <Gold.Protein.ActiveResidues>
 VAL82   VAL86   LEU89   PHE106  VAL107  ASP110  VAL111  MET112  CYS114  THR115 
 CYS181  SER182  ILE183  PHE188  VAL189  ILE190  SER192  SER193  SER196  TRP342 
 PHE345  PHE346  HIS349  VAL350  TYR365  THR369  GLY372  TYR373 

> <Gold.Protein.RotatedAtoms>
    4.5452  -10.0156    4.9083 H   0  0  0  0  0  0  0  0  0  0  0  0  # atno 1303 bound_to 1298
    2.0782   -8.7355    8.1392 H   0  0  0  0  0  0  0  0  0  0  0  0  # atno 2461 bound_to 2456
   -5.4537   -5.3266    8.8182 H   0  0  0  0  0  0  0  0  0  0  0  0  # atno 2472 bound_to 2467
    2.8339   -8.6351    4.4278 H   0  0  0  0  0  0  0  0  0  0  0  0  # atno 2515 bound_to 2510
   -2.4747  -17.9945   14.1358 H   0  0  0  0  0  0  0  0  0  0  0  0  # atno 3721 bound_to 3712
   -5.0803  -22.9781   10.0654 H   0  0  0  0  0  0  0  0  0  0  0  0  # atno 3767 bound_to 3762
    1.7362  -19.6747    8.8318 H   0  0  0  0  0  0  0  0  0  0  0  0  # atno 3841 bound_to 3832
    3.3302   -9.5968    3.9009 LP  0  0  0  0  0  0  0  0  0  0  0  0  # atno 4297 bound_to 1298
    4.4866   -8.5087    4.2822 LP  0  0  0  0  0  0  0  0  0  0  0  0  # atno 4298 bound_to 1298
    1.1602   -7.9536    7.0377 LP  0  0  0  0  0  0  0  0  0  0  0  0  # atno 4299 bound_to 2456
    0.4996   -9.1191    7.9714 LP  0  0  0  0  0  0  0  0  0  0  0  0  # atno 4300 bound_to 2456
    2.2662   -8.9388    5.9282 LP  0  0  0  0  0  0  0  0  0  0  0  0  # atno 4301 bound_to 2510
    2.1965   -7.4251    5.3196 LP  0  0  0  0  0  0  0  0  0  0  0  0  # atno 4302 bound_to 2510
   -3.3963  -16.7478   14.5532 LP  0  0  0  0  0  0  0  0  0  0  0  0  # atno 4306 bound_to 3712
   -3.2742  -17.2036   12.9899 LP  0  0  0  0  0  0  0  0  0  0  0  0  # atno 4307 bound_to 3712
    3.0782  -20.4096    8.3471 LP  0  0  0  0  0  0  0  0  0  0  0  0  # atno 4314 bound_to 3832
    2.1456  -21.0684    9.5145 LP  0  0  0  0  0  0  0  0  0  0  0  0  # atno 4315 bound_to 3832
   -5.1393  -21.9147   11.3033 LP  0  0  0  0  0  0  0  0  0  0  0  0  # atno 4318 bound_to 3762
   -3.9079  -22.9824   11.2021 LP  0  0  0  0  0  0  0  0  0  0  0  0  # atno 4319 bound_to 3762
   -4.4091   -4.8003    7.6788 LP  0  0  0  0  0  0  0  0  0  0  0  0  # atno 4320 bound_to 2467
   -3.8543   -5.2666    9.1422 LP  0  0  0  0  0  0  0  0  0  0  0  0  # atno 4321 bound_to 2467

> <Gold.Score>
     Score     S(PLP)   S(hbond)     S(cho)   S(metal)  DE(clash)   DE(tors)     intcor
     33.32     -30.34       1.00       0.00       0.00       0.00       0.17       0.32

> <Gold.PLP.Fitness>
33.3172

> <Gold.PLP.PLP>
-30.3444

> <Gold.PLP.part.hbond>
-1.0000

> <Gold.PLP.part.metal>
0.0000

> <Gold.PLP.part.buried>
-2.3473

> <Gold.PLP.part.nonpolar>
-27.6959

> <Gold.PLP.part.repulsive>
0.0202

> <Gold.PLP.ligand.clash>
0.0000

> <Gold.PLP.ligand.torsion>
0.1729

> <Gold.PLP.Chemscore.Hbond>
1.0000

> <Gold.PLP.Chemscore.CHOScore>
0.0000

> <Gold.PLP.Chemscore.Metal>
0.0000

> <Gold.Chemscore.Hbonds>
donor molecule, donor type, donor heavy atom, donor atom, acceptor molecule, acceptor atom, score
      P1  H  3712  3721       L1     1  1.00

> <Gold.PLP.Chemscore.Internal.Correction>
0.3185

