#       Name:                EN300-107901_i001
#       Creating user name   fsindt
#       Creation time:       Tue Feb 28 18:57:54 2023


#       File generated by GOLD software.
#

@<TRIPOS>MOLECULE
EN300-107901_i001|acide_2|mol2|6590|dock18
    27    28     1
SMALL
USER_CHARGES


@<TRIPOS>ATOM
      1 O1          -1.0166 -17.0483  15.0080 O.co2          1 <1>               -1.0000
      2 C2          -0.2689 -16.4811  14.2298 C.2            1 <1>                0.0000
      3 O3           0.4891 -15.6158  14.6338 O.co2          1 <1>                0.0000
      4 C4          -0.2772 -16.8502  12.7839 C.3            1 <1>                0.0000
      5 C5          -0.3644 -18.3148  12.3889 C.3            1 <1>                0.0000
      6 C6          -0.4761 -19.3841  13.4386 C.3            1 <1>                0.0000
      7 C7           0.9151 -20.0873  13.6336 C.3            1 <1>                0.0000
      8 C8           1.3319 -19.4729  15.0170 C.3            1 <1>                0.0000
      9 C9           2.1141 -18.1806  15.0404 C.3            1 <1>                0.0000
     10 C10          2.5813 -17.3580  13.8908 C.3            1 <1>                0.0000
     11 C11          2.2057 -17.9460  12.5463 C.3            1 <1>                0.0000
     12 C12          0.8560 -17.5006  12.0410 C.3            1 <1>                0.0000
     13 H13         -0.9223 -16.1645  12.1830 H              1 <1>                0.0000
     14 H14         -1.0666 -18.5255  11.5277 H              1 <1>                0.0000
     15 H15         -0.8216 -19.0044  14.3939 H              1 <1>                0.0000
     16 H16         -1.1837 -20.1596  13.1060 H              1 <1>                0.0000
     17 H17          0.6969 -21.1616  13.8233 H              1 <1>                0.0000
     18 H18          1.5659 -20.0123  12.8357 H              1 <1>                0.0000
     19 H19          0.4158 -19.3569  15.6044 H              1 <1>                0.0000
     20 H20          1.9234 -20.2506  15.5240 H              1 <1>                0.0000
     21 H21          1.5966 -17.5058  15.7605 H              1 <1>                0.0000
     22 H22          3.0420 -18.4228  15.6330 H              1 <1>                0.0000
     23 H23          2.2578 -16.3057  13.9751 H              1 <1>                0.0000
     24 H24          3.6998 -17.2769  13.9416 H              1 <1>                0.0000
     25 H25          2.9643 -17.4784  11.8126 H              1 <1>                0.0000
     26 H26          2.5059 -18.9721  12.4009 H              1 <1>                0.0000
     27 H27          0.9306 -17.1645  10.9423 H              1 <1>                0.0000
@<TRIPOS>BOND
    1    1    2 ar    
    2    2    3 ar    
    3    2    4 1     
    4    4    5 1     
    5    4   12 1     
    6    4   13 1     
    7    5    6 1     
    8    5   12 1     
    9    5   14 1     
   10    6    7 1     
   11    6   15 1     
   12    6   16 1     
   13    7    8 1     
   14    7   17 1     
   15    7   18 1     
   16    8    9 1     
   17    8   19 1     
   18    8   20 1     
   19    9   10 1     
   20    9   21 1     
   21    9   22 1     
   22   10   11 1     
   23   10   23 1     
   24   10   24 1     
   25   11   12 1     
   26   11   25 1     
   27   11   26 1     
   28   12   27 1     
@<TRIPOS>SUBSTRUCTURE
      1 ****           1
@<TRIPOS>COMMENT
> <Gold.Version>
2022.2.0

> <Gold.Id.Protein>
3pbl|protein|mol2

> <Gold.Protein.RotatedTorsions>
[ 1303 1298 1297 1294 ] final  116.92 input  179.99 | X-H torsion
[ 2461 2456 2455 2452 ] final  -46.15 input   30.03 | X-H torsion
[ 2515 2510 2509 2506 ] final -133.68 input  -89.99 | X-H torsion
[ 3721 3712 3711 3710 ] final  -45.22 input -179.91 | X-H torsion
[ 3841 3832 3831 3830 ] final -171.57 input -179.91 | X-H torsion
[ 3767 3762 3761 3758 ] final   58.85 input  -89.99 | X-H torsion
[ 2472 2467 2466 2463 ] final -145.10 input  -89.97 | X-H torsion

> <Gold.Protein.ActiveResidues>
 VAL82   VAL86   LEU89   PHE106  VAL107  ASP110  VAL111  MET112  CYS114  THR115 
 CYS181  SER182  ILE183  PHE188  VAL189  ILE190  SER192  SER193  SER196  TRP342 
 PHE345  PHE346  HIS349  VAL350  TYR365  THR369  GLY372  TYR373 

> <Gold.Protein.RotatedAtoms>
    4.7153   -9.8138    4.9482 H   0  0  0  0  0  0  0  0  0  0  0  0  # atno 1303 bound_to 1298
    0.4604   -8.3971    7.2364 H   0  0  0  0  0  0  0  0  0  0  0  0  # atno 2461 bound_to 2456
   -4.9047   -5.4629    9.3639 H   0  0  0  0  0  0  0  0  0  0  0  0  # atno 2472 bound_to 2467
    2.6384   -9.2525    5.2065 H   0  0  0  0  0  0  0  0  0  0  0  0  # atno 2515 bound_to 2510
   -2.6958  -17.5209   14.7006 H   0  0  0  0  0  0  0  0  0  0  0  0  # atno 3721 bound_to 3712
   -4.5850  -23.2754   10.1856 H   0  0  0  0  0  0  0  0  0  0  0  0  # atno 3767 bound_to 3762
    2.8787  -19.9567    8.3769 H   0  0  0  0  0  0  0  0  0  0  0  0  # atno 3841 bound_to 3832
    3.3715   -9.8318    4.0207 LP  0  0  0  0  0  0  0  0  0  0  0  0  # atno 4297 bound_to 1298
    4.2752   -8.4755    4.1225 LP  0  0  0  0  0  0  0  0  0  0  0  0  # atno 4298 bound_to 1298
    1.2314   -9.2722    8.3797 LP  0  0  0  0  0  0  0  0  0  0  0  0  # atno 4299 bound_to 2456
    2.0458   -8.1389    7.5318 LP  0  0  0  0  0  0  0  0  0  0  0  0  # atno 4300 bound_to 2456
    2.0285   -7.9558    5.9890 LP  0  0  0  0  0  0  0  0  0  0  0  0  # atno 4301 bound_to 2510
    2.6296   -7.7905    4.4797 LP  0  0  0  0  0  0  0  0  0  0  0  0  # atno 4302 bound_to 2510
   -3.5670  -16.5766   13.7376 LP  0  0  0  0  0  0  0  0  0  0  0  0  # atno 4306 bound_to 3712
   -2.8483  -17.9215   13.1533 LP  0  0  0  0  0  0  0  0  0  0  0  0  # atno 4307 bound_to 3712
    2.4984  -21.1555    9.3740 LP  0  0  0  0  0  0  0  0  0  0  0  0  # atno 4314 bound_to 3832
    1.4057  -19.9968    9.0131 LP  0  0  0  0  0  0  0  0  0  0  0  0  # atno 4315 bound_to 3832
   -5.4575  -22.0525   10.8261 LP  0  0  0  0  0  0  0  0  0  0  0  0  # atno 4318 bound_to 3762
   -4.0848  -22.5474   11.5592 LP  0  0  0  0  0  0  0  0  0  0  0  0  # atno 4319 bound_to 3762
   -5.1655   -4.9411    7.8387 LP  0  0  0  0  0  0  0  0  0  0  0  0  # atno 4320 bound_to 2467
   -3.6467   -4.9895    8.4367 LP  0  0  0  0  0  0  0  0  0  0  0  0  # atno 4321 bound_to 2467

> <Gold.Score>
     Score     S(PLP)   S(hbond)     S(cho)   S(metal)  DE(clash)   DE(tors)     intcor
     29.06     -24.01       1.77       0.00       0.00       0.00       0.28       0.32

> <Gold.PLP.Fitness>
29.0617

> <Gold.PLP.PLP>
-24.0076

> <Gold.PLP.part.hbond>
-2.0000

> <Gold.PLP.part.metal>
0.0000

> <Gold.PLP.part.buried>
2.1161

> <Gold.PLP.part.nonpolar>
-25.0773

> <Gold.PLP.part.repulsive>
0.1171

> <Gold.PLP.ligand.clash>
0.0000

> <Gold.PLP.ligand.torsion>
0.2842

> <Gold.PLP.Chemscore.Hbond>
1.7680

> <Gold.PLP.Chemscore.CHOScore>
0.0000

> <Gold.PLP.Chemscore.Metal>
0.0000

> <Gold.Chemscore.Hbonds>
donor molecule, donor type, donor heavy atom, donor atom, acceptor molecule, acceptor atom, score
      P1  H  2305  2313       L1     3  1.00
      P1  H  3712  3721       L1     1  0.77

> <Gold.PLP.Chemscore.Internal.Correction>
0.3185

