#       Name:                EN300-107901_i001
#       Creating user name   fsindt
#       Creation time:       Tue Feb 28 18:57:53 2023


#       File generated by GOLD software.
#

@<TRIPOS>MOLECULE
EN300-107901_i001|acide_2|mol2|6590|dock13
    27    28     1
SMALL
USER_CHARGES


@<TRIPOS>ATOM
      1 O1          -0.1000 -15.5921  15.0049 O.co2          1 <1>               -1.0000
      2 C2          -0.5693 -16.4090  14.2310 C.2            1 <1>                0.0000
      3 O3          -1.1588 -17.3863  14.6599 O.co2          1 <1>                0.0000
      4 C4          -0.4276 -16.2095  12.7590 C.3            1 <1>                0.0000
      5 C5          -0.1274 -17.4047  11.8702 C.3            1 <1>                0.0000
      6 C6          -0.0071 -18.7826  12.4574 C.3            1 <1>                0.0000
      7 C7           1.5075 -19.1832  12.5720 C.3            1 <1>                0.0000
      8 C8           1.7014 -19.0482  14.1242 C.3            1 <1>                0.0000
      9 C9           2.1312 -17.7181  14.6973 C.3            1 <1>                0.0000
     10 C10          2.4209 -16.4477  13.9770 C.3            1 <1>                0.0000
     11 C11          2.2587 -16.5641  12.4755 C.3            1 <1>                0.0000
     12 C12          0.8613 -16.2724  11.9882 C.3            1 <1>                0.0000
     13 H13         -1.2005 -15.5104  12.3573 H              1 <1>                0.0000
     14 H14         -0.7194 -17.4312  10.9069 H              1 <1>                0.0000
     15 H15         -0.4745 -18.8691  13.4322 H              1 <1>                0.0000
     16 H16         -0.4829 -19.5155  11.7870 H              1 <1>                0.0000
     17 H17          1.5598 -20.2711  12.3453 H              1 <1>                0.0000
     18 H18          2.1492 -18.6772  11.9411 H              1 <1>                0.0000
     19 H19          0.7633 -19.3623  14.5921 H              1 <1>                0.0000
     20 H20          2.4493 -19.8075  14.3996 H              1 <1>                0.0000
     21 H21          1.4326 -17.4891  15.5346 H              1 <1>                0.0000
     22 H22          3.0662 -17.9515  15.2822 H              1 <1>                0.0000
     23 H23          1.8397 -15.6002  14.3808 H              1 <1>                0.0000
     24 H24          3.4801 -16.1470  14.1963 H              1 <1>                0.0000
     25 H25          2.9032 -15.7038  12.0551 H              1 <1>                0.0000
     26 H26          2.8132 -17.3705  12.0212 H              1 <1>                0.0000
     27 H27          0.8919 -15.5464  11.0951 H              1 <1>                0.0000
@<TRIPOS>BOND
    1    1    2 ar    
    2    2    3 ar    
    3    2    4 1     
    4    4    5 1     
    5    4   12 1     
    6    4   13 1     
    7    5    6 1     
    8    5   12 1     
    9    5   14 1     
   10    6    7 1     
   11    6   15 1     
   12    6   16 1     
   13    7    8 1     
   14    7   17 1     
   15    7   18 1     
   16    8    9 1     
   17    8   19 1     
   18    8   20 1     
   19    9   10 1     
   20    9   21 1     
   21    9   22 1     
   22   10   11 1     
   23   10   23 1     
   24   10   24 1     
   25   11   12 1     
   26   11   25 1     
   27   11   26 1     
   28   12   27 1     
@<TRIPOS>SUBSTRUCTURE
      1 ****           1
@<TRIPOS>COMMENT
> <Gold.Version>
2022.2.0

> <Gold.Id.Protein>
3pbl|protein|mol2

> <Gold.Protein.RotatedTorsions>
[ 1303 1298 1297 1294 ] final    2.96 input  179.99 | X-H torsion
[ 2461 2456 2455 2452 ] final  100.85 input   30.03 | X-H torsion
[ 2515 2510 2509 2506 ] final  -81.05 input  -89.99 | X-H torsion
[ 3721 3712 3711 3710 ] final  -31.46 input -179.91 | X-H torsion
[ 3841 3832 3831 3830 ] final  -22.41 input -179.91 | X-H torsion
[ 3767 3762 3761 3758 ] final  -16.28 input  -89.99 | X-H torsion
[ 2472 2467 2466 2463 ] final   41.03 input  -89.97 | X-H torsion

> <Gold.Protein.ActiveResidues>
 VAL82   VAL86   LEU89   PHE106  VAL107  ASP110  VAL111  MET112  CYS114  THR115 
 CYS181  SER182  ILE183  PHE188  VAL189  ILE190  SER192  SER193  SER196  TRP342 
 PHE345  PHE346  HIS349  VAL350  TYR365  THR369  GLY372  TYR373 

> <Gold.Protein.RotatedAtoms>
    3.4023   -9.9105    4.0733 H   0  0  0  0  0  0  0  0  0  0  0  0  # atno 1303 bound_to 1298
    2.1609   -8.4187    7.8516 H   0  0  0  0  0  0  0  0  0  0  0  0  # atno 2461 bound_to 2456
   -4.3353   -4.7993    7.6963 H   0  0  0  0  0  0  0  0  0  0  0  0  # atno 2472 bound_to 2467
    2.8331   -8.8154    4.5216 H   0  0  0  0  0  0  0  0  0  0  0  0  # atno 2515 bound_to 2510
   -2.6112  -17.6837   14.6038 H   0  0  0  0  0  0  0  0  0  0  0  0  # atno 3721 bound_to 3712
   -5.4432  -22.5154   10.2754 H   0  0  0  0  0  0  0  0  0  0  0  0  # atno 3767 bound_to 3762
    1.5941  -20.2212    9.4091 H   0  0  0  0  0  0  0  0  0  0  0  0  # atno 3841 bound_to 3832
    4.1927   -8.4816    4.0675 LP  0  0  0  0  0  0  0  0  0  0  0  0  # atno 4297 bound_to 1298
    4.7674   -9.7290    4.9509 LP  0  0  0  0  0  0  0  0  0  0  0  0  # atno 4298 bound_to 1298
    0.7597   -8.1225    7.0666 LP  0  0  0  0  0  0  0  0  0  0  0  0  # atno 4299 bound_to 2456
    0.8175   -9.2669    8.2300 LP  0  0  0  0  0  0  0  0  0  0  0  0  # atno 4300 bound_to 2456
    2.1911   -8.7749    6.0223 LP  0  0  0  0  0  0  0  0  0  0  0  0  # atno 4301 bound_to 2510
    2.2723   -7.4086    5.1316 LP  0  0  0  0  0  0  0  0  0  0  0  0  # atno 4302 bound_to 2510
   -3.5588  -16.5555   13.9659 LP  0  0  0  0  0  0  0  0  0  0  0  0  # atno 4306 bound_to 3712
   -2.9543  -17.7547   13.0369 LP  0  0  0  0  0  0  0  0  0  0  0  0  # atno 4307 bound_to 3712
    2.4818  -19.7752    8.1484 LP  0  0  0  0  0  0  0  0  0  0  0  0  # atno 4314 bound_to 3832
    2.9061  -21.0715    9.0463 LP  0  0  0  0  0  0  0  0  0  0  0  0  # atno 4315 bound_to 3832
   -4.6220  -22.0717   11.6154 LP  0  0  0  0  0  0  0  0  0  0  0  0  # atno 4318 bound_to 3762
   -4.0625  -23.2878   10.6801 LP  0  0  0  0  0  0  0  0  0  0  0  0  # atno 4319 bound_to 3762
   -3.9050   -5.2905    9.1930 LP  0  0  0  0  0  0  0  0  0  0  0  0  # atno 4320 bound_to 2467
   -5.4766   -5.3037    8.7497 LP  0  0  0  0  0  0  0  0  0  0  0  0  # atno 4321 bound_to 2467

> <Gold.Score>
     Score     S(PLP)   S(hbond)     S(cho)   S(metal)  DE(clash)   DE(tors)     intcor
     31.73     -27.57       1.50       0.00       0.00       0.00       0.33       0.32

> <Gold.PLP.Fitness>
31.7269

> <Gold.PLP.PLP>
-27.5651

> <Gold.PLP.part.hbond>
-0.9537

> <Gold.PLP.part.metal>
0.0000

> <Gold.PLP.part.buried>
0.7126

> <Gold.PLP.part.nonpolar>
-28.4637

> <Gold.PLP.part.repulsive>
0.1642

> <Gold.PLP.ligand.clash>
0.0000

> <Gold.PLP.ligand.torsion>
0.3334

> <Gold.PLP.Chemscore.Hbond>
1.5034

> <Gold.PLP.Chemscore.CHOScore>
0.0000

> <Gold.PLP.Chemscore.Metal>
0.0000

> <Gold.Chemscore.Hbonds>
donor molecule, donor type, donor heavy atom, donor atom, acceptor molecule, acceptor atom, score
      P1  H  2305  2313       L1     1  1.00
      P1  H  3712  3721       L1     3  0.50

> <Gold.PLP.Chemscore.Internal.Correction>
0.3185

