#       Name:                EN300-107901_i001
#       Creating user name   fsindt
#       Creation time:       Tue Feb 28 18:57:51 2023


#       File generated by GOLD software.
#

@<TRIPOS>MOLECULE
EN300-107901_i001|acide_2|mol2|6590|dock8
    27    28     1
SMALL
USER_CHARGES


@<TRIPOS>ATOM
      1 O1          -0.9997 -18.8818  12.6020 O.co2          1 <1>               -1.0000
      2 C2           0.1750 -19.0887  12.8545 C.2            1 <1>                0.0000
      3 O3           0.9811 -19.2100  11.9478 O.co2          1 <1>                0.0000
      4 C4           0.6271 -19.1874  14.2732 C.3            1 <1>                0.0000
      5 C5           0.1214 -18.1767  15.2887 C.3            1 <1>                0.0000
      6 C6          -0.8516 -17.1063  14.8823 C.3            1 <1>                0.0000
      7 C7          -0.0992 -15.7376  14.7138 C.3            1 <1>                0.0000
      8 C8          -0.0940 -15.6282  13.1476 C.3            1 <1>                0.0000
      9 C9           1.0592 -16.2232  12.3740 C.3            1 <1>                0.0000
     10 C10          2.2604 -16.9306  12.8970 C.3            1 <1>                0.0000
     11 C11          2.2829 -17.0282  14.4084 C.3            1 <1>                0.0000
     12 C12          1.5891 -18.2525  14.9514 C.3            1 <1>                0.0000
     13 H13          0.6416 -20.2446  14.6328 H              1 <1>                0.0000
     14 H14         -0.1688 -18.6224  16.2869 H              1 <1>                0.0000
     15 H15         -1.3781 -17.3402  13.9635 H              1 <1>                0.0000
     16 H16         -1.6016 -16.9644  15.6762 H              1 <1>                0.0000
     17 H17         -0.7971 -14.9518  15.0784 H              1 <1>                0.0000
     18 H18          0.7944 -15.6567  15.2246 H              1 <1>                0.0000
     19 H19         -1.0345 -16.0618  12.7937 H              1 <1>                0.0000
     20 H20         -0.1500 -14.5521  12.9224 H              1 <1>                0.0000
     21 H21          0.6145 -16.8482  11.5659 H              1 <1>                0.0000
     22 H22          1.4591 -15.3665  11.7599 H              1 <1>                0.0000
     23 H23          2.3959 -17.9205  12.4271 H              1 <1>                0.0000
     24 H24          3.1759 -16.3724  12.5647 H              1 <1>                0.0000
     25 H25          3.3978 -17.1833  14.6639 H              1 <1>                0.0000
     26 H26          2.1650 -16.0881  14.9248 H              1 <1>                0.0000
     27 H27          2.2514 -18.7735  15.7359 H              1 <1>                0.0000
@<TRIPOS>BOND
    1    1    2 ar    
    2    2    3 ar    
    3    2    4 1     
    4    4    5 1     
    5    4   12 1     
    6    4   13 1     
    7    5    6 1     
    8    5   12 1     
    9    5   14 1     
   10    6    7 1     
   11    6   15 1     
   12    6   16 1     
   13    7    8 1     
   14    7   17 1     
   15    7   18 1     
   16    8    9 1     
   17    8   19 1     
   18    8   20 1     
   19    9   10 1     
   20    9   21 1     
   21    9   22 1     
   22   10   11 1     
   23   10   23 1     
   24   10   24 1     
   25   11   12 1     
   26   11   25 1     
   27   11   26 1     
   28   12   27 1     
@<TRIPOS>SUBSTRUCTURE
      1 ****           1
@<TRIPOS>COMMENT
> <Gold.Version>
2022.2.0

> <Gold.Id.Protein>
3pbl|protein|mol2

> <Gold.Protein.RotatedTorsions>
[ 1303 1298 1297 1294 ] final  -29.43 input  179.99 | X-H torsion
[ 2461 2456 2455 2452 ] final  -67.05 input   30.03 | X-H torsion
[ 2515 2510 2509 2506 ] final -173.03 input  -89.99 | X-H torsion
[ 3721 3712 3711 3710 ] final   36.48 input -179.91 | X-H torsion
[ 3841 3832 3831 3830 ] final   -7.52 input -179.91 | X-H torsion
[ 3767 3762 3761 3758 ] final  115.62 input  -89.99 | X-H torsion
[ 2472 2467 2466 2463 ] final  116.73 input  -89.97 | X-H torsion

> <Gold.Protein.ActiveResidues>
 VAL82   VAL86   LEU89   PHE106  VAL107  ASP110  VAL111  MET112  CYS114  THR115 
 CYS181  SER182  ILE183  PHE188  VAL189  ILE190  SER192  SER193  SER196  TRP342 
 PHE345  PHE346  HIS349  VAL350  TYR365  THR369  GLY372  TYR373 

> <Gold.Protein.RotatedAtoms>
    3.3364   -9.4411    3.8454 H   0  0  0  0  0  0  0  0  0  0  0  0  # atno 1303 bound_to 1298
    0.3443   -8.6440    7.4426 H   0  0  0  0  0  0  0  0  0  0  0  0  # atno 2461 bound_to 2456
   -5.3929   -5.0569    8.0882 H   0  0  0  0  0  0  0  0  0  0  0  0  # atno 2472 bound_to 2467
    2.3717   -9.1045    5.7631 H   0  0  0  0  0  0  0  0  0  0  0  0  # atno 2515 bound_to 2510
   -2.4971  -18.0225   13.7043 H   0  0  0  0  0  0  0  0  0  0  0  0  # atno 3721 bound_to 3712
   -3.9780  -23.2203   10.8431 H   0  0  0  0  0  0  0  0  0  0  0  0  # atno 3767 bound_to 3762
    1.6772  -20.3993    9.5171 H   0  0  0  0  0  0  0  0  0  0  0  0  # atno 3841 bound_to 3832
    4.6038   -8.5643    4.3852 LP  0  0  0  0  0  0  0  0  0  0  0  0  # atno 4297 bound_to 1298
    4.4223  -10.1158    4.8612 LP  0  0  0  0  0  0  0  0  0  0  0  0  # atno 4298 bound_to 1298
    1.5587   -9.1750    8.3969 LP  0  0  0  0  0  0  0  0  0  0  0  0  # atno 4299 bound_to 2456
    1.8345   -7.9892    7.3086 LP  0  0  0  0  0  0  0  0  0  0  0  0  # atno 4300 bound_to 2456
    2.1169   -7.5060    5.5497 LP  0  0  0  0  0  0  0  0  0  0  0  0  # atno 4301 bound_to 2510
    2.8081   -8.3883    4.3622 LP  0  0  0  0  0  0  0  0  0  0  0  0  # atno 4302 bound_to 2510
   -3.1798  -17.0851   14.8147 LP  0  0  0  0  0  0  0  0  0  0  0  0  # atno 4306 bound_to 3712
   -3.4650  -16.8339   13.2266 LP  0  0  0  0  0  0  0  0  0  0  0  0  # atno 4307 bound_to 3712
    2.2584  -19.6827    8.2039 LP  0  0  0  0  0  0  0  0  0  0  0  0  # atno 4314 bound_to 3832
    3.0335  -20.9583    8.8660 LP  0  0  0  0  0  0  0  0  0  0  0  0  # atno 4315 bound_to 3832
   -5.3610  -22.6631   10.1770 LP  0  0  0  0  0  0  0  0  0  0  0  0  # atno 4318 bound_to 3762
   -4.7881  -21.9918   11.5510 LP  0  0  0  0  0  0  0  0  0  0  0  0  # atno 4319 bound_to 3762
   -3.7690   -4.8878    8.1170 LP  0  0  0  0  0  0  0  0  0  0  0  0  # atno 4320 bound_to 2467
   -4.5551   -5.4489    9.4338 LP  0  0  0  0  0  0  0  0  0  0  0  0  # atno 4321 bound_to 2467

> <Gold.Score>
     Score     S(PLP)   S(hbond)     S(cho)   S(metal)  DE(clash)   DE(tors)     intcor
     30.05     -27.16       1.00       0.00       0.00       0.00       0.21       0.32

> <Gold.PLP.Fitness>
30.0547

> <Gold.PLP.PLP>
-27.1622

> <Gold.PLP.part.hbond>
-1.0000

> <Gold.PLP.part.metal>
0.0000

> <Gold.PLP.part.buried>
2.6801

> <Gold.PLP.part.nonpolar>
-29.0620

> <Gold.PLP.part.repulsive>
0.0957

> <Gold.PLP.ligand.clash>
0.0000

> <Gold.PLP.ligand.torsion>
0.2130

> <Gold.PLP.Chemscore.Hbond>
1.0000

> <Gold.PLP.Chemscore.CHOScore>
0.0000

> <Gold.PLP.Chemscore.Metal>
0.0000

> <Gold.Chemscore.Hbonds>
donor molecule, donor type, donor heavy atom, donor atom, acceptor molecule, acceptor atom, score
      P1  H  3712  3721       L1     1  1.00

> <Gold.PLP.Chemscore.Internal.Correction>
0.3185

