#       Name:                EN300-107901_i001
#       Creating user name   fsindt
#       Creation time:       Tue Feb 28 18:57:52 2023


#       File generated by GOLD software.
#

@<TRIPOS>MOLECULE
EN300-107901_i001|acide_2|mol2|6590|dock12
    27    28     1
SMALL
USER_CHARGES


@<TRIPOS>ATOM
      1 O1          -0.1040 -16.8127  10.9419 O.co2          1 <1>               -1.0000
      2 C2          -0.6586 -17.0647  11.9980 C.2            1 <1>                0.0000
      3 O3          -1.3320 -18.0752  12.1069 O.co2          1 <1>                0.0000
      4 C4          -0.5081 -16.1395  13.1591 C.3            1 <1>                0.0000
      5 C5           0.8714 -15.6148  13.5202 C.3            1 <1>                0.0000
      6 C6           2.0718 -15.9927  12.6993 C.3            1 <1>                0.0000
      7 C7           2.9006 -17.0996  13.4447 C.3            1 <1>                0.0000
      8 C8           2.5304 -18.3463  12.5651 C.3            1 <1>                0.0000
      9 C9           1.3193 -19.1710  12.9337 C.3            1 <1>                0.0000
     10 C10          0.3748 -18.9766  14.0680 C.3            1 <1>                0.0000
     11 C11          0.7279 -17.7895  14.9401 C.3            1 <1>                0.0000
     12 C12          0.1108 -16.4913  14.4829 C.3            1 <1>                0.0000
     13 H13         -1.3221 -15.3755  13.1908 H              1 <1>                0.0000
     14 H14          0.8986 -14.5156  13.7853 H              1 <1>                0.0000
     15 H15          1.8115 -16.3477  11.7082 H              1 <1>                0.0000
     16 H16          2.7334 -15.1198  12.5839 H              1 <1>                0.0000
     17 H17          3.9712 -16.8793  13.2373 H              1 <1>                0.0000
     18 H18          2.7591 -17.1473  14.4662 H              1 <1>                0.0000
     19 H19          2.4322 -17.9925  11.5342 H              1 <1>                0.0000
     20 H20          3.4173 -18.9981  12.5812 H              1 <1>                0.0000
     21 H21          0.7203 -19.2946  12.0023 H              1 <1>                0.0000
     22 H22          1.7166 -20.2196  13.0503 H              1 <1>                0.0000
     23 H23         -0.6753 -18.9302  13.7299 H              1 <1>                0.0000
     24 H24          0.3881 -19.9005  14.7055 H              1 <1>                0.0000
     25 H25          0.2169 -18.0196  15.9493 H              1 <1>                0.0000
     26 H26          1.7414 -17.7849  15.3103 H              1 <1>                0.0000
     27 H27         -0.3766 -15.9447  15.3713 H              1 <1>                0.0000
@<TRIPOS>BOND
    1    1    2 ar    
    2    2    3 ar    
    3    2    4 1     
    4    4    5 1     
    5    4   12 1     
    6    4   13 1     
    7    5    6 1     
    8    5   12 1     
    9    5   14 1     
   10    6    7 1     
   11    6   15 1     
   12    6   16 1     
   13    7    8 1     
   14    7   17 1     
   15    7   18 1     
   16    8    9 1     
   17    8   19 1     
   18    8   20 1     
   19    9   10 1     
   20    9   21 1     
   21    9   22 1     
   22   10   11 1     
   23   10   23 1     
   24   10   24 1     
   25   11   12 1     
   26   11   25 1     
   27   11   26 1     
   28   12   27 1     
@<TRIPOS>SUBSTRUCTURE
      1 ****           1
@<TRIPOS>COMMENT
> <Gold.Version>
2022.2.0

> <Gold.Id.Protein>
3pbl|protein|mol2

> <Gold.Protein.RotatedTorsions>
[ 1303 1298 1297 1294 ] final  135.75 input  179.99 | X-H torsion
[ 2461 2456 2455 2452 ] final  152.39 input   30.03 | X-H torsion
[ 2515 2510 2509 2506 ] final -116.33 input  -89.99 | X-H torsion
[ 3721 3712 3711 3710 ] final   94.95 input -179.91 | X-H torsion
[ 3841 3832 3831 3830 ] final  141.87 input -179.91 | X-H torsion
[ 3767 3762 3761 3758 ] final  123.03 input  -89.99 | X-H torsion
[ 2472 2467 2466 2463 ] final   54.15 input  -89.97 | X-H torsion

> <Gold.Protein.ActiveResidues>
 VAL82   VAL86   LEU89   PHE106  VAL107  ASP110  VAL111  MET112  CYS114  THR115 
 CYS181  SER182  ILE183  PHE188  VAL189  ILE190  SER192  SER193  SER196  TRP342 
 PHE345  PHE346  HIS349  VAL350  TYR365  THR369  GLY372  TYR373 

> <Gold.Protein.RotatedAtoms>
    4.8519   -9.5374    4.9359 H   0  0  0  0  0  0  0  0  0  0  0  0  # atno 1303 bound_to 1298
    1.8411   -9.0058    8.3265 H   0  0  0  0  0  0  0  0  0  0  0  0  # atno 2461 bound_to 2456
   -4.5473   -4.8097    7.6604 H   0  0  0  0  0  0  0  0  0  0  0  0  # atno 2472 bound_to 2467
    2.7325   -9.1822    4.9476 H   0  0  0  0  0  0  0  0  0  0  0  0  # atno 2515 bound_to 2510
   -2.8203  -17.5557   13.0770 H   0  0  0  0  0  0  0  0  0  0  0  0  # atno 3721 bound_to 3712
   -3.9414  -23.1653   10.9456 H   0  0  0  0  0  0  0  0  0  0  0  0  # atno 3767 bound_to 3762
    3.1332  -20.5000    8.7057 H   0  0  0  0  0  0  0  0  0  0  0  0  # atno 3841 bound_to 3832
    3.4937  -10.0568    4.1930 LP  0  0  0  0  0  0  0  0  0  0  0  0  # atno 4297 bound_to 1298
    4.0164   -8.5270    3.9625 LP  0  0  0  0  0  0  0  0  0  0  0  0  # atno 4298 bound_to 1298
    1.5508   -7.9206    7.1410 LP  0  0  0  0  0  0  0  0  0  0  0  0  # atno 4299 bound_to 2456
    0.3461   -8.8819    7.6808 LP  0  0  0  0  0  0  0  0  0  0  0  0  # atno 4300 bound_to 2456
    2.0484   -8.2247    6.0794 LP  0  0  0  0  0  0  0  0  0  0  0  0  # atno 4301 bound_to 2510
    2.5156   -7.5918    4.6484 LP  0  0  0  0  0  0  0  0  0  0  0  0  # atno 4302 bound_to 2510
   -2.7340  -17.8895   14.6451 LP  0  0  0  0  0  0  0  0  0  0  0  0  # atno 4306 bound_to 3712
   -3.5376  -16.5684   14.1203 LP  0  0  0  0  0  0  0  0  0  0  0  0  # atno 4307 bound_to 3712
    1.8167  -20.8742    9.5442 LP  0  0  0  0  0  0  0  0  0  0  0  0  # atno 4314 bound_to 3832
    1.7932  -19.6505    8.4631 LP  0  0  0  0  0  0  0  0  0  0  0  0  # atno 4315 bound_to 3832
   -5.2952  -22.7544   10.1300 LP  0  0  0  0  0  0  0  0  0  0  0  0  # atno 4318 bound_to 3762
   -4.8905  -21.9555   11.4955 LP  0  0  0  0  0  0  0  0  0  0  0  0  # atno 4319 bound_to 3762
   -3.7729   -5.2202    9.0382 LP  0  0  0  0  0  0  0  0  0  0  0  0  # atno 4320 bound_to 2467
   -5.3966   -5.3636    8.9404 LP  0  0  0  0  0  0  0  0  0  0  0  0  # atno 4321 bound_to 2467

> <Gold.Score>
     Score     S(PLP)   S(hbond)     S(cho)   S(metal)  DE(clash)   DE(tors)     intcor
     32.67     -29.69       1.00       0.00       0.00       0.00       0.17       0.32

> <Gold.PLP.Fitness>
32.6737

> <Gold.PLP.PLP>
-29.6917

> <Gold.PLP.part.hbond>
-1.0000

> <Gold.PLP.part.metal>
0.0000

> <Gold.PLP.part.buried>
-1.2039

> <Gold.PLP.part.nonpolar>
-28.8860

> <Gold.PLP.part.repulsive>
0.1324

> <Gold.PLP.ligand.clash>
0.0000

> <Gold.PLP.ligand.torsion>
0.1682

> <Gold.PLP.Chemscore.Hbond>
1.0000

> <Gold.PLP.Chemscore.CHOScore>
0.0000

> <Gold.PLP.Chemscore.Metal>
0.0000

> <Gold.Chemscore.Hbonds>
donor molecule, donor type, donor heavy atom, donor atom, acceptor molecule, acceptor atom, score
      P1  H  3712  3721       L1     3  1.00

> <Gold.PLP.Chemscore.Internal.Correction>
0.3185

