#       Name:                EN300-107901_i001
#       Creating user name   fsindt
#       Creation time:       Tue Feb 28 18:57:49 2023


#       File generated by GOLD software.
#

@<TRIPOS>MOLECULE
EN300-107901_i001|acide_2|mol2|6590|dock1
    27    28     1
SMALL
USER_CHARGES


@<TRIPOS>ATOM
      1 O1          -1.1552 -19.2101  12.7548 O.co2          1 <1>               -1.0000
      2 C2          -0.2539 -18.5965  12.2091 C.2            1 <1>                0.0000
      3 O3           0.7101 -19.1964  11.7650 O.co2          1 <1>                0.0000
      4 C4          -0.3336 -17.1121  12.0796 C.3            1 <1>                0.0000
      5 C5           0.8788 -16.2668  12.4324 C.3            1 <1>                0.0000
      6 C6           2.1598 -16.9153  12.8753 C.3            1 <1>                0.0000
      7 C7           2.3075 -16.7942  14.4346 C.3            1 <1>                0.0000
      8 C8           1.9986 -18.2773  14.8469 C.3            1 <1>                0.0000
      9 C9           0.5699 -18.6777  15.1312 C.3            1 <1>                0.0000
     10 C10         -0.6566 -17.8350  15.0842 C.3            1 <1>                0.0000
     11 C11         -0.3756 -16.3950  14.7075 C.3            1 <1>                0.0000
     12 C12         -0.3995 -16.1370  13.2216 C.3            1 <1>                0.0000
     13 H13         -0.8631 -16.8035  11.1459 H              1 <1>                0.0000
     14 H14          1.0874 -15.4236  11.7080 H              1 <1>                0.0000
     15 H15          2.2257 -17.9595  12.5901 H              1 <1>                0.0000
     16 H16          3.0175 -16.3873  12.4299 H              1 <1>                0.0000
     17 H17          3.3905 -16.6351  14.6332 H              1 <1>                0.0000
     18 H18          1.7696 -16.0299  14.8732 H              1 <1>                0.0000
     19 H19          2.4093 -18.9195  14.0616 H              1 <1>                0.0000
     20 H20          2.6031 -18.4701  15.7464 H              1 <1>                0.0000
     21 H21          0.3745 -19.6055  14.5460 H              1 <1>                0.0000
     22 H22          0.5991 -19.1073  16.1731 H              1 <1>                0.0000
     23 H23         -1.4377 -18.2752  14.4397 H              1 <1>                0.0000
     24 H24         -1.1375 -17.8482  16.0985 H              1 <1>                0.0000
     25 H25         -1.2822 -15.8134  15.1225 H              1 <1>                0.0000
     26 H26          0.3740 -15.9070  15.3110 H              1 <1>                0.0000
     27 H27         -1.0341 -15.2054  12.9869 H              1 <1>                0.0000
@<TRIPOS>BOND
    1    1    2 ar    
    2    2    3 ar    
    3    2    4 1     
    4    4    5 1     
    5    4   12 1     
    6    4   13 1     
    7    5    6 1     
    8    5   12 1     
    9    5   14 1     
   10    6    7 1     
   11    6   15 1     
   12    6   16 1     
   13    7    8 1     
   14    7   17 1     
   15    7   18 1     
   16    8    9 1     
   17    8   19 1     
   18    8   20 1     
   19    9   10 1     
   20    9   21 1     
   21    9   22 1     
   22   10   11 1     
   23   10   23 1     
   24   10   24 1     
   25   11   12 1     
   26   11   25 1     
   27   11   26 1     
   28   12   27 1     
@<TRIPOS>SUBSTRUCTURE
      1 ****           1
@<TRIPOS>COMMENT
> <Gold.Version>
2022.2.0

> <Gold.Id.Protein>
3pbl|protein|mol2

> <Gold.Protein.RotatedTorsions>
[ 1303 1298 1297 1294 ] final   32.11 input  179.99 | X-H torsion
[ 2461 2456 2455 2452 ] final   72.29 input   30.03 | X-H torsion
[ 2515 2510 2509 2506 ] final  -24.08 input  -89.99 | X-H torsion
[ 3721 3712 3711 3710 ] final   47.41 input -179.91 | X-H torsion
[ 3841 3832 3831 3830 ] final  173.44 input -179.91 | X-H torsion
[ 3767 3762 3761 3758 ] final -155.24 input  -89.99 | X-H torsion
[ 2472 2467 2466 2463 ] final  146.98 input  -89.97 | X-H torsion

> <Gold.Protein.ActiveResidues>
 VAL82   VAL86   LEU89   PHE106  VAL107  ASP110  VAL111  MET112  CYS114  THR115 
 CYS181  SER182  ILE183  PHE188  VAL189  ILE190  SER192  SER193  SER196  TRP342 
 PHE345  PHE346  HIS349  VAL350  TYR365  THR369  GLY372  TYR373 

> <Gold.Protein.RotatedAtoms>
    3.6549  -10.1932    4.3585 H   0  0  0  0  0  0  0  0  0  0  0  0  # atno 1303 bound_to 1298
    2.0336   -8.1251    7.5140 H   0  0  0  0  0  0  0  0  0  0  0  0  # atno 2461 bound_to 2456
   -5.5098   -5.2302    8.5335 H   0  0  0  0  0  0  0  0  0  0  0  0  # atno 2472 bound_to 2467
    2.6901   -7.9348    4.4107 H   0  0  0  0  0  0  0  0  0  0  0  0  # atno 2515 bound_to 2510
   -2.5331  -17.9838   13.5480 H   0  0  0  0  0  0  0  0  0  0  0  0  # atno 3721 bound_to 3712
   -4.3671  -22.2460   11.6499 H   0  0  0  0  0  0  0  0  0  0  0  0  # atno 3767 bound_to 3762
    3.0104  -20.1261    8.4470 H   0  0  0  0  0  0  0  0  0  0  0  0  # atno 3841 bound_to 3832
    3.7998   -8.6457    3.8581 LP  0  0  0  0  0  0  0  0  0  0  0  0  # atno 4297 bound_to 1298
    4.9077   -9.2822    4.8750 LP  0  0  0  0  0  0  0  0  0  0  0  0  # atno 4298 bound_to 1298
    0.4482   -8.4150    7.2500 LP  0  0  0  0  0  0  0  0  0  0  0  0  # atno 4299 bound_to 2456
    1.2562   -9.2679    8.3841 LP  0  0  0  0  0  0  0  0  0  0  0  0  # atno 4300 bound_to 2456
    2.5723   -9.2550    5.3642 LP  0  0  0  0  0  0  0  0  0  0  0  0  # atno 4301 bound_to 2510
    2.0343   -7.8095    5.9007 LP  0  0  0  0  0  0  0  0  0  0  0  0  # atno 4302 bound_to 2510
   -3.0888  -17.2375   14.8565 LP  0  0  0  0  0  0  0  0  0  0  0  0  # atno 4306 bound_to 3712
   -3.5144  -16.7262   13.3652 LP  0  0  0  0  0  0  0  0  0  0  0  0  # atno 4307 bound_to 3712
    2.2741  -21.1140    9.4757 LP  0  0  0  0  0  0  0  0  0  0  0  0  # atno 4314 bound_to 3832
    1.4778  -19.8426    8.8304 LP  0  0  0  0  0  0  0  0  0  0  0  0  # atno 4315 bound_to 3832
   -4.2516  -23.3352   10.4386 LP  0  0  0  0  0  0  0  0  0  0  0  0  # atno 4318 bound_to 3762
   -5.5085  -22.2937   10.4829 LP  0  0  0  0  0  0  0  0  0  0  0  0  # atno 4319 bound_to 3762
   -4.1222   -4.8067    7.7842 LP  0  0  0  0  0  0  0  0  0  0  0  0  # atno 4320 bound_to 2467
   -4.0851   -5.3566    9.3214 LP  0  0  0  0  0  0  0  0  0  0  0  0  # atno 4321 bound_to 2467

> <Gold.Score>
     Score     S(PLP)   S(hbond)     S(cho)   S(metal)  DE(clash)   DE(tors)     intcor
     34.29     -31.29       1.00       0.00       0.00       0.00       0.16       0.32

> <Gold.PLP.Fitness>
34.2902

> <Gold.PLP.PLP>
-31.2947

> <Gold.PLP.part.hbond>
-1.0000

> <Gold.PLP.part.metal>
0.0000

> <Gold.PLP.part.buried>
-0.2110

> <Gold.PLP.part.nonpolar>
-30.2400

> <Gold.PLP.part.repulsive>
0.0928

> <Gold.PLP.ligand.clash>
0.0000

> <Gold.PLP.ligand.torsion>
0.1615

> <Gold.PLP.Chemscore.Hbond>
1.0000

> <Gold.PLP.Chemscore.CHOScore>
0.0000

> <Gold.PLP.Chemscore.Metal>
0.0000

> <Gold.Chemscore.Hbonds>
donor molecule, donor type, donor heavy atom, donor atom, acceptor molecule, acceptor atom, score
      P1  H  3712  3721       L1     1  1.00

> <Gold.PLP.Chemscore.Internal.Correction>
0.3185

