#       Name:                EN300-107901_i001
#       Creating user name   fsindt
#       Creation time:       Tue Feb 28 18:57:55 2023


#       File generated by GOLD software.
#

@<TRIPOS>MOLECULE
EN300-107901_i001|acide_2|mol2|6590|dock19
    27    28     1
SMALL
USER_CHARGES


@<TRIPOS>ATOM
      1 O1          -1.1676 -19.0126  14.1046 O.co2          1 <1>               -1.0000
      2 C2          -0.1559 -19.4933  14.5861 C.2            1 <1>                0.0000
      3 O3          -0.1716 -19.9336  15.7229 O.co2          1 <1>                0.0000
      4 C4           1.0999 -19.5483  13.7818 C.3            1 <1>                0.0000
      5 C5           1.0415 -20.0240  12.3400 C.3            1 <1>                0.0000
      6 C6          -0.2701 -20.4042  11.7132 C.3            1 <1>                0.0000
      7 C7          -0.4011 -21.9687  11.6579 C.3            1 <1>                0.0000
      8 C8          -1.4547 -22.1878  12.8011 C.3            1 <1>                0.0000
      9 C9          -0.9692 -22.3961  14.2165 C.3            1 <1>                0.0000
     10 C10          0.4310 -22.4336  14.7210 C.3            1 <1>                0.0000
     11 C11          1.4628 -22.2440  13.6284 C.3            1 <1>                0.0000
     12 C12          1.8206 -20.8016  13.3704 C.3            1 <1>                0.0000
     13 H13          1.7433 -18.6515  13.9527 H              1 <1>                0.0000
     14 H14          1.6659 -19.4138  11.6209 H              1 <1>                0.0000
     15 H15         -1.1249 -19.9924  12.2384 H              1 <1>                0.0000
     16 H16         -0.3045 -20.0425  10.6735 H              1 <1>                0.0000
     17 H17         -0.9234 -22.2038  10.7041 H              1 <1>                0.0000
     18 H18          0.4895 -22.4899  11.6906 H              1 <1>                0.0000
     19 H19         -2.1408 -21.3358  12.7711 H              1 <1>                0.0000
     20 H20         -2.0453 -23.0664  12.4995 H              1 <1>                0.0000
     21 H21         -1.5501 -21.6966  14.8607 H              1 <1>                0.0000
     22 H22         -1.4280 -23.3767  14.5310 H              1 <1>                0.0000
     23 H23          0.5909 -21.7263  15.5536 H              1 <1>                0.0000
     24 H24          0.6086 -23.4301  15.2064 H              1 <1>                0.0000
     25 H25          2.4235 -22.7128  14.0640 H              1 <1>                0.0000
     26 H26          1.3636 -22.9161  12.7901 H              1 <1>                0.0000
     27 H27          2.9640 -20.6740  13.3270 H              1 <1>                0.0000
@<TRIPOS>BOND
    1    1    2 ar    
    2    2    3 ar    
    3    2    4 1     
    4    4    5 1     
    5    4   12 1     
    6    4   13 1     
    7    5    6 1     
    8    5   12 1     
    9    5   14 1     
   10    6    7 1     
   11    6   15 1     
   12    6   16 1     
   13    7    8 1     
   14    7   17 1     
   15    7   18 1     
   16    8    9 1     
   17    8   19 1     
   18    8   20 1     
   19    9   10 1     
   20    9   21 1     
   21    9   22 1     
   22   10   11 1     
   23   10   23 1     
   24   10   24 1     
   25   11   12 1     
   26   11   25 1     
   27   11   26 1     
   28   12   27 1     
@<TRIPOS>SUBSTRUCTURE
      1 ****           1
@<TRIPOS>COMMENT
> <Gold.Version>
2022.2.0

> <Gold.Id.Protein>
3pbl|protein|mol2

> <Gold.Protein.RotatedTorsions>
[ 1303 1298 1297 1294 ] final  149.48 input  179.99 | X-H torsion
[ 2461 2456 2455 2452 ] final -150.02 input   30.03 | X-H torsion
[ 2515 2510 2509 2506 ] final   94.19 input  -89.99 | X-H torsion
[ 3721 3712 3711 3710 ] final   25.36 input -179.91 | X-H torsion
[ 3841 3832 3831 3830 ] final -102.61 input -179.91 | X-H torsion
[ 3767 3762 3761 3758 ] final  136.37 input  -89.99 | X-H torsion
[ 2472 2467 2466 2463 ] final   99.81 input  -89.97 | X-H torsion

> <Gold.Protein.ActiveResidues>
 VAL82   VAL86   LEU89   PHE106  VAL107  ASP110  VAL111  MET112  CYS114  THR115 
 CYS181  SER182  ILE183  PHE188  VAL189  ILE190  SER192  SER193  SER196  TRP342 
 PHE345  PHE346  HIS349  VAL350  TYR365  THR369  GLY372  TYR373 

> <Gold.Protein.RotatedAtoms>
    4.9026   -9.3232    4.8880 H   0  0  0  0  0  0  0  0  0  0  0  0  # atno 1303 bound_to 1298
    0.9775   -9.2874    8.3064 H   0  0  0  0  0  0  0  0  0  0  0  0  # atno 2461 bound_to 2456
   -5.2253   -4.9658    7.8867 H   0  0  0  0  0  0  0  0  0  0  0  0  # atno 2472 bound_to 2467
    2.0368   -7.7869    5.8836 H   0  0  0  0  0  0  0  0  0  0  0  0  # atno 2515 bound_to 2510
   -2.4755  -18.0343   13.8702 H   0  0  0  0  0  0  0  0  0  0  0  0  # atno 3721 bound_to 3712
   -3.9082  -23.0443   11.1251 H   0  0  0  0  0  0  0  0  0  0  0  0  # atno 3767 bound_to 3762
    1.9974  -19.5832    8.5881 H   0  0  0  0  0  0  0  0  0  0  0  0  # atno 3841 bound_to 3832
    3.6261  -10.1758    4.3311 LP  0  0  0  0  0  0  0  0  0  0  0  0  # atno 4297 bound_to 1298
    3.8332   -8.6223    3.8723 LP  0  0  0  0  0  0  0  0  0  0  0  0  # atno 4298 bound_to 1298
    2.1379   -8.2976    7.7226 LP  0  0  0  0  0  0  0  0  0  0  0  0  # atno 4299 bound_to 2456
    0.6223   -8.2234    7.1194 LP  0  0  0  0  0  0  0  0  0  0  0  0  # atno 4300 bound_to 2456
    2.6993   -7.9601    4.4014 LP  0  0  0  0  0  0  0  0  0  0  0  0  # atno 4301 bound_to 2510
    2.5608   -9.2524    5.3900 LP  0  0  0  0  0  0  0  0  0  0  0  0  # atno 4302 bound_to 2510
   -3.2689  -16.9414   14.7386 LP  0  0  0  0  0  0  0  0  0  0  0  0  # atno 4306 bound_to 3712
   -3.4007  -16.9640   13.1111 LP  0  0  0  0  0  0  0  0  0  0  0  0  # atno 4307 bound_to 3712
    3.1249  -20.7254    8.6009 LP  0  0  0  0  0  0  0  0  0  0  0  0  # atno 4314 bound_to 3832
    1.7971  -20.8583    9.5421 LP  0  0  0  0  0  0  0  0  0  0  0  0  # atno 4315 bound_to 3832
   -5.1530  -22.9121   10.0764 LP  0  0  0  0  0  0  0  0  0  0  0  0  # atno 4318 bound_to 3762
   -5.0659  -21.9188   11.3696 LP  0  0  0  0  0  0  0  0  0  0  0  0  # atno 4319 bound_to 3762
   -3.6630   -4.9643    8.3617 LP  0  0  0  0  0  0  0  0  0  0  0  0  # atno 4320 bound_to 2467
   -4.8287   -5.4634    9.3906 LP  0  0  0  0  0  0  0  0  0  0  0  0  # atno 4321 bound_to 2467

> <Gold.Score>
     Score     S(PLP)   S(hbond)     S(cho)   S(metal)  DE(clash)   DE(tors)     intcor
     27.63     -24.67       1.00       0.00       0.00       0.00       0.18       0.32

> <Gold.PLP.Fitness>
27.6264

> <Gold.PLP.PLP>
-24.6678

> <Gold.PLP.part.hbond>
-1.0000

> <Gold.PLP.part.metal>
0.0000

> <Gold.PLP.part.buried>
-2.6927

> <Gold.PLP.part.nonpolar>
-21.4500

> <Gold.PLP.part.repulsive>
0.0556

> <Gold.PLP.ligand.clash>
0.0000

> <Gold.PLP.ligand.torsion>
0.1800

> <Gold.PLP.Chemscore.Hbond>
1.0000

> <Gold.PLP.Chemscore.CHOScore>
0.0000

> <Gold.PLP.Chemscore.Metal>
0.0000

> <Gold.Chemscore.Hbonds>
donor molecule, donor type, donor heavy atom, donor atom, acceptor molecule, acceptor atom, score
      P1  H  3712  3721       L1     1  1.00

> <Gold.PLP.Chemscore.Internal.Correction>
0.3185

