#       Name:                EN300-107901_i001
#       Creating user name   fsindt
#       Creation time:       Tue Feb 28 18:57:55 2023


#       File generated by GOLD software.
#

@<TRIPOS>MOLECULE
EN300-107901_i001|acide_2|mol2|6590|dock20
    27    28     1
SMALL
USER_CHARGES


@<TRIPOS>ATOM
      1 O1          -2.6477 -22.5170  15.2500 O.co2          1 <1>               -1.0000
      2 C2          -2.8021 -22.9163  14.1084 C.2            1 <1>                0.0000
      3 O3          -3.3230 -22.1943  13.2754 O.co2          1 <1>                0.0000
      4 C4          -2.3482 -24.2864  13.7294 C.3            1 <1>                0.0000
      5 C5          -0.9731 -24.7634  14.1655 C.3            1 <1>                0.0000
      6 C6          -0.0875 -23.8818  14.9999 C.3            1 <1>                0.0000
      7 C7           1.0264 -23.2385  14.0981 C.3            1 <1>                0.0000
      8 C8           0.4848 -21.7671  14.0157 C.3            1 <1>                0.0000
      9 C9          -0.4660 -21.3963  12.9018 C.3            1 <1>                0.0000
     10 C10         -0.9926 -22.2566  11.8067 C.3            1 <1>                0.0000
     11 C11         -0.4649 -23.6755  11.8581 C.3            1 <1>                0.0000
     12 C12         -1.2992 -24.6068  12.7017 C.3            1 <1>                0.0000
     13 H13         -3.1632 -25.0414  13.8438 H              1 <1>                0.0000
     14 H14         -0.9463 -25.8291  14.5435 H              1 <1>                0.0000
     15 H15         -0.6332 -23.0953  15.5095 H              1 <1>                0.0000
     16 H16          0.4272 -24.4867  15.7628 H              1 <1>                0.0000
     17 H17          1.9465 -23.1969  14.7222 H              1 <1>                0.0000
     18 H18          1.2364 -23.7448  13.2233 H              1 <1>                0.0000
     19 H19          0.0223 -21.5421  14.9817 H              1 <1>                0.0000
     20 H20          1.3753 -21.1237  13.9461 H              1 <1>                0.0000
     21 H21         -1.3286 -20.8750  13.3769 H              1 <1>                0.0000
     22 H22          0.0289 -20.5241  12.3867 H              1 <1>                0.0000
     23 H23         -2.0955 -22.2382  11.7588 H              1 <1>                0.0000
     24 H24         -0.6955 -21.8039  10.8233 H              1 <1>                0.0000
     25 H25         -0.5919 -24.0625  10.7780 H              1 <1>                0.0000
     26 H26          0.6103 -23.7578  11.8957 H              1 <1>                0.0000
     27 H27         -1.5056 -25.5862  12.1327 H              1 <1>                0.0000
@<TRIPOS>BOND
    1    1    2 ar    
    2    2    3 ar    
    3    2    4 1     
    4    4    5 1     
    5    4   12 1     
    6    4   13 1     
    7    5    6 1     
    8    5   12 1     
    9    5   14 1     
   10    6    7 1     
   11    6   15 1     
   12    6   16 1     
   13    7    8 1     
   14    7   17 1     
   15    7   18 1     
   16    8    9 1     
   17    8   19 1     
   18    8   20 1     
   19    9   10 1     
   20    9   21 1     
   21    9   22 1     
   22   10   11 1     
   23   10   23 1     
   24   10   24 1     
   25   11   12 1     
   26   11   25 1     
   27   11   26 1     
   28   12   27 1     
@<TRIPOS>SUBSTRUCTURE
      1 ****           1
@<TRIPOS>COMMENT
> <Gold.Version>
2022.2.0

> <Gold.Id.Protein>
3pbl|protein|mol2

> <Gold.Protein.RotatedTorsions>
[ 1303 1298 1297 1294 ] final  167.00 input  179.99 | X-H torsion
[ 2461 2456 2455 2452 ] final  177.29 input   30.03 | X-H torsion
[ 2515 2510 2509 2506 ] final -158.37 input  -89.99 | X-H torsion
[ 3721 3712 3711 3710 ] final  -22.38 input -179.91 | X-H torsion
[ 3841 3832 3831 3830 ] final    8.72 input -179.91 | X-H torsion
[ 3767 3762 3761 3758 ] final -160.64 input  -89.99 | X-H torsion
[ 2472 2467 2466 2463 ] final  173.84 input  -89.97 | X-H torsion

> <Gold.Protein.ActiveResidues>
 VAL82   VAL86   LEU89   PHE106  VAL107  ASP110  VAL111  MET112  CYS114  THR115 
 CYS181  SER182  ILE183  PHE188  VAL189  ILE190  SER192  SER193  SER196  TRP342 
 PHE345  PHE346  HIS349  VAL350  TYR365  THR369  GLY372  TYR373 

> <Gold.Protein.RotatedAtoms>
    4.9023   -9.0556    4.7839 H   0  0  0  0  0  0  0  0  0  0  0  0  # atno 1303 bound_to 1298
    1.4929   -9.2021    8.4010 H   0  0  0  0  0  0  0  0  0  0  0  0  # atno 2461 bound_to 2456
   -5.3990   -5.3630    8.9359 H   0  0  0  0  0  0  0  0  0  0  0  0  # atno 2472 bound_to 2467
    2.4746   -9.2082    5.5722 H   0  0  0  0  0  0  0  0  0  0  0  0  # atno 2515 bound_to 2510
   -2.5643  -17.7790   14.5172 H   0  0  0  0  0  0  0  0  0  0  0  0  # atno 3721 bound_to 3712
   -4.3004  -22.3042   11.6439 H   0  0  0  0  0  0  0  0  0  0  0  0  # atno 3767 bound_to 3762
    1.8189  -20.5833    9.5941 H   0  0  0  0  0  0  0  0  0  0  0  0  # atno 3841 bound_to 3832
    3.8350  -10.2604    4.5091 LP  0  0  0  0  0  0  0  0  0  0  0  0  # atno 4297 bound_to 1298
    3.6246   -8.8054    3.7984 LP  0  0  0  0  0  0  0  0  0  0  0  0  # atno 4298 bound_to 1298
    1.8858   -8.0141    7.3514 LP  0  0  0  0  0  0  0  0  0  0  0  0  # atno 4299 bound_to 2456
    0.3592   -8.5922    7.3960 LP  0  0  0  0  0  0  0  0  0  0  0  0  # atno 4300 bound_to 2456
    2.0634   -7.6375    5.7438 LP  0  0  0  0  0  0  0  0  0  0  0  0  # atno 4301 bound_to 2510
    2.7587   -8.1530    4.3591 LP  0  0  0  0  0  0  0  0  0  0  0  0  # atno 4302 bound_to 2510
   -3.5385  -16.5677   14.1155 LP  0  0  0  0  0  0  0  0  0  0  0  0  # atno 4306 bound_to 3712
   -3.0287  -17.6324   12.9872 LP  0  0  0  0  0  0  0  0  0  0  0  0  # atno 4307 bound_to 3712
    2.0152  -19.6364    8.3131 LP  0  0  0  0  0  0  0  0  0  0  0  0  # atno 4314 bound_to 3832
    3.1130  -20.7920    8.6679 LP  0  0  0  0  0  0  0  0  0  0  0  0  # atno 4315 bound_to 3832
   -4.3155  -23.3346   10.3771 LP  0  0  0  0  0  0  0  0  0  0  0  0  # atno 4318 bound_to 3762
   -5.5113  -22.2361   10.5503 LP  0  0  0  0  0  0  0  0  0  0  0  0  # atno 4319 bound_to 3762
   -4.5424   -4.8086    7.6610 LP  0  0  0  0  0  0  0  0  0  0  0  0  # atno 4320 bound_to 2467
   -3.7757   -5.2220    9.0423 LP  0  0  0  0  0  0  0  0  0  0  0  0  # atno 4321 bound_to 2467

> <Gold.Score>
     Score     S(PLP)   S(hbond)     S(cho)   S(metal)  DE(clash)   DE(tors)     intcor
     30.18     -27.21       1.00       0.00       0.00       0.00       0.17       0.32

> <Gold.PLP.Fitness>
30.1810

> <Gold.PLP.PLP>
-27.2082

> <Gold.PLP.part.hbond>
-1.0000

> <Gold.PLP.part.metal>
0.0000

> <Gold.PLP.part.buried>
-2.0758

> <Gold.PLP.part.nonpolar>
-24.8058

> <Gold.PLP.part.repulsive>
0.0564

> <Gold.PLP.ligand.clash>
0.0000

> <Gold.PLP.ligand.torsion>
0.1729

> <Gold.PLP.Chemscore.Hbond>
1.0000

> <Gold.PLP.Chemscore.CHOScore>
0.0000

> <Gold.PLP.Chemscore.Metal>
0.0000

> <Gold.Chemscore.Hbonds>
donor molecule, donor type, donor heavy atom, donor atom, acceptor molecule, acceptor atom, score
      P1  H  3762  3767       L1     3  1.00

> <Gold.PLP.Chemscore.Internal.Correction>
0.3185

