#       Name:                EN300-107901_i001
#       Creating user name   fsindt
#       Creation time:       Tue Feb 28 18:57:48 2023


#       File generated by GOLD software.
#

@<TRIPOS>MOLECULE
EN300-107901_i001
    27    28     1
SMALL
USER_CHARGES


@<TRIPOS>ATOM
      1 O1          -2.8364  -0.8821  -0.1856 O.co2          1 <1>               -1.0000
      2 C2          -2.1480   0.0718  -0.5060 C.2            1 <1>                0.0000
      3 O3          -1.8579   0.2482  -1.6770 O.co2          1 <1>                0.0000
      4 C4          -1.6656   1.0267   0.5343 C.3            1 <1>                0.0000
      5 C5          -0.3456   1.7502   0.3274 C.3            1 <1>                0.0000
      6 C6           0.4546   1.5367  -0.9263 C.3            1 <1>                0.0000
      7 C7           1.6593   0.5723  -0.6323 C.3            1 <1>                0.0000
      8 C8           1.1378  -0.7281  -1.3409 C.3            1 <1>                0.0000
      9 C9           0.3090  -1.7129  -0.5499 C.3            1 <1>                0.0000
     10 C10         -0.1071  -1.6393   0.8777 C.3            1 <1>                0.0000
     11 C11          0.4041  -0.4005   1.5838 C.3            1 <1>                0.0000
     12 C12         -0.5182   0.7881   1.4755 C.3            1 <1>                0.0000
     13 H13         -2.4925   1.6658   0.9282 H              1 <1>                0.0000
     14 H14         -0.3642   2.8458   0.6078 H              1 <1>                0.0000
     15 H15         -0.1360   1.1327  -1.7412 H              1 <1>                0.0000
     16 H16          0.8843   2.4939  -1.2610 H              1 <1>                0.0000
     17 H17          2.5104   0.9413  -1.2464 H              1 <1>                0.0000
     18 H18          1.9552   0.5203   0.3554 H              1 <1>                0.0000
     19 H19          0.5796  -0.4079  -2.2261 H              1 <1>                0.0000
     20 H20          2.0345  -1.2450  -1.7157 H              1 <1>                0.0000
     21 H21         -0.5948  -1.9358  -1.1623 H              1 <1>                0.0000
     22 H22          0.8595  -2.6914  -0.6520 H              1 <1>                0.0000
     23 H23         -1.1991  -1.7499   0.9976 H              1 <1>                0.0000
     24 H24          0.2924  -2.5418   1.4126 H              1 <1>                0.0000
     25 H25          0.3867  -0.6864   2.7020 H              1 <1>                0.0000
     26 H26          1.4692  -0.2443   1.5103 H              1 <1>                0.0000
     27 H27         -0.6707   1.2723   2.5089 H              1 <1>                0.0000
@<TRIPOS>BOND
    1    1    2 ar    
    2    2    3 ar    
    3    2    4 1     
    4    4    5 1     
    5    4   12 1     
    6    4   13 1     
    7    5    6 1     
    8    5   12 1     
    9    5   14 1     
   10    6    7 1     
   11    6   15 1     
   12    6   16 1     
   13    7    8 1     
   14    7   17 1     
   15    7   18 1     
   16    8    9 1     
   17    8   19 1     
   18    8   20 1     
   19    9   10 1     
   20    9   21 1     
   21    9   22 1     
   22   10   11 1     
   23   10   23 1     
   24   10   24 1     
   25   11   12 1     
   26   11   25 1     
   27   11   26 1     
   28   12   27 1     
@<TRIPOS>SUBSTRUCTURE
      1 ****           1
