#       Name:                EN300-107901_i001
#       Creating user name   fsindt
#       Creation time:       Tue Feb 28 18:57:49 2023


#       File generated by GOLD software.
#

@<TRIPOS>MOLECULE
EN300-107901_i001|acide_2|mol2|6590|dock3
    27    28     1
SMALL
USER_CHARGES


@<TRIPOS>ATOM
      1 O1          -1.1581 -18.0974  15.0643 O.co2          1 <1>               -1.0000
      2 C2          -0.1557 -17.4061  15.0044 C.2            1 <1>                0.0000
      3 O3          -0.2529 -16.1907  14.9981 O.co2          1 <1>                0.0000
      4 C4           1.1905 -18.0473  14.9448 C.3            1 <1>                0.0000
      5 C5           2.3118 -17.3575  14.1861 C.3            1 <1>                0.0000
      6 C6           2.0835 -16.0258  13.5288 C.3            1 <1>                0.0000
      7 C7           1.8973 -16.2198  11.9811 C.3            1 <1>                0.0000
      8 C8           0.3500 -15.9791  11.8672 C.3            1 <1>                0.0000
      9 C9          -0.5881 -17.1549  12.0087 C.3            1 <1>                0.0000
     10 C10         -0.2528 -18.5858  12.2464 C.3            1 <1>                0.0000
     11 C11          1.2375 -18.8408  12.3390 C.3            1 <1>                0.0000
     12 C12          1.7953 -18.6998  13.7333 C.3            1 <1>                0.0000
     13 H13          1.4895 -18.4798  15.9301 H              1 <1>                0.0000
     14 H14          3.3130 -17.3771  14.7120 H              1 <1>                0.0000
     15 H15          1.2243 -15.4986  13.9288 H              1 <1>                0.0000
     16 H16          2.9689 -15.3857  13.6676 H              1 <1>                0.0000
     17 H17          2.3848 -15.3449  11.4969 H              1 <1>                0.0000
     18 H18          2.2995 -17.0871  11.5911 H              1 <1>                0.0000
     19 H19          0.0905 -15.2131  12.6046 H              1 <1>                0.0000
     20 H20          0.1904 -15.5192  10.8799 H              1 <1>                0.0000
     21 H21         -1.3681 -16.8556  12.7459 H              1 <1>                0.0000
     22 H22         -1.2002 -17.1432  11.0621 H              1 <1>                0.0000
     23 H23         -0.7872 -18.9973  13.1205 H              1 <1>                0.0000
     24 H24         -0.6639 -19.1942  11.3972 H              1 <1>                0.0000
     25 H25          1.3473 -19.9625  12.0894 H              1 <1>                0.0000
     26 H26          1.8132 -18.4694  11.5054 H              1 <1>                0.0000
     27 H27          2.4651 -19.6005  13.9898 H              1 <1>                0.0000
@<TRIPOS>BOND
    1    1    2 ar    
    2    2    3 ar    
    3    2    4 1     
    4    4    5 1     
    5    4   12 1     
    6    4   13 1     
    7    5    6 1     
    8    5   12 1     
    9    5   14 1     
   10    6    7 1     
   11    6   15 1     
   12    6   16 1     
   13    7    8 1     
   14    7   17 1     
   15    7   18 1     
   16    8    9 1     
   17    8   19 1     
   18    8   20 1     
   19    9   10 1     
   20    9   21 1     
   21    9   22 1     
   22   10   11 1     
   23   10   23 1     
   24   10   24 1     
   25   11   12 1     
   26   11   25 1     
   27   11   26 1     
   28   12   27 1     
@<TRIPOS>SUBSTRUCTURE
      1 ****           1
@<TRIPOS>COMMENT
> <Gold.Version>
2022.2.0

> <Gold.Id.Protein>
3pbl|protein|mol2

> <Gold.Protein.RotatedTorsions>
[ 1303 1298 1297 1294 ] final   17.33 input  179.99 | X-H torsion
[ 2461 2456 2455 2452 ] final  -44.17 input   30.03 | X-H torsion
[ 2515 2510 2509 2506 ] final  153.20 input  -89.99 | X-H torsion
[ 3721 3712 3711 3710 ] final    5.68 input -179.91 | X-H torsion
[ 3841 3832 3831 3830 ] final    1.74 input -179.91 | X-H torsion
[ 3767 3762 3761 3758 ] final   29.91 input  -89.99 | X-H torsion
[ 2472 2467 2466 2463 ] final  -51.67 input  -89.97 | X-H torsion

> <Gold.Protein.ActiveResidues>
 VAL82   VAL86   LEU89   PHE106  VAL107  ASP110  VAL111  MET112  CYS114  THR115 
 CYS181  SER182  ILE183  PHE188  VAL189  ILE190  SER192  SER193  SER196  TRP342 
 PHE345  PHE346  HIS349  VAL350  TYR365  THR369  GLY372  TYR373 

> <Gold.Protein.RotatedAtoms>
    3.5071  -10.0723    4.2089 H   0  0  0  0  0  0  0  0  0  0  0  0  # atno 1303 bound_to 1298
    0.4771   -8.3746    7.2198 H   0  0  0  0  0  0  0  0  0  0  0  0  # atno 2461 bound_to 2456
   -3.6771   -5.1398    8.8420 H   0  0  0  0  0  0  0  0  0  0  0  0  # atno 2472 bound_to 2467
    2.1602   -8.6912    6.0533 H   0  0  0  0  0  0  0  0  0  0  0  0  # atno 2515 bound_to 2510
   -2.4770  -17.9863   14.1623 H   0  0  0  0  0  0  0  0  0  0  0  0  # atno 3721 bound_to 3712
   -4.9840  -23.0559   10.0646 H   0  0  0  0  0  0  0  0  0  0  0  0  # atno 3767 bound_to 3762
    1.7520  -20.5064    9.5667 H   0  0  0  0  0  0  0  0  0  0  0  0  # atno 3841 bound_to 3832
    3.9950   -8.5355    3.9510 LP  0  0  0  0  0  0  0  0  0  0  0  0  # atno 4297 bound_to 1298
    4.8603   -9.5133    4.9317 LP  0  0  0  0  0  0  0  0  0  0  0  0  # atno 4298 bound_to 1298
    1.1997   -9.2769    8.3734 LP  0  0  0  0  0  0  0  0  0  0  0  0  # atno 4299 bound_to 2456
    2.0607   -8.1566    7.5548 LP  0  0  0  0  0  0  0  0  0  0  0  0  # atno 4300 bound_to 2456
    2.3102   -7.4156    5.0453 LP  0  0  0  0  0  0  0  0  0  0  0  0  # atno 4301 bound_to 2510
    2.8264   -8.8922    4.5763 LP  0  0  0  0  0  0  0  0  0  0  0  0  # atno 4302 bound_to 2510
   -3.4080  -16.7310   14.5301 LP  0  0  0  0  0  0  0  0  0  0  0  0  # atno 4306 bound_to 3712
   -3.2599  -17.2298   12.9823 LP  0  0  0  0  0  0  0  0  0  0  0  0  # atno 4307 bound_to 3712
    2.1185  -19.6490    8.2603 LP  0  0  0  0  0  0  0  0  0  0  0  0  # atno 4314 bound_to 3832
    3.0870  -20.8683    8.7524 LP  0  0  0  0  0  0  0  0  0  0  0  0  # atno 4315 bound_to 3832
   -5.2243  -21.9205   11.2135 LP  0  0  0  0  0  0  0  0  0  0  0  0  # atno 4318 bound_to 3762
   -3.9192  -22.8988   11.2928 LP  0  0  0  0  0  0  0  0  0  0  0  0  # atno 4319 bound_to 3762
   -5.2619   -5.4147    9.1233 LP  0  0  0  0  0  0  0  0  0  0  0  0  # atno 4320 bound_to 2467
   -4.7778   -4.8391    7.6739 LP  0  0  0  0  0  0  0  0  0  0  0  0  # atno 4321 bound_to 2467

> <Gold.Score>
     Score     S(PLP)   S(hbond)     S(cho)   S(metal)  DE(clash)   DE(tors)     intcor
     32.16     -27.08       1.98       0.00       0.00       0.00       0.58       0.32

> <Gold.PLP.Fitness>
32.1610

> <Gold.PLP.PLP>
-27.0835

> <Gold.PLP.part.hbond>
-1.7327

> <Gold.PLP.part.metal>
0.0000

> <Gold.PLP.part.buried>
-0.0834

> <Gold.PLP.part.nonpolar>
-26.5645

> <Gold.PLP.part.repulsive>
0.0836

> <Gold.PLP.ligand.clash>
0.0000

> <Gold.PLP.ligand.torsion>
0.5830

> <Gold.PLP.Chemscore.Hbond>
1.9750

> <Gold.PLP.Chemscore.CHOScore>
0.0000

> <Gold.PLP.Chemscore.Metal>
0.0000

> <Gold.Chemscore.Hbonds>
donor molecule, donor type, donor heavy atom, donor atom, acceptor molecule, acceptor atom, score
      P1  H  2305  2313       L1     3  0.98
      P1  H  3712  3721       L1     1  1.00

> <Gold.PLP.Chemscore.Internal.Correction>
0.3185

