#       Name:                EN300-83792_i001
#       Creating user name   aseyller
#       Creation time:       Fri Apr 21 18:56:41 2023


#       File generated by GOLD software.
#

@<TRIPOS>MOLECULE
EN300-83792_i001|benzaldehydes|mol2|665|dock6
    19    20     1
SMALL
USER_CHARGES


@<TRIPOS>ATOM
      1 O1          25.9501  36.3997  39.8204 O.2            1 <1>                0.0000
      2 C2          26.5463  37.0341  38.9765 C.2            1 <1>                0.0000
      3 C3          28.0020  36.8726  38.8257 C.ar           1 <1>                0.0000
      4 N4          28.6392  35.9308  39.5036 N.ar           1 <1>                0.0000
      5 C5          29.9410  35.7413  39.4072 C.ar           1 <1>                0.0000
      6 C6          30.7310  36.5180  38.5872 C.ar           1 <1>                0.0000
      7 C7          30.1266  37.5393  37.8348 C.ar           1 <1>                0.0000
      8 C8          30.8627  38.3722  36.9780 C.ar           1 <1>                0.0000
      9 C9          30.2197  39.3455  36.2747 C.ar           1 <1>                0.0000
     10 C10         28.8429  39.5261  36.3941 C.ar           1 <1>                0.0000
     11 C11         28.0982  38.7353  37.2172 C.ar           1 <1>                0.0000
     12 C12         28.7234  37.7198  37.9510 C.ar           1 <1>                0.0000
     13 H13         26.0089  37.7145  38.3325 H              1 <1>                0.0000
     14 H14         30.4012  34.9554  39.9878 H              1 <1>                0.0000
     15 H15         31.7952  36.3449  38.5243 H              1 <1>                0.0000
     16 H16         31.9301  38.2427  36.8774 H              1 <1>                0.0000
     17 H17         30.7853  39.9870  35.6152 H              1 <1>                0.0000
     18 H18         28.3583  40.3058  35.8251 H              1 <1>                0.0000
     19 H19         27.0322  38.8879  37.2993 H              1 <1>                0.0000
@<TRIPOS>BOND
    1    1    2 2     
    2    2    3 1     
    3    2   13 1     
    4    3    4 ar    
    5    3   12 ar    
    6    4    5 ar    
    7    5    6 ar    
    8    5   14 1     
    9    6    7 ar    
   10    6   15 1     
   11    7    8 ar    
   12    7   12 ar    
   13    8    9 ar    
   14    8   16 1     
   15    9   10 ar    
   16    9   17 1     
   17   10   11 ar    
   18   10   18 1     
   19   11   12 ar    
   20   11   19 1     
@<TRIPOS>SUBSTRUCTURE
      1 ****           1
@<TRIPOS>COMMENT
> <Gold.Version>
2022.2.0

> <Gold.Id.Protein>
1qkm|1qkm_protein|mol2

> <Gold.Protein.RotatedTorsions>
[  496  491  490  487 ] final  -83.99 input  -89.99 | X-H torsion

> <Gold.Protein.ActiveResidues>
 MET295  LEU298  THR299  LEU301  ALA302  GLU305  TRP335  MET336  LEU339  MET340 
 GLY342  LEU343  ARG346  PHE356  ILE373  ILE376  PHE377  LEU380  LYS471  GLY472 
 MET473  HIS475  LEU476  LEU477  ASN478  MET479  VAL484  VAL487 

> <Gold.Protein.RotatedAtoms>
   36.7021   34.6882   41.1535 H   0  0  0  0  0  0  0  0  0  0  0  0  # atno 496  bound_to 491 

> <Gold.Score>
     Score     S(PLP)   S(hbond)     S(cho)   S(metal)  DE(clash)   DE(tors)     intcor
     40.63     -37.67       0.00       0.99       0.00       0.00       0.01       0.00

> <Gold.PLP.Fitness>
40.6299

> <Gold.PLP.PLP>
-37.6714

> <Gold.PLP.part.hbond>
0.0000

> <Gold.PLP.part.metal>
0.0000

> <Gold.PLP.part.buried>
-2.5860

> <Gold.PLP.part.nonpolar>
-35.4395

> <Gold.PLP.part.repulsive>
0.1560

> <Gold.PLP.ligand.clash>
0.0000

> <Gold.PLP.ligand.torsion>
0.0127

> <Gold.PLP.Chemscore.Hbond>
0.0000

> <Gold.PLP.Chemscore.CHOScore>
0.9946

> <Gold.PLP.Chemscore.Metal>
0.0000

> <Gold.Chemscore.Hbonds>
donor molecule, donor type, donor heavy atom, donor atom, acceptor molecule, acceptor atom, score
      L1  C     5    14       P1   470  0.99

> <Gold.PLP.Chemscore.Internal.Correction>
0.0000

