#       Name:                EN300-83792_i001
#       Creating user name   aseyller
#       Creation time:       Fri Apr 21 18:56:42 2023


#       File generated by GOLD software.
#

@<TRIPOS>MOLECULE
EN300-83792_i001|benzaldehydes|mol2|665|dock9
    19    20     1
SMALL
USER_CHARGES


@<TRIPOS>ATOM
      1 O1          31.9241  35.8614  38.2424 O.2            1 <1>                0.0000
      2 C2          30.8952  35.8216  38.8827 C.2            1 <1>                0.0000
      3 C3          29.7291  36.6107  38.4521 C.ar           1 <1>                0.0000
      4 N4          29.8205  37.4112  37.4017 N.ar           1 <1>                0.0000
      5 C5          28.8088  38.1404  36.9721 C.ar           1 <1>                0.0000
      6 C6          27.5788  38.1172  37.5937 C.ar           1 <1>                0.0000
      7 C7          27.4037  37.2910  38.7168 C.ar           1 <1>                0.0000
      8 C8          26.1826  37.2128  39.4040 C.ar           1 <1>                0.0000
      9 C9          26.0748  36.3933  40.4867 C.ar           1 <1>                0.0000
     10 C10         27.1588  35.6328  40.9216 C.ar           1 <1>                0.0000
     11 C11         28.3587  35.6853  40.2775 C.ar           1 <1>                0.0000
     12 C12         28.5054  36.5113  39.1564 C.ar           1 <1>                0.0000
     13 H13         30.8327  35.2038  39.7664 H              1 <1>                0.0000
     14 H14         28.9483  38.7743  36.1087 H              1 <1>                0.0000
     15 H15         26.7646  38.7231  37.2245 H              1 <1>                0.0000
     16 H16         25.3355  37.7976  39.0774 H              1 <1>                0.0000
     17 H17         25.1356  36.3324  41.0164 H              1 <1>                0.0000
     18 H18         27.0460  34.9914  41.7832 H              1 <1>                0.0000
     19 H19         29.1896  35.0902  40.6267 H              1 <1>                0.0000
@<TRIPOS>BOND
    1    1    2 2     
    2    2    3 1     
    3    2   13 1     
    4    3    4 ar    
    5    3   12 ar    
    6    4    5 ar    
    7    5    6 ar    
    8    5   14 1     
    9    6    7 ar    
   10    6   15 1     
   11    7    8 ar    
   12    7   12 ar    
   13    8    9 ar    
   14    8   16 1     
   15    9   10 ar    
   16    9   17 1     
   17   10   11 ar    
   18   10   18 1     
   19   11   12 ar    
   20   11   19 1     
@<TRIPOS>SUBSTRUCTURE
      1 ****           1
@<TRIPOS>COMMENT
> <Gold.Version>
2022.2.0

> <Gold.Id.Protein>
1qkm|1qkm_protein|mol2

> <Gold.Protein.RotatedTorsions>
[  496  491  490  487 ] final   11.37 input  -89.99 | X-H torsion

> <Gold.Protein.ActiveResidues>
 MET295  LEU298  THR299  LEU301  ALA302  GLU305  TRP335  MET336  LEU339  MET340 
 GLY342  LEU343  ARG346  PHE356  ILE373  ILE376  PHE377  LEU380  LYS471  GLY472 
 MET473  HIS475  LEU476  LEU477  ASN478  MET479  VAL484  VAL487 

> <Gold.Protein.RotatedAtoms>
   36.2763   34.0455   42.3157 H   0  0  0  0  0  0  0  0  0  0  0  0  # atno 496  bound_to 491 

> <Gold.Score>
     Score     S(PLP)   S(hbond)     S(cho)   S(metal)  DE(clash)   DE(tors)     intcor
     40.96     -40.96       0.00       0.00       0.00       0.00       0.00       0.00

> <Gold.PLP.Fitness>
40.9568

> <Gold.PLP.PLP>
-40.9612

> <Gold.PLP.part.hbond>
0.0000

> <Gold.PLP.part.metal>
0.0000

> <Gold.PLP.part.buried>
-2.9313

> <Gold.PLP.part.nonpolar>
-38.0681

> <Gold.PLP.part.repulsive>
0.0582

> <Gold.PLP.ligand.clash>
0.0000

> <Gold.PLP.ligand.torsion>
0.0022

> <Gold.PLP.Chemscore.Hbond>
0.0000

> <Gold.PLP.Chemscore.CHOScore>
0.0000

> <Gold.PLP.Chemscore.Metal>
0.0000

> <Gold.PLP.Chemscore.Internal.Correction>
0.0000

