#       Name:                EN300-83792_i001
#       Creating user name   aseyller
#       Creation time:       Fri Apr 21 18:56:42 2023


#       File generated by GOLD software.
#

@<TRIPOS>MOLECULE
EN300-83792_i001|benzaldehydes|mol2|665|dock13
    19    20     1
SMALL
USER_CHARGES


@<TRIPOS>ATOM
      1 O1          31.4988  33.2740  38.4956 O.2            1 <1>                0.0000
      2 C2          32.1109  34.1498  37.9225 C.2            1 <1>                0.0000
      3 C3          31.4851  35.4649  37.7062 C.ar           1 <1>                0.0000
      4 N4          30.5258  35.8849  38.5160 N.ar           1 <1>                0.0000
      5 C5          29.9308  37.0530  38.3693 C.ar           1 <1>                0.0000
      6 C6          30.2714  37.9212  37.3544 C.ar           1 <1>                0.0000
      7 C7          31.2821  37.5456  36.4532 C.ar           1 <1>                0.0000
      8 C8          31.6847  38.3738  35.3942 C.ar           1 <1>                0.0000
      9 C9          32.6705  37.9539  34.5532 C.ar           1 <1>                0.0000
     10 C10         33.2838  36.7147  34.7289 C.ar           1 <1>                0.0000
     11 C11         32.9167  35.8859  35.7466 C.ar           1 <1>                0.0000
     12 C12         31.9116  36.2864  36.6353 C.ar           1 <1>                0.0000
     13 H13         33.1168  33.9666  37.5746 H              1 <1>                0.0000
     14 H14         29.1542  37.3371  39.0641 H              1 <1>                0.0000
     15 H15         29.7703  38.8725  37.2534 H              1 <1>                0.0000
     16 H16         31.2167  39.3359  35.2471 H              1 <1>                0.0000
     17 H17         32.9811  38.5904  33.7378 H              1 <1>                0.0000
     18 H18         34.0627  36.4062  34.0472 H              1 <1>                0.0000
     19 H19         33.4011  34.9284  35.8695 H              1 <1>                0.0000
@<TRIPOS>BOND
    1    1    2 2     
    2    2    3 1     
    3    2   13 1     
    4    3    4 ar    
    5    3   12 ar    
    6    4    5 ar    
    7    5    6 ar    
    8    5   14 1     
    9    6    7 ar    
   10    6   15 1     
   11    7    8 ar    
   12    7   12 ar    
   13    8    9 ar    
   14    8   16 1     
   15    9   10 ar    
   16    9   17 1     
   17   10   11 ar    
   18   10   18 1     
   19   11   12 ar    
   20   11   19 1     
@<TRIPOS>SUBSTRUCTURE
      1 ****           1
@<TRIPOS>COMMENT
> <Gold.Version>
2022.2.0

> <Gold.Id.Protein>
1qkm|1qkm_protein|mol2

> <Gold.Protein.RotatedTorsions>
[  496  491  490  487 ] final -118.93 input  -89.99 | X-H torsion

> <Gold.Protein.ActiveResidues>
 MET295  LEU298  THR299  LEU301  ALA302  GLU305  TRP335  MET336  LEU339  MET340 
 GLY342  LEU343  ARG346  PHE356  ILE373  ILE376  PHE377  LEU380  LYS471  GLY472 
 MET473  HIS475  LEU476  LEU477  ASN478  MET479  VAL484  VAL487 

> <Gold.Protein.RotatedAtoms>
   37.0172   34.3696   40.8072 H   0  0  0  0  0  0  0  0  0  0  0  0  # atno 496  bound_to 491 

> <Gold.Score>
     Score     S(PLP)   S(hbond)     S(cho)   S(metal)  DE(clash)   DE(tors)     intcor
     40.07     -40.35       0.00       0.00       0.00       0.00       0.14       0.00

> <Gold.PLP.Fitness>
40.0725

> <Gold.PLP.PLP>
-40.3478

> <Gold.PLP.part.hbond>
0.0000

> <Gold.PLP.part.metal>
0.0000

> <Gold.PLP.part.buried>
-3.3652

> <Gold.PLP.part.nonpolar>
-37.4725

> <Gold.PLP.part.repulsive>
0.1152

> <Gold.PLP.ligand.clash>
0.0000

> <Gold.PLP.ligand.torsion>
0.1377

> <Gold.PLP.Chemscore.Hbond>
0.0000

> <Gold.PLP.Chemscore.CHOScore>
0.0000

> <Gold.PLP.Chemscore.Metal>
0.0000

> <Gold.PLP.Chemscore.Internal.Correction>
0.0000

