#       Name:                EN300-83792_i001
#       Creating user name   aseyller
#       Creation time:       Fri Apr 21 18:56:44 2023


#       File generated by GOLD software.
#

@<TRIPOS>MOLECULE
EN300-83792_i001|benzaldehydes|mol2|665|dock20
    19    20     1
SMALL
USER_CHARGES


@<TRIPOS>ATOM
      1 O1          31.6875  34.3058  38.7299 O.2            1 <1>                0.0000
      2 C2          31.3314  35.4417  38.4995 C.2            1 <1>                0.0000
      3 C3          31.7313  36.0982  37.2436 C.ar           1 <1>                0.0000
      4 N4          32.6193  35.5236  36.4477 N.ar           1 <1>                0.0000
      5 C5          33.0137  36.0661  35.3118 C.ar           1 <1>                0.0000
      6 C6          32.5231  37.2777  34.8747 C.ar           1 <1>                0.0000
      7 C7          31.5759  37.9495  35.6660 C.ar           1 <1>                0.0000
      8 C8          31.0300  39.1865  35.2898 C.ar           1 <1>                0.0000
      9 C9          30.1155  39.7889  36.0996 C.ar           1 <1>                0.0000
     10 C10         29.7150  39.1955  37.2955 C.ar           1 <1>                0.0000
     11 C11         30.2254  37.9953  37.6909 C.ar           1 <1>                0.0000
     12 C12         31.1628  37.3427  36.8810 C.ar           1 <1>                0.0000
     13 H13         30.7173  35.9704  39.2135 H              1 <1>                0.0000
     14 H14         33.7423  35.5463  34.7072 H              1 <1>                0.0000
     15 H15         32.8608  37.7032  33.9413 H              1 <1>                0.0000
     16 H16         31.3327  39.6568  34.3660 H              1 <1>                0.0000
     17 H17         29.6948  40.7409  35.8111 H              1 <1>                0.0000
     18 H18         28.9883  39.6951  37.9191 H              1 <1>                0.0000
     19 H19         29.9054  37.5482  38.6205 H              1 <1>                0.0000
@<TRIPOS>BOND
    1    1    2 2     
    2    2    3 1     
    3    2   13 1     
    4    3    4 ar    
    5    3   12 ar    
    6    4    5 ar    
    7    5    6 ar    
    8    5   14 1     
    9    6    7 ar    
   10    6   15 1     
   11    7    8 ar    
   12    7   12 ar    
   13    8    9 ar    
   14    8   16 1     
   15    9   10 ar    
   16    9   17 1     
   17   10   11 ar    
   18   10   18 1     
   19   11   12 ar    
   20   11   19 1     
@<TRIPOS>SUBSTRUCTURE
      1 ****           1
@<TRIPOS>COMMENT
> <Gold.Version>
2022.2.0

> <Gold.Id.Protein>
1qkm|1qkm_protein|mol2

> <Gold.Protein.RotatedTorsions>
[  496  491  490  487 ] final  -48.48 input  -89.99 | X-H torsion

> <Gold.Protein.ActiveResidues>
 MET295  LEU298  THR299  LEU301  ALA302  GLU305  TRP335  MET336  LEU339  MET340 
 GLY342  LEU343  ARG346  PHE356  ILE373  ILE376  PHE377  LEU380  LYS471  GLY472 
 MET473  HIS475  LEU476  LEU477  ASN478  MET479  VAL484  VAL487 

> <Gold.Protein.RotatedAtoms>
   36.4145   34.6976   41.6515 H   0  0  0  0  0  0  0  0  0  0  0  0  # atno 496  bound_to 491 

> <Gold.Score>
     Score     S(PLP)   S(hbond)     S(cho)   S(metal)  DE(clash)   DE(tors)     intcor
     38.26     -38.30       0.00       0.00       0.00       0.00       0.02       0.00

> <Gold.PLP.Fitness>
38.2640

> <Gold.PLP.PLP>
-38.3010

> <Gold.PLP.part.hbond>
0.0000

> <Gold.PLP.part.metal>
0.0000

> <Gold.PLP.part.buried>
-3.2046

> <Gold.PLP.part.nonpolar>
-35.4918

> <Gold.PLP.part.repulsive>
0.1062

> <Gold.PLP.ligand.clash>
0.0000

> <Gold.PLP.ligand.torsion>
0.0185

> <Gold.PLP.Chemscore.Hbond>
0.0000

> <Gold.PLP.Chemscore.CHOScore>
0.0000

> <Gold.PLP.Chemscore.Metal>
0.0000

> <Gold.PLP.Chemscore.Internal.Correction>
0.0000

