#       Name:                EN300-83792_i001
#       Creating user name   aseyller
#       Creation time:       Fri Apr 21 18:56:40 2023


#       File generated by GOLD software.
#

@<TRIPOS>MOLECULE
EN300-83792_i001|benzaldehydes|mol2|665|dock5
    19    20     1
SMALL
USER_CHARGES


@<TRIPOS>ATOM
      1 O1          29.1349  36.9791  40.0027 O.2            1 <1>                0.0000
      2 C2          29.6786  37.2693  38.9586 C.2            1 <1>                0.0000
      3 C3          30.6705  36.3563  38.3665 C.ar           1 <1>                0.0000
      4 N4          30.9235  35.1896  38.9384 N.ar           1 <1>                0.0000
      5 C5          31.8012  34.3335  38.4518 C.ar           1 <1>                0.0000
      6 C6          32.5192  34.5993  37.3057 C.ar           1 <1>                0.0000
      7 C7          32.3058  35.8188  36.6410 C.ar           1 <1>                0.0000
      8 C8          32.9978  36.1625  35.4694 C.ar           1 <1>                0.0000
      9 C9          32.7473  37.3601  34.8707 C.ar           1 <1>                0.0000
     10 C10         31.8152  38.2481  35.4047 C.ar           1 <1>                0.0000
     11 C11         31.1261  37.9459  36.5410 C.ar           1 <1>                0.0000
     12 C12         31.3519  36.7210  37.1807 C.ar           1 <1>                0.0000
     13 H13         29.4321  38.1954  38.4606 H              1 <1>                0.0000
     14 H14         31.9621  33.3977  38.9664 H              1 <1>                0.0000
     15 H15         33.2329  33.8834  36.9257 H              1 <1>                0.0000
     16 H16         33.7230  35.4834  35.0463 H              1 <1>                0.0000
     17 H17         33.2793  37.6257  33.9691 H              1 <1>                0.0000
     18 H18         31.6362  39.1913  34.9098 H              1 <1>                0.0000
     19 H19         30.4072  38.6446  36.9428 H              1 <1>                0.0000
@<TRIPOS>BOND
    1    1    2 2     
    2    2    3 1     
    3    2   13 1     
    4    3    4 ar    
    5    3   12 ar    
    6    4    5 ar    
    7    5    6 ar    
    8    5   14 1     
    9    6    7 ar    
   10    6   15 1     
   11    7    8 ar    
   12    7   12 ar    
   13    8    9 ar    
   14    8   16 1     
   15    9   10 ar    
   16    9   17 1     
   17   10   11 ar    
   18   10   18 1     
   19   11   12 ar    
   20   11   19 1     
@<TRIPOS>SUBSTRUCTURE
      1 ****           1
@<TRIPOS>COMMENT
> <Gold.Version>
2022.2.0

> <Gold.Id.Protein>
1qkm|1qkm_protein|mol2

> <Gold.Protein.RotatedTorsions>
[  496  491  490  487 ] final -150.45 input  -89.99 | X-H torsion

> <Gold.Protein.ActiveResidues>
 MET295  LEU298  THR299  LEU301  ALA302  GLU305  TRP335  MET336  LEU339  MET340 
 GLY342  LEU343  ARG346  PHE356  ILE373  ILE376  PHE377  LEU380  LYS471  GLY472 
 MET473  HIS475  LEU476  LEU477  ASN478  MET479  VAL484  VAL487 

> <Gold.Protein.RotatedAtoms>
   37.2335   33.9129   40.7234 H   0  0  0  0  0  0  0  0  0  0  0  0  # atno 496  bound_to 491 

> <Gold.Score>
     Score     S(PLP)   S(hbond)     S(cho)   S(metal)  DE(clash)   DE(tors)     intcor
     39.97     -39.98       0.00       0.00       0.00       0.00       0.00       0.00

> <Gold.PLP.Fitness>
39.9722

> <Gold.PLP.PLP>
-39.9767

> <Gold.PLP.part.hbond>
0.0000

> <Gold.PLP.part.metal>
0.0000

> <Gold.PLP.part.buried>
-3.4693

> <Gold.PLP.part.nonpolar>
-37.0531

> <Gold.PLP.part.repulsive>
0.1523

> <Gold.PLP.ligand.clash>
0.0000

> <Gold.PLP.ligand.torsion>
0.0023

> <Gold.PLP.Chemscore.Hbond>
0.0000

> <Gold.PLP.Chemscore.CHOScore>
0.0000

> <Gold.PLP.Chemscore.Metal>
0.0000

> <Gold.PLP.Chemscore.Internal.Correction>
0.0000

