#       Name:                EN300-83792_i001
#       Creating user name   aseyller
#       Creation time:       Fri Apr 21 18:56:43 2023


#       File generated by GOLD software.
#

@<TRIPOS>MOLECULE
EN300-83792_i001|benzaldehydes|mol2|665|dock16
    19    20     1
SMALL
USER_CHARGES


@<TRIPOS>ATOM
      1 O1          30.4193  39.3685  35.6145 O.2            1 <1>                0.0000
      2 C2          29.4878  38.9668  36.2785 C.2            1 <1>                0.0000
      3 C3          29.6956  37.8944  37.2657 C.ar           1 <1>                0.0000
      4 N4          30.9002  37.3721  37.4348 N.ar           1 <1>                0.0000
      5 C5          31.1436  36.4103  38.3041 C.ar           1 <1>                0.0000
      6 C6          30.1513  35.8808  39.1009 C.ar           1 <1>                0.0000
      7 C7          28.8450  36.3841  38.9792 C.ar           1 <1>                0.0000
      8 C8          27.7811  35.8970  39.7541 C.ar           1 <1>                0.0000
      9 C9          26.5364  36.4253  39.5901 C.ar           1 <1>                0.0000
     10 C10         26.3045  37.4411  38.6644 C.ar           1 <1>                0.0000
     11 C11         27.3148  37.9367  37.8956 C.ar           1 <1>                0.0000
     12 C12         28.6093  37.4230  38.0410 C.ar           1 <1>                0.0000
     13 H13         28.5063  39.3987  36.1489 H              1 <1>                0.0000
     14 H14         32.1491  36.0263  38.3938 H              1 <1>                0.0000
     15 H15         30.3738  35.0933  39.8057 H              1 <1>                0.0000
     16 H16         27.9479  35.1098  40.4743 H              1 <1>                0.0000
     17 H17         25.7170  36.0513  40.1859 H              1 <1>                0.0000
     18 H18         25.3076  37.8419  38.5543 H              1 <1>                0.0000
     19 H19         27.1193  38.7237  37.1823 H              1 <1>                0.0000
@<TRIPOS>BOND
    1    1    2 2     
    2    2    3 1     
    3    2   13 1     
    4    3    4 ar    
    5    3   12 ar    
    6    4    5 ar    
    7    5    6 ar    
    8    5   14 1     
    9    6    7 ar    
   10    6   15 1     
   11    7    8 ar    
   12    7   12 ar    
   13    8    9 ar    
   14    8   16 1     
   15    9   10 ar    
   16    9   17 1     
   17   10   11 ar    
   18   10   18 1     
   19   11   12 ar    
   20   11   19 1     
@<TRIPOS>SUBSTRUCTURE
      1 ****           1
@<TRIPOS>COMMENT
> <Gold.Version>
2022.2.0

> <Gold.Id.Protein>
1qkm|1qkm_protein|mol2

> <Gold.Protein.RotatedTorsions>
[  496  491  490  487 ] final  -36.35 input  -89.99 | X-H torsion

> <Gold.Protein.ActiveResidues>
 MET295  LEU298  THR299  LEU301  ALA302  GLU305  TRP335  MET336  LEU339  MET340 
 GLY342  LEU343  ARG346  PHE356  ILE373  ILE376  PHE377  LEU380  LYS471  GLY472 
 MET473  HIS475  LEU476  LEU477  ASN478  MET479  VAL484  VAL487 

> <Gold.Protein.RotatedAtoms>
   36.3440   34.6239   41.8228 H   0  0  0  0  0  0  0  0  0  0  0  0  # atno 496  bound_to 491 

> <Gold.Score>
     Score     S(PLP)   S(hbond)     S(cho)   S(metal)  DE(clash)   DE(tors)     intcor
     39.12     -39.12       0.00       0.00       0.00       0.00       0.00       0.00

> <Gold.PLP.Fitness>
39.1232

> <Gold.PLP.PLP>
-39.1233

> <Gold.PLP.part.hbond>
0.0000

> <Gold.PLP.part.metal>
0.0000

> <Gold.PLP.part.buried>
-2.8735

> <Gold.PLP.part.nonpolar>
-36.5028

> <Gold.PLP.part.repulsive>
0.0000

> <Gold.PLP.ligand.clash>
0.0000

> <Gold.PLP.ligand.torsion>
0.0000

> <Gold.PLP.Chemscore.Hbond>
0.0000

> <Gold.PLP.Chemscore.CHOScore>
0.0000

> <Gold.PLP.Chemscore.Metal>
0.0000

> <Gold.PLP.Chemscore.Internal.Correction>
0.0000

