#       Name:                EN300-83792_i001
#       Creating user name   aseyller
#       Creation time:       Fri Apr 21 18:56:43 2023


#       File generated by GOLD software.
#

@<TRIPOS>MOLECULE
EN300-83792_i001|benzaldehydes|mol2|665|dock15
    19    20     1
SMALL
USER_CHARGES


@<TRIPOS>ATOM
      1 O1          31.3455  38.2239  36.3501 O.2            1 <1>                0.0000
      2 C2          30.1834  38.1917  36.6942 C.2            1 <1>                0.0000
      3 C3          29.7660  37.3089  37.7962 C.ar           1 <1>                0.0000
      4 N4          30.6546  36.5358  38.4004 N.ar           1 <1>                0.0000
      5 C5          30.3367  35.7264  39.3923 C.ar           1 <1>                0.0000
      6 C6          29.0471  35.6311  39.8695 C.ar           1 <1>                0.0000
      7 C7          28.0467  36.4213  39.2783 C.ar           1 <1>                0.0000
      8 C8          26.7111  36.3805  39.7074 C.ar           1 <1>                0.0000
      9 C9          25.7864  37.1706  39.0942 C.ar           1 <1>                0.0000
     10 C10         26.1472  38.0175  38.0477 C.ar           1 <1>                0.0000
     11 C11         27.4349  38.0813  37.6062 C.ar           1 <1>                0.0000
     12 C12         28.4146  37.2888  38.2167 C.ar           1 <1>                0.0000
     13 H13         29.4550  38.8138  36.1952 H              1 <1>                0.0000
     14 H14         31.1089  35.1207  39.8432 H              1 <1>                0.0000
     15 H15         28.8099  34.9611  40.6826 H              1 <1>                0.0000
     16 H16         26.4189  35.7280  40.5167 H              1 <1>                0.0000
     17 H17         24.7583  37.1399  39.4235 H              1 <1>                0.0000
     18 H18         25.3937  38.6331  37.5789 H              1 <1>                0.0000
     19 H19         27.6989  38.7423  36.7939 H              1 <1>                0.0000
@<TRIPOS>BOND
    1    1    2 2     
    2    2    3 1     
    3    2   13 1     
    4    3    4 ar    
    5    3   12 ar    
    6    4    5 ar    
    7    5    6 ar    
    8    5   14 1     
    9    6    7 ar    
   10    6   15 1     
   11    7    8 ar    
   12    7   12 ar    
   13    8    9 ar    
   14    8   16 1     
   15    9   10 ar    
   16    9   17 1     
   17   10   11 ar    
   18   10   18 1     
   19   11   12 ar    
   20   11   19 1     
@<TRIPOS>SUBSTRUCTURE
      1 ****           1
@<TRIPOS>COMMENT
> <Gold.Version>
2022.2.0

> <Gold.Id.Protein>
1qkm|1qkm_protein|mol2

> <Gold.Protein.RotatedTorsions>
[  496  491  490  487 ] final  -15.21 input  -89.99 | X-H torsion

> <Gold.Protein.ActiveResidues>
 MET295  LEU298  THR299  LEU301  ALA302  GLU305  TRP335  MET336  LEU339  MET340 
 GLY342  LEU343  ARG346  PHE356  ILE373  ILE376  PHE377  LEU380  LYS471  GLY472 
 MET473  HIS475  LEU476  LEU477  ASN478  MET479  VAL484  VAL487 

> <Gold.Protein.RotatedAtoms>
   36.2700   34.4145   42.0881 H   0  0  0  0  0  0  0  0  0  0  0  0  # atno 496  bound_to 491 

> <Gold.Score>
     Score     S(PLP)   S(hbond)     S(cho)   S(metal)  DE(clash)   DE(tors)     intcor
     40.45     -37.53       0.00       0.97       0.00       0.00       0.00       0.00

> <Gold.PLP.Fitness>
40.4495

> <Gold.PLP.PLP>
-37.5274

> <Gold.PLP.part.hbond>
0.0000

> <Gold.PLP.part.metal>
0.0000

> <Gold.PLP.part.buried>
-1.5717

> <Gold.PLP.part.nonpolar>
-36.2026

> <Gold.PLP.part.repulsive>
0.0462

> <Gold.PLP.ligand.clash>
0.0000

> <Gold.PLP.ligand.torsion>
0.0002

> <Gold.PLP.Chemscore.Hbond>
0.0000

> <Gold.PLP.Chemscore.CHOScore>
0.9742

> <Gold.PLP.Chemscore.Metal>
0.0000

> <Gold.Chemscore.Hbonds>
donor molecule, donor type, donor heavy atom, donor atom, acceptor molecule, acceptor atom, score
      L1  C     5    14       P1   470  0.97

> <Gold.PLP.Chemscore.Internal.Correction>
0.0000

