#       Name:                EN300-83792_i001
#       Creating user name   aseyller
#       Creation time:       Fri Apr 21 18:56:40 2023


#       File generated by GOLD software.
#

@<TRIPOS>MOLECULE
EN300-83792_i001|benzaldehydes|mol2|665|dock4
    19    20     1
SMALL
USER_CHARGES


@<TRIPOS>ATOM
      1 O1          29.9115  38.9143  36.2556 O.2            1 <1>                0.0000
      2 C2          28.9299  38.5231  36.8502 C.2            1 <1>                0.0000
      3 C3          29.0690  37.5273  37.9258 C.ar           1 <1>                0.0000
      4 N4          30.2442  36.9661  38.1631 N.ar           1 <1>                0.0000
      5 C5          30.4262  36.0691  39.1130 C.ar           1 <1>                0.0000
      6 C6          29.3959  35.6530  39.9285 C.ar           1 <1>                0.0000
      7 C7          28.1172  36.2038  39.7377 C.ar           1 <1>                0.0000
      8 C8          27.0178  35.8314  40.5264 C.ar           1 <1>                0.0000
      9 C9          25.8026  36.4007  40.2929 C.ar           1 <1>                0.0000
     10 C10         25.6357  37.3463  39.2826 C.ar           1 <1>                0.0000
     11 C11         26.6820  37.7302  38.4982 C.ar           1 <1>                0.0000
     12 C12         27.9478  37.1715  38.7131 C.ar           1 <1>                0.0000
     13 H13         27.9540  38.9083  36.5938 H              1 <1>                0.0000
     14 H14         31.4106  35.6483  39.2555 H              1 <1>                0.0000
     15 H15         29.5681  34.9169  40.6997 H              1 <1>                0.0000
     16 H16         27.1341  35.0993  41.3118 H              1 <1>                0.0000
     17 H17         24.9558  36.1149  40.8992 H              1 <1>                0.0000
     18 H18         24.6610  37.7819  39.1186 H              1 <1>                0.0000
     19 H19         26.5367  38.4638  37.7191 H              1 <1>                0.0000
@<TRIPOS>BOND
    1    1    2 2     
    2    2    3 1     
    3    2   13 1     
    4    3    4 ar    
    5    3   12 ar    
    6    4    5 ar    
    7    5    6 ar    
    8    5   14 1     
    9    6    7 ar    
   10    6   15 1     
   11    7    8 ar    
   12    7   12 ar    
   13    8    9 ar    
   14    8   16 1     
   15    9   10 ar    
   16    9   17 1     
   17   10   11 ar    
   18   10   18 1     
   19   11   12 ar    
   20   11   19 1     
@<TRIPOS>SUBSTRUCTURE
      1 ****           1
@<TRIPOS>COMMENT
> <Gold.Version>
2022.2.0

> <Gold.Id.Protein>
1qkm|1qkm_protein|mol2

> <Gold.Protein.RotatedTorsions>
[  496  491  490  487 ] final  108.15 input  -89.99 | X-H torsion

> <Gold.Protein.ActiveResidues>
 MET295  LEU298  THR299  LEU301  ALA302  GLU305  TRP335  MET336  LEU339  MET340 
 GLY342  LEU343  ARG346  PHE356  ILE373  ILE376  PHE377  LEU380  LYS471  GLY472 
 MET473  HIS475  LEU476  LEU477  ASN478  MET479  VAL484  VAL487 

> <Gold.Protein.RotatedAtoms>
   36.9835   32.9454   41.7876 H   0  0  0  0  0  0  0  0  0  0  0  0  # atno 496  bound_to 491 

> <Gold.Score>
     Score     S(PLP)   S(hbond)     S(cho)   S(metal)  DE(clash)   DE(tors)     intcor
     41.46     -41.41       0.00       0.02       0.00       0.00       0.01       0.00

> <Gold.PLP.Fitness>
41.4639

> <Gold.PLP.PLP>
-41.4129

> <Gold.PLP.part.hbond>
0.0000

> <Gold.PLP.part.metal>
0.0000

> <Gold.PLP.part.buried>
-3.1567

> <Gold.PLP.part.nonpolar>
-38.7695

> <Gold.PLP.part.repulsive>
0.0186

> <Gold.PLP.ligand.clash>
0.0000

> <Gold.PLP.ligand.torsion>
0.0091

> <Gold.PLP.Chemscore.Hbond>
0.0000

> <Gold.PLP.Chemscore.CHOScore>
0.0231

> <Gold.PLP.Chemscore.Metal>
0.0000

> <Gold.Chemscore.Hbonds>
donor molecule, donor type, donor heavy atom, donor atom, acceptor molecule, acceptor atom, score
      L1  C     5    14       P1   470  0.02

> <Gold.PLP.Chemscore.Internal.Correction>
0.0000

