#       Name:                EN300-83792_i001
#       Creating user name   aseyller
#       Creation time:       Fri Apr 21 18:56:44 2023


#       File generated by GOLD software.
#

@<TRIPOS>MOLECULE
EN300-83792_i001|benzaldehydes|mol2|665|dock19
    19    20     1
SMALL
USER_CHARGES


@<TRIPOS>ATOM
      1 O1          28.8030  37.0088  39.1662 O.2            1 <1>                0.0000
      2 C2          29.2738  37.3066  38.0893 C.2            1 <1>                0.0000
      3 C3          30.5834  36.7691  37.6843 C.ar           1 <1>                0.0000
      4 N4          31.2140  35.9020  38.4608 N.ar           1 <1>                0.0000
      5 C5          32.3882  35.3887  38.1479 C.ar           1 <1>                0.0000
      6 C6          33.0419  35.7240  36.9817 C.ar           1 <1>                0.0000
      7 C7          32.4353  36.6394  36.1050 C.ar           1 <1>                0.0000
      8 C8          33.0375  37.0313  34.8994 C.ar           1 <1>                0.0000
      9 C9          32.3997  37.9230  34.0912 C.ar           1 <1>                0.0000
     10 C10         31.1594  38.4517  34.4442 C.ar           1 <1>                0.0000
     11 C11         30.5470  38.0930  35.6077 C.ar           1 <1>                0.0000
     12 C12         31.1691  37.1735  36.4608 C.ar           1 <1>                0.0000
     13 H13         28.7306  37.9627  37.4252 H              1 <1>                0.0000
     14 H14         32.8507  34.6859  38.8251 H              1 <1>                0.0000
     15 H15         34.0030  35.2913  36.7463 H              1 <1>                0.0000
     16 H16         33.9986  36.6293  34.6151 H              1 <1>                0.0000
     17 H17         32.8623  38.2253  33.1632 H              1 <1>                0.0000
     18 H18         30.6758  39.1574  33.7849 H              1 <1>                0.0000
     19 H19         29.5859  38.5117  35.8676 H              1 <1>                0.0000
@<TRIPOS>BOND
    1    1    2 2     
    2    2    3 1     
    3    2   13 1     
    4    3    4 ar    
    5    3   12 ar    
    6    4    5 ar    
    7    5    6 ar    
    8    5   14 1     
    9    6    7 ar    
   10    6   15 1     
   11    7    8 ar    
   12    7   12 ar    
   13    8    9 ar    
   14    8   16 1     
   15    9   10 ar    
   16    9   17 1     
   17   10   11 ar    
   18   10   18 1     
   19   11   12 ar    
   20   11   19 1     
@<TRIPOS>SUBSTRUCTURE
      1 ****           1
@<TRIPOS>COMMENT
> <Gold.Version>
2022.2.0

> <Gold.Id.Protein>
1qkm|1qkm_protein|mol2

> <Gold.Protein.RotatedTorsions>
[  496  491  490  487 ] final   83.20 input  -89.99 | X-H torsion

> <Gold.Protein.ActiveResidues>
 MET295  LEU298  THR299  LEU301  ALA302  GLU305  TRP335  MET336  LEU339  MET340 
 GLY342  LEU343  ARG346  PHE356  ILE373  ILE376  PHE377  LEU380  LYS471  GLY472 
 MET473  HIS475  LEU476  LEU477  ASN478  MET479  VAL484  VAL487 

> <Gold.Protein.RotatedAtoms>
   36.7574   33.0722   42.1019 H   0  0  0  0  0  0  0  0  0  0  0  0  # atno 496  bound_to 491 

> <Gold.Score>
     Score     S(PLP)   S(hbond)     S(cho)   S(metal)  DE(clash)   DE(tors)     intcor
     39.99     -40.00       0.00       0.00       0.00       0.00       0.00       0.00

> <Gold.PLP.Fitness>
39.9914

> <Gold.PLP.PLP>
-39.9975

> <Gold.PLP.part.hbond>
0.0000

> <Gold.PLP.part.metal>
0.0000

> <Gold.PLP.part.buried>
-3.2940

> <Gold.PLP.part.nonpolar>
-37.4615

> <Gold.PLP.part.repulsive>
0.0850

> <Gold.PLP.ligand.clash>
0.0000

> <Gold.PLP.ligand.torsion>
0.0031

> <Gold.PLP.Chemscore.Hbond>
0.0000

> <Gold.PLP.Chemscore.CHOScore>
0.0000

> <Gold.PLP.Chemscore.Metal>
0.0000

> <Gold.PLP.Chemscore.Internal.Correction>
0.0000

