#       Name:                EN300-83792_i001
#       Creating user name   aseyller
#       Creation time:       Fri Apr 21 18:56:42 2023


#       File generated by GOLD software.
#

@<TRIPOS>MOLECULE
EN300-83792_i001|benzaldehydes|mol2|665|dock11
    19    20     1
SMALL
USER_CHARGES


@<TRIPOS>ATOM
      1 O1          29.9057  39.8493  36.5724 O.2            1 <1>                0.0000
      2 C2          29.4068  38.8968  37.1327 C.2            1 <1>                0.0000
      3 C3          30.2469  37.7566  37.5356 C.ar           1 <1>                0.0000
      4 N4          30.0000  37.1177  38.6684 N.ar           1 <1>                0.0000
      5 C5          30.7195  36.0908  39.0781 C.ar           1 <1>                0.0000
      6 C6          31.7853  35.6109  38.3477 C.ar           1 <1>                0.0000
      7 C7          32.1099  36.2376  37.1326 C.ar           1 <1>                0.0000
      8 C8          33.1801  35.8083  36.3327 C.ar           1 <1>                0.0000
      9 C9          33.4455  36.4569  35.1648 C.ar           1 <1>                0.0000
     10 C10         32.6707  37.5400  34.7536 C.ar           1 <1>                0.0000
     11 C11         31.6245  37.9829  35.5064 C.ar           1 <1>                0.0000
     12 C12         31.3172  37.3368  36.7100 C.ar           1 <1>                0.0000
     13 H13         28.3470  38.8865  37.3402 H              1 <1>                0.0000
     14 H14         30.4665  35.6127  40.0129 H              1 <1>                0.0000
     15 H15         32.3606  34.7688  38.7030 H              1 <1>                0.0000
     16 H16         33.7884  34.9708  36.6408 H              1 <1>                0.0000
     17 H17         34.2690  36.1274  34.5485 H              1 <1>                0.0000
     18 H18         32.9033  38.0366  33.8230 H              1 <1>                0.0000
     19 H19         31.0336  38.8238  35.1746 H              1 <1>                0.0000
@<TRIPOS>BOND
    1    1    2 2     
    2    2    3 1     
    3    2   13 1     
    4    3    4 ar    
    5    3   12 ar    
    6    4    5 ar    
    7    5    6 ar    
    8    5   14 1     
    9    6    7 ar    
   10    6   15 1     
   11    7    8 ar    
   12    7   12 ar    
   13    8    9 ar    
   14    8   16 1     
   15    9   10 ar    
   16    9   17 1     
   17   10   11 ar    
   18   10   18 1     
   19   11   12 ar    
   20   11   19 1     
@<TRIPOS>SUBSTRUCTURE
      1 ****           1
@<TRIPOS>COMMENT
> <Gold.Version>
2022.2.0

> <Gold.Id.Protein>
1qkm|1qkm_protein|mol2

> <Gold.Protein.RotatedTorsions>
[  496  491  490  487 ] final  -20.09 input  -89.99 | X-H torsion

> <Gold.Protein.ActiveResidues>
 MET295  LEU298  THR299  LEU301  ALA302  GLU305  TRP335  MET336  LEU339  MET340 
 GLY342  LEU343  ARG346  PHE356  ILE373  ILE376  PHE377  LEU380  LYS471  GLY472 
 MET473  HIS475  LEU476  LEU477  ASN478  MET479  VAL484  VAL487 

> <Gold.Protein.RotatedAtoms>
   36.2811   34.4709   42.0322 H   0  0  0  0  0  0  0  0  0  0  0  0  # atno 496  bound_to 491 

> <Gold.Score>
     Score     S(PLP)   S(hbond)     S(cho)   S(metal)  DE(clash)   DE(tors)     intcor
     42.10     -39.64       0.00       1.00       0.00       0.00       0.27       0.00

> <Gold.PLP.Fitness>
42.1031

> <Gold.PLP.PLP>
-39.6422

> <Gold.PLP.part.hbond>
0.0000

> <Gold.PLP.part.metal>
0.0000

> <Gold.PLP.part.buried>
-3.5183

> <Gold.PLP.part.nonpolar>
-36.0978

> <Gold.PLP.part.repulsive>
0.0327

> <Gold.PLP.ligand.clash>
0.0000

> <Gold.PLP.ligand.torsion>
0.2695

> <Gold.PLP.Chemscore.Hbond>
0.0000

> <Gold.PLP.Chemscore.CHOScore>
1.0000

> <Gold.PLP.Chemscore.Metal>
0.0000

> <Gold.Chemscore.Hbonds>
donor molecule, donor type, donor heavy atom, donor atom, acceptor molecule, acceptor atom, score
      L1  C     5    14       P1   470  1.00

> <Gold.PLP.Chemscore.Internal.Correction>
0.0000

