#       Name:                EN300-83792_i001
#       Creating user name   aseyller
#       Creation time:       Fri Apr 21 18:56:40 2023


#       File generated by GOLD software.
#

@<TRIPOS>MOLECULE
EN300-83792_i001|benzaldehydes|mol2|665|dock3
    19    20     1
SMALL
USER_CHARGES


@<TRIPOS>ATOM
      1 O1          27.9253  37.8528  37.5871 O.2            1 <1>                0.0000
      2 C2          29.0553  38.1693  37.2820 C.2            1 <1>                0.0000
      3 C3          30.1640  37.2205  37.4785 C.ar           1 <1>                0.0000
      4 N4          30.2019  36.4585  38.5602 N.ar           1 <1>                0.0000
      5 C5          31.1703  35.5920  38.7873 C.ar           1 <1>                0.0000
      6 C6          32.2160  35.4213  37.9058 C.ar           1 <1>                0.0000
      7 C7          32.2458  36.1952  36.7332 C.ar           1 <1>                0.0000
      8 C8          33.2763  36.0797  35.7876 C.ar           1 <1>                0.0000
      9 C9          33.2499  36.8581  34.6700 C.ar           1 <1>                0.0000
     10 C10         32.2156  37.7667  34.4529 C.ar           1 <1>                0.0000
     11 C11         31.1997  37.9043  35.3509 C.ar           1 <1>                0.0000
     12 C12         31.1894  37.1163  36.5083 C.ar           1 <1>                0.0000
     13 H13         29.2480  39.1455  36.8622 H              1 <1>                0.0000
     14 H14         31.1433  34.9998  39.6901 H              1 <1>                0.0000
     15 H15         32.9982  34.7060  38.1126 H              1 <1>                0.0000
     16 H16         34.0836  35.3799  35.9447 H              1 <1>                0.0000
     17 H17         34.0425  36.7701  33.9417 H              1 <1>                0.0000
     18 H18         32.2194  38.3719  33.5583 H              1 <1>                0.0000
     19 H19         30.4055  38.6131  35.1688 H              1 <1>                0.0000
@<TRIPOS>BOND
    1    1    2 2     
    2    2    3 1     
    3    2   13 1     
    4    3    4 ar    
    5    3   12 ar    
    6    4    5 ar    
    7    5    6 ar    
    8    5   14 1     
    9    6    7 ar    
   10    6   15 1     
   11    7    8 ar    
   12    7   12 ar    
   13    8    9 ar    
   14    8   16 1     
   15    9   10 ar    
   16    9   17 1     
   17   10   11 ar    
   18   10   18 1     
   19   11   12 ar    
   20   11   19 1     
@<TRIPOS>SUBSTRUCTURE
      1 ****           1
@<TRIPOS>COMMENT
> <Gold.Version>
2022.2.0

> <Gold.Id.Protein>
1qkm|1qkm_protein|mol2

> <Gold.Protein.RotatedTorsions>
[  496  491  490  487 ] final  177.96 input  -89.99 | X-H torsion

> <Gold.Protein.ActiveResidues>
 MET295  LEU298  THR299  LEU301  ALA302  GLU305  TRP335  MET336  LEU339  MET340 
 GLY342  LEU343  ARG346  PHE356  ILE373  ILE376  PHE377  LEU380  LYS471  GLY472 
 MET473  HIS475  LEU476  LEU477  ASN478  MET479  VAL484  VAL487 

> <Gold.Protein.RotatedAtoms>
   37.3186   33.4328   40.8847 H   0  0  0  0  0  0  0  0  0  0  0  0  # atno 496  bound_to 491 

> <Gold.Score>
     Score     S(PLP)   S(hbond)     S(cho)   S(metal)  DE(clash)   DE(tors)     intcor
     42.40     -40.00       0.00       1.00       0.00       0.00       0.30       0.00

> <Gold.PLP.Fitness>
42.3968

> <Gold.PLP.PLP>
-40.0046

> <Gold.PLP.part.hbond>
0.0000

> <Gold.PLP.part.metal>
0.0000

> <Gold.PLP.part.buried>
-3.1744

> <Gold.PLP.part.nonpolar>
-37.6434

> <Gold.PLP.part.repulsive>
0.0467

> <Gold.PLP.ligand.clash>
0.0000

> <Gold.PLP.ligand.torsion>
0.3013

> <Gold.PLP.Chemscore.Hbond>
0.0000

> <Gold.PLP.Chemscore.CHOScore>
0.9983

> <Gold.PLP.Chemscore.Metal>
0.0000

> <Gold.Chemscore.Hbonds>
donor molecule, donor type, donor heavy atom, donor atom, acceptor molecule, acceptor atom, score
      L1  C     5    14       P1   470  1.00

> <Gold.PLP.Chemscore.Internal.Correction>
0.0000

