#       Name:                EN300-83792_i001
#       Creating user name   aseyller
#       Creation time:       Fri Apr 21 18:56:44 2023


#       File generated by GOLD software.
#

@<TRIPOS>MOLECULE
EN300-83792_i001|benzaldehydes|mol2|665|dock18
    19    20     1
SMALL
USER_CHARGES


@<TRIPOS>ATOM
      1 O1          33.2946  37.0133  34.7232 O.2            1 <1>                0.0000
      2 C2          32.2089  37.5519  34.6881 C.2            1 <1>                0.0000
      3 C3          31.4117  37.6826  35.9191 C.ar           1 <1>                0.0000
      4 N4          30.7007  38.7779  36.1364 N.ar           1 <1>                0.0000
      5 C5          29.9691  38.9485  37.2207 C.ar           1 <1>                0.0000
      6 C6          29.8958  37.9893  38.2078 C.ar           1 <1>                0.0000
      7 C7          30.6235  36.7977  38.0489 C.ar           1 <1>                0.0000
      8 C8          30.6008  35.7744  39.0091 C.ar           1 <1>                0.0000
      9 C9          31.3280  34.6422  38.7983 C.ar           1 <1>                0.0000
     10 C10         32.0938  34.4858  37.6443 C.ar           1 <1>                0.0000
     11 C11         32.1385  35.4598  36.6921 C.ar           1 <1>                0.0000
     12 C12         31.3986  36.6351  36.8709 C.ar           1 <1>                0.0000
     13 H13         31.8284  37.9397  33.7546 H              1 <1>                0.0000
     14 H14         29.4119  39.8662  37.3386 H              1 <1>                0.0000
     15 H15         29.2904  38.1508  39.0874 H              1 <1>                0.0000
     16 H16         30.0120  35.8839  39.9077 H              1 <1>                0.0000
     17 H17         31.3114  33.8541  39.5366 H              1 <1>                0.0000
     18 H18         32.6613  33.5778  37.5025 H              1 <1>                0.0000
     19 H19         32.7369  35.3241  35.8033 H              1 <1>                0.0000
@<TRIPOS>BOND
    1    1    2 2     
    2    2    3 1     
    3    2   13 1     
    4    3    4 ar    
    5    3   12 ar    
    6    4    5 ar    
    7    5    6 ar    
    8    5   14 1     
    9    6    7 ar    
   10    6   15 1     
   11    7    8 ar    
   12    7   12 ar    
   13    8    9 ar    
   14    8   16 1     
   15    9   10 ar    
   16    9   17 1     
   17   10   11 ar    
   18   10   18 1     
   19   11   12 ar    
   20   11   19 1     
@<TRIPOS>SUBSTRUCTURE
      1 ****           1
@<TRIPOS>COMMENT
> <Gold.Version>
2022.2.0

> <Gold.Id.Protein>
1qkm|1qkm_protein|mol2

> <Gold.Protein.RotatedTorsions>
[  496  491  490  487 ] final  -15.03 input  -89.99 | X-H torsion

> <Gold.Protein.ActiveResidues>
 MET295  LEU298  THR299  LEU301  ALA302  GLU305  TRP335  MET336  LEU339  MET340 
 GLY342  LEU343  ARG346  PHE356  ILE373  ILE376  PHE377  LEU380  LYS471  GLY472 
 MET473  HIS475  LEU476  LEU477  ASN478  MET479  VAL484  VAL487 

> <Gold.Protein.RotatedAtoms>
   36.2697   34.4123   42.0901 H   0  0  0  0  0  0  0  0  0  0  0  0  # atno 496  bound_to 491 

> <Gold.Score>
     Score     S(PLP)   S(hbond)     S(cho)   S(metal)  DE(clash)   DE(tors)     intcor
     38.37     -38.93       0.00       0.00       0.00       0.00       0.28       0.00

> <Gold.PLP.Fitness>
38.3717

> <Gold.PLP.PLP>
-38.9335

> <Gold.PLP.part.hbond>
0.0000

> <Gold.PLP.part.metal>
0.0000

> <Gold.PLP.part.buried>
-3.1964

> <Gold.PLP.part.nonpolar>
-36.0312

> <Gold.PLP.part.repulsive>
0.1678

> <Gold.PLP.ligand.clash>
0.0000

> <Gold.PLP.ligand.torsion>
0.2809

> <Gold.PLP.Chemscore.Hbond>
0.0000

> <Gold.PLP.Chemscore.CHOScore>
0.0000

> <Gold.PLP.Chemscore.Metal>
0.0000

> <Gold.PLP.Chemscore.Internal.Correction>
0.0000

