#       Name:                EN300-83792_i001
#       Creating user name   aseyller
#       Creation time:       Fri Apr 21 18:56:41 2023


#       File generated by GOLD software.
#

@<TRIPOS>MOLECULE
EN300-83792_i001|benzaldehydes|mol2|665|dock8
    19    20     1
SMALL
USER_CHARGES


@<TRIPOS>ATOM
      1 O1          31.4265  34.8415  38.4282 O.2            1 <1>                0.0000
      2 C2          32.4047  35.3342  37.9081 C.2            1 <1>                0.0000
      3 C3          32.2455  36.3150  36.8215 C.ar           1 <1>                0.0000
      4 N4          33.0962  36.3261  35.8073 N.ar           1 <1>                0.0000
      5 C5          33.0014  37.1816  34.8078 C.ar           1 <1>                0.0000
      6 C6          32.0017  38.1289  34.7526 C.ar           1 <1>                0.0000
      7 C7          31.0595  38.1799  35.7939 C.ar           1 <1>                0.0000
      8 C8          30.0132  39.1151  35.8101 C.ar           1 <1>                0.0000
      9 C9          29.1309  39.1150  36.8478 C.ar           1 <1>                0.0000
     10 C10         29.2526  38.2008  37.8928 C.ar           1 <1>                0.0000
     11 C11         30.2568  37.2796  37.9084 C.ar           1 <1>                0.0000
     12 C12         31.1789  37.2450  36.8554 C.ar           1 <1>                0.0000
     13 H13         33.3927  35.0568  38.2447 H              1 <1>                0.0000
     14 H14         33.7281  37.1389  34.0100 H              1 <1>                0.0000
     15 H15         31.9438  38.8196  33.9244 H              1 <1>                0.0000
     16 H16         29.9087  39.8291  35.0066 H              1 <1>                0.0000
     17 H17         28.3254  39.8343  36.8613 H              1 <1>                0.0000
     18 H18         28.5393  38.2229  38.7035 H              1 <1>                0.0000
     19 H19         30.3381  36.5779  38.7255 H              1 <1>                0.0000
@<TRIPOS>BOND
    1    1    2 2     
    2    2    3 1     
    3    2   13 1     
    4    3    4 ar    
    5    3   12 ar    
    6    4    5 ar    
    7    5    6 ar    
    8    5   14 1     
    9    6    7 ar    
   10    6   15 1     
   11    7    8 ar    
   12    7   12 ar    
   13    8    9 ar    
   14    8   16 1     
   15    9   10 ar    
   16    9   17 1     
   17   10   11 ar    
   18   10   18 1     
   19   11   12 ar    
   20   11   19 1     
@<TRIPOS>SUBSTRUCTURE
      1 ****           1
@<TRIPOS>COMMENT
> <Gold.Version>
2022.2.0

> <Gold.Id.Protein>
1qkm|1qkm_protein|mol2

> <Gold.Protein.RotatedTorsions>
[  496  491  490  487 ] final   85.54 input  -89.99 | X-H torsion

> <Gold.Protein.ActiveResidues>
 MET295  LEU298  THR299  LEU301  ALA302  GLU305  TRP335  MET336  LEU339  MET340 
 GLY342  LEU343  ARG346  PHE356  ILE373  ILE376  PHE377  LEU380  LYS471  GLY472 
 MET473  HIS475  LEU476  LEU477  ASN478  MET479  VAL484  VAL487 

> <Gold.Protein.RotatedAtoms>
   36.7790   33.0537   42.0760 H   0  0  0  0  0  0  0  0  0  0  0  0  # atno 496  bound_to 491 

> <Gold.Score>
     Score     S(PLP)   S(hbond)     S(cho)   S(metal)  DE(clash)   DE(tors)     intcor
     40.96     -38.50       0.00       1.00       0.00       0.00       0.27       0.00

> <Gold.PLP.Fitness>
40.9589

> <Gold.PLP.PLP>
-38.4963

> <Gold.PLP.part.hbond>
0.0000

> <Gold.PLP.part.metal>
0.0000

> <Gold.PLP.part.buried>
-2.9292

> <Gold.PLP.part.nonpolar>
-35.4870

> <Gold.PLP.part.repulsive>
0.1422

> <Gold.PLP.ligand.clash>
0.0000

> <Gold.PLP.ligand.torsion>
0.2687

> <Gold.PLP.Chemscore.Hbond>
0.0000

> <Gold.PLP.Chemscore.CHOScore>
1.0000

> <Gold.PLP.Chemscore.Metal>
0.0000

> <Gold.Chemscore.Hbonds>
donor molecule, donor type, donor heavy atom, donor atom, acceptor molecule, acceptor atom, score
      L1  C     5    14       P1  3229  1.00

> <Gold.PLP.Chemscore.Internal.Correction>
0.0000

