#       Name:                EN300-83792_i001
#       Creating user name   aseyller
#       Creation time:       Fri Apr 21 18:56:39 2023


#       File generated by GOLD software.
#

@<TRIPOS>MOLECULE
EN300-83792_i001|benzaldehydes|mol2|665|dock1
    19    20     1
SMALL
USER_CHARGES


@<TRIPOS>ATOM
      1 O1          30.2199  40.2912  36.4241 O.2            1 <1>                0.0000
      2 C2          30.3026  39.1934  36.9322 C.2            1 <1>                0.0000
      3 C3          31.2581  38.2067  36.4018 C.ar           1 <1>                0.0000
      4 N4          31.9538  38.4775  35.3086 N.ar           1 <1>                0.0000
      5 C5          32.8227  37.6314  34.7898 C.ar           1 <1>                0.0000
      6 C6          33.0660  36.3988  35.3564 C.ar           1 <1>                0.0000
      7 C7          32.3654  36.0387  36.5200 C.ar           1 <1>                0.0000
      8 C8          32.5570  34.8021  37.1554 C.ar           1 <1>                0.0000
      9 C9          31.8476  34.5104  38.2810 C.ar           1 <1>                0.0000
     10 C10         30.9346  35.4213  38.8097 C.ar           1 <1>                0.0000
     11 C11         30.7240  36.6306  38.2176 C.ar           1 <1>                0.0000
     12 C12         31.4400  36.9684  37.0627 C.ar           1 <1>                0.0000
     13 H13         29.6784  38.9408  37.7767 H              1 <1>                0.0000
     14 H14         33.3585  37.9124  33.8951 H              1 <1>                0.0000
     15 H15         33.7819  35.7219  34.9140 H              1 <1>                0.0000
     16 H16         33.2610  34.0876  36.7551 H              1 <1>                0.0000
     17 H17         31.9942  33.5591  38.7707 H              1 <1>                0.0000
     18 H18         30.3850  35.1643  39.7032 H              1 <1>                0.0000
     19 H19         30.0129  37.3257  38.6391 H              1 <1>                0.0000
@<TRIPOS>BOND
    1    1    2 2     
    2    2    3 1     
    3    2   13 1     
    4    3    4 ar    
    5    3   12 ar    
    6    4    5 ar    
    7    5    6 ar    
    8    5   14 1     
    9    6    7 ar    
   10    6   15 1     
   11    7    8 ar    
   12    7   12 ar    
   13    8    9 ar    
   14    8   16 1     
   15    9   10 ar    
   16    9   17 1     
   17   10   11 ar    
   18   10   18 1     
   19   11   12 ar    
   20   11   19 1     
@<TRIPOS>SUBSTRUCTURE
      1 ****           1
@<TRIPOS>COMMENT
> <Gold.Version>
2022.2.0

> <Gold.Id.Protein>
1qkm|1qkm_protein|mol2

> <Gold.Protein.RotatedTorsions>
[  496  491  490  487 ] final   96.52 input  -89.99 | X-H torsion

> <Gold.Protein.ActiveResidues>
 MET295  LEU298  THR299  LEU301  ALA302  GLU305  TRP335  MET336  LEU339  MET340 
 GLY342  LEU343  ARG346  PHE356  ILE373  ILE376  PHE377  LEU380  LYS471  GLY472 
 MET473  HIS475  LEU476  LEU477  ASN478  MET479  VAL484  VAL487 

> <Gold.Protein.RotatedAtoms>
   36.8802   32.9845   41.9434 H   0  0  0  0  0  0  0  0  0  0  0  0  # atno 496  bound_to 491 

> <Gold.Score>
     Score     S(PLP)   S(hbond)     S(cho)   S(metal)  DE(clash)   DE(tors)     intcor
     42.98     -40.00       0.00       1.00       0.00       0.00       0.01       0.00

> <Gold.PLP.Fitness>
42.9804

> <Gold.PLP.PLP>
-40.0045

> <Gold.PLP.part.hbond>
0.0000

> <Gold.PLP.part.metal>
0.0000

> <Gold.PLP.part.buried>
-3.0166

> <Gold.PLP.part.nonpolar>
-37.4678

> <Gold.PLP.part.repulsive>
0.0481

> <Gold.PLP.ligand.clash>
0.0000

> <Gold.PLP.ligand.torsion>
0.0065

> <Gold.PLP.Chemscore.Hbond>
0.0000

> <Gold.PLP.Chemscore.CHOScore>
0.9963

> <Gold.PLP.Chemscore.Metal>
0.0000

> <Gold.Chemscore.Hbonds>
donor molecule, donor type, donor heavy atom, donor atom, acceptor molecule, acceptor atom, score
      L1  C     5    14       P1  3229  1.00

> <Gold.PLP.Chemscore.Internal.Correction>
0.0000

