#       Name:                EN300-83792_i001
#       Creating user name   aseyller
#       Creation time:       Fri Apr 21 18:56:41 2023


#       File generated by GOLD software.
#

@<TRIPOS>MOLECULE
EN300-83792_i001|benzaldehydes|mol2|665|dock7
    19    20     1
SMALL
USER_CHARGES


@<TRIPOS>ATOM
      1 O1          29.2116  36.8935  39.6159 O.2            1 <1>                0.0000
      2 C2          30.0075  36.6634  38.7307 C.2            1 <1>                0.0000
      3 C3          30.1955  37.6334  37.6391 C.ar           1 <1>                0.0000
      4 N4          29.4500  38.7261  37.5864 N.ar           1 <1>                0.0000
      5 C5          29.5753  39.6282  36.6322 C.ar           1 <1>                0.0000
      6 C6          30.4986  39.4917  35.6180 C.ar           1 <1>                0.0000
      7 C7          31.3274  38.3570  35.6055 C.ar           1 <1>                0.0000
      8 C8          32.2908  38.1461  34.6071 C.ar           1 <1>                0.0000
      9 C9          33.0645  37.0258  34.6490 C.ar           1 <1>                0.0000
     10 C10         32.9127  36.0868  35.6679 C.ar           1 <1>                0.0000
     11 C11         31.9867  36.2605  36.6526 C.ar           1 <1>                0.0000
     12 C12         31.1777  37.4034  36.6463 C.ar           1 <1>                0.0000
     13 H13         30.5819  35.7488  38.7453 H              1 <1>                0.0000
     14 H14         28.9358  40.4984  36.6457 H              1 <1>                0.0000
     15 H15         30.5833  40.2430  34.8468 H              1 <1>                0.0000
     16 H16         32.4176  38.8658  33.8120 H              1 <1>                0.0000
     17 H17         33.8062  36.8624  33.8812 H              1 <1>                0.0000
     18 H18         33.5392  35.2071  35.6770 H              1 <1>                0.0000
     19 H19         31.8807  35.5238  37.4352 H              1 <1>                0.0000
@<TRIPOS>BOND
    1    1    2 2     
    2    2    3 1     
    3    2   13 1     
    4    3    4 ar    
    5    3   12 ar    
    6    4    5 ar    
    7    5    6 ar    
    8    5   14 1     
    9    6    7 ar    
   10    6   15 1     
   11    7    8 ar    
   12    7   12 ar    
   13    8    9 ar    
   14    8   16 1     
   15    9   10 ar    
   16    9   17 1     
   17   10   11 ar    
   18   10   18 1     
   19   11   12 ar    
   20   11   19 1     
@<TRIPOS>SUBSTRUCTURE
      1 ****           1
@<TRIPOS>COMMENT
> <Gold.Version>
2022.2.0

> <Gold.Id.Protein>
1qkm|1qkm_protein|mol2

> <Gold.Protein.RotatedTorsions>
[  496  491  490  487 ] final   21.64 input  -89.99 | X-H torsion

> <Gold.Protein.ActiveResidues>
 MET295  LEU298  THR299  LEU301  ALA302  GLU305  TRP335  MET336  LEU339  MET340 
 GLY342  LEU343  ARG346  PHE356  ILE373  ILE376  PHE377  LEU380  LYS471  GLY472 
 MET473  HIS475  LEU476  LEU477  ASN478  MET479  VAL484  VAL487 

> <Gold.Protein.RotatedAtoms>
   36.3086   33.8863   42.3621 H   0  0  0  0  0  0  0  0  0  0  0  0  # atno 496  bound_to 491 

> <Gold.Score>
     Score     S(PLP)   S(hbond)     S(cho)   S(metal)  DE(clash)   DE(tors)     intcor
     39.29     -39.30       0.00       0.00       0.00       0.00       0.00       0.00

> <Gold.PLP.Fitness>
39.2897

> <Gold.PLP.PLP>
-39.2951

> <Gold.PLP.part.hbond>
0.0000

> <Gold.PLP.part.metal>
0.0000

> <Gold.PLP.part.buried>
-2.5487

> <Gold.PLP.part.nonpolar>
-37.0228

> <Gold.PLP.part.repulsive>
0.0518

> <Gold.PLP.ligand.clash>
0.0000

> <Gold.PLP.ligand.torsion>
0.0027

> <Gold.PLP.Chemscore.Hbond>
0.0000

> <Gold.PLP.Chemscore.CHOScore>
0.0000

> <Gold.PLP.Chemscore.Metal>
0.0000

> <Gold.PLP.Chemscore.Internal.Correction>
0.0000

