#       Name:                EN300-83792_i001
#       Creating user name   aseyller
#       Creation time:       Fri Apr 21 18:56:44 2023


#       File generated by GOLD software.
#

@<TRIPOS>MOLECULE
EN300-83792_i001|benzaldehydes|mol2|665|dock17
    19    20     1
SMALL
USER_CHARGES


@<TRIPOS>ATOM
      1 O1          31.1753  34.7428  39.0946 O.2            1 <1>                0.0000
      2 C2          30.7132  35.8634  39.1197 C.2            1 <1>                0.0000
      3 C3          29.2862  36.0647  39.4216 C.ar           1 <1>                0.0000
      4 N4          28.7045  35.3602  40.3795 N.ar           1 <1>                0.0000
      5 C5          27.4305  35.4993  40.6922 C.ar           1 <1>                0.0000
      6 C6          26.6136  36.3951  40.0367 C.ar           1 <1>                0.0000
      7 C7          27.1591  37.1800  39.0066 C.ar           1 <1>                0.0000
      8 C8          26.3924  38.1134  38.2922 C.ar           1 <1>                0.0000
      9 C9          26.9783  38.8449  37.3037 C.ar           1 <1>                0.0000
     10 C10         28.3265  38.6793  36.9917 C.ar           1 <1>                0.0000
     11 C11         29.0995  37.7815  37.6654 C.ar           1 <1>                0.0000
     12 C12         28.5337  37.0164  38.6925 C.ar           1 <1>                0.0000
     13 H13         31.3492  36.7143  38.9250 H              1 <1>                0.0000
     14 H14         27.0156  34.8935  41.4843 H              1 <1>                0.0000
     15 H15         25.5731  36.4918  40.3095 H              1 <1>                0.0000
     16 H16         25.3466  38.2505  38.5240 H              1 <1>                0.0000
     17 H17         26.3892  39.5635  36.7533 H              1 <1>                0.0000
     18 H18         28.7658  39.2721  36.2030 H              1 <1>                0.0000
     19 H19         30.1428  37.6643  37.4118 H              1 <1>                0.0000
@<TRIPOS>BOND
    1    1    2 2     
    2    2    3 1     
    3    2   13 1     
    4    3    4 ar    
    5    3   12 ar    
    6    4    5 ar    
    7    5    6 ar    
    8    5   14 1     
    9    6    7 ar    
   10    6   15 1     
   11    7    8 ar    
   12    7   12 ar    
   13    8    9 ar    
   14    8   16 1     
   15    9   10 ar    
   16    9   17 1     
   17   10   11 ar    
   18   10   18 1     
   19   11   12 ar    
   20   11   19 1     
@<TRIPOS>SUBSTRUCTURE
      1 ****           1
@<TRIPOS>COMMENT
> <Gold.Version>
2022.2.0

> <Gold.Id.Protein>
1qkm|1qkm_protein|mol2

> <Gold.Protein.RotatedTorsions>
[  496  491  490  487 ] final   40.92 input  -89.99 | X-H torsion

> <Gold.Protein.ActiveResidues>
 MET295  LEU298  THR299  LEU301  ALA302  GLU305  TRP335  MET336  LEU339  MET340 
 GLY342  LEU343  ARG346  PHE356  ILE373  ILE376  PHE377  LEU380  LYS471  GLY472 
 MET473  HIS475  LEU476  LEU477  ASN478  MET479  VAL484  VAL487 

> <Gold.Protein.RotatedAtoms>
   36.4096   33.5875   42.3783 H   0  0  0  0  0  0  0  0  0  0  0  0  # atno 496  bound_to 491 

> <Gold.Score>
     Score     S(PLP)   S(hbond)     S(cho)   S(metal)  DE(clash)   DE(tors)     intcor
     40.45     -38.11       0.00       1.00       0.00       0.00       0.33       0.00

> <Gold.PLP.Fitness>
40.4532

> <Gold.PLP.PLP>
-38.1135

> <Gold.PLP.part.hbond>
0.0000

> <Gold.PLP.part.metal>
0.0000

> <Gold.PLP.part.buried>
-2.6263

> <Gold.PLP.part.nonpolar>
-35.9075

> <Gold.PLP.part.repulsive>
0.6453

> <Gold.PLP.ligand.clash>
0.0000

> <Gold.PLP.ligand.torsion>
0.3302

> <Gold.PLP.Chemscore.Hbond>
0.0000

> <Gold.PLP.Chemscore.CHOScore>
1.0000

> <Gold.PLP.Chemscore.Metal>
0.0000

> <Gold.Chemscore.Hbonds>
donor molecule, donor type, donor heavy atom, donor atom, acceptor molecule, acceptor atom, score
      L1  C     5    14       P1   582  1.00

> <Gold.PLP.Chemscore.Internal.Correction>
0.0000

