#       Name:                EN300-83792_i001
#       Creating user name   aseyller
#       Creation time:       Fri Apr 21 18:56:42 2023


#       File generated by GOLD software.
#

@<TRIPOS>MOLECULE
EN300-83792_i001|benzaldehydes|mol2|665|dock12
    19    20     1
SMALL
USER_CHARGES


@<TRIPOS>ATOM
      1 O1          32.4256  36.2552  37.8253 O.2            1 <1>                0.0000
      2 C2          31.2891  36.1918  38.2431 C.2            1 <1>                0.0000
      3 C3          30.2931  37.1913  37.8222 C.ar           1 <1>                0.0000
      4 N4          30.6618  38.2250  37.0820 N.ar           1 <1>                0.0000
      5 C5          29.8127  39.1496  36.6769 C.ar           1 <1>                0.0000
      6 C6          28.4738  39.1003  37.0003 C.ar           1 <1>                0.0000
      7 C7          28.0058  38.0321  37.7842 C.ar           1 <1>                0.0000
      8 C8          26.6577  37.9119  38.1554 C.ar           1 <1>                0.0000
      9 C9          26.2647  36.8533  38.9172 C.ar           1 <1>                0.0000
     10 C10         27.1814  35.8893  39.3332 C.ar           1 <1>                0.0000
     11 C11         28.4977  35.9759  38.9908 C.ar           1 <1>                0.0000
     12 C12         28.9376  37.0465  38.2029 C.ar           1 <1>                0.0000
     13 H13         31.0062  35.3996  38.9205 H              1 <1>                0.0000
     14 H14         30.1772  39.9690  36.0750 H              1 <1>                0.0000
     15 H15         27.7968  39.8688  36.6577 H              1 <1>                0.0000
     16 H16         25.9380  38.6527  37.8400 H              1 <1>                0.0000
     17 H17         25.2276  36.7599  39.2035 H              1 <1>                0.0000
     18 H18         26.8429  35.0602  39.9369 H              1 <1>                0.0000
     19 H19         29.1960  35.2211  39.3212 H              1 <1>                0.0000
@<TRIPOS>BOND
    1    1    2 2     
    2    2    3 1     
    3    2   13 1     
    4    3    4 ar    
    5    3   12 ar    
    6    4    5 ar    
    7    5    6 ar    
    8    5   14 1     
    9    6    7 ar    
   10    6   15 1     
   11    7    8 ar    
   12    7   12 ar    
   13    8    9 ar    
   14    8   16 1     
   15    9   10 ar    
   16    9   17 1     
   17   10   11 ar    
   18   10   18 1     
   19   11   12 ar    
   20   11   19 1     
@<TRIPOS>SUBSTRUCTURE
      1 ****           1
@<TRIPOS>COMMENT
> <Gold.Version>
2022.2.0

> <Gold.Id.Protein>
1qkm|1qkm_protein|mol2

> <Gold.Protein.RotatedTorsions>
[  496  491  490  487 ] final   23.68 input  -89.99 | X-H torsion

> <Gold.Protein.ActiveResidues>
 MET295  LEU298  THR299  LEU301  ALA302  GLU305  TRP335  MET336  LEU339  MET340 
 GLY342  LEU343  ARG346  PHE356  ILE373  ILE376  PHE377  LEU380  LYS471  GLY472 
 MET473  HIS475  LEU476  LEU477  ASN478  MET479  VAL484  VAL487 

> <Gold.Protein.RotatedAtoms>
   36.3169   33.8544   42.3682 H   0  0  0  0  0  0  0  0  0  0  0  0  # atno 496  bound_to 491 

> <Gold.Score>
     Score     S(PLP)   S(hbond)     S(cho)   S(metal)  DE(clash)   DE(tors)     intcor
     39.39     -39.41       0.00       0.00       0.00       0.00       0.01       0.00

> <Gold.PLP.Fitness>
39.3940

> <Gold.PLP.PLP>
-39.4101

> <Gold.PLP.part.hbond>
0.0000

> <Gold.PLP.part.metal>
0.0000

> <Gold.PLP.part.buried>
-2.5703

> <Gold.PLP.part.nonpolar>
-36.8660

> <Gold.PLP.part.repulsive>
0.0289

> <Gold.PLP.ligand.clash>
0.0000

> <Gold.PLP.ligand.torsion>
0.0080

> <Gold.PLP.Chemscore.Hbond>
0.0000

> <Gold.PLP.Chemscore.CHOScore>
0.0000

> <Gold.PLP.Chemscore.Metal>
0.0000

> <Gold.PLP.Chemscore.Internal.Correction>
0.0000

