#       Name:                EN300-83792_i001
#       Creating user name   aseyller
#       Creation time:       Fri Apr 21 18:56:42 2023


#       File generated by GOLD software.
#

@<TRIPOS>MOLECULE
EN300-83792_i001|benzaldehydes|mol2|665|dock10
    19    20     1
SMALL
USER_CHARGES


@<TRIPOS>ATOM
      1 O1          30.3870  40.0239  36.4060 O.2            1 <1>                0.0000
      2 C2          30.7151  39.3794  35.4328 C.2            1 <1>                0.0000
      3 C3          31.5846  38.2015  35.5887 C.ar           1 <1>                0.0000
      4 N4          32.5381  37.9584  34.7032 N.ar           1 <1>                0.0000
      5 C5          33.3454  36.9190  34.7933 C.ar           1 <1>                0.0000
      6 C6          33.2488  36.0094  35.8244 C.ar           1 <1>                0.0000
      7 C7          32.2601  36.2000  36.8046 C.ar           1 <1>                0.0000
      8 C8          32.0982  35.3182  37.8842 C.ar           1 <1>                0.0000
      9 C9          31.1209  35.5563  38.8026 C.ar           1 <1>                0.0000
     10 C10         30.2800  36.6616  38.6851 C.ar           1 <1>                0.0000
     11 C11         30.4096  37.5374  37.6490 C.ar           1 <1>                0.0000
     12 C12         31.4074  37.3290  36.6891 C.ar           1 <1>                0.0000
     13 H13         30.3659  39.6668  34.4520 H              1 <1>                0.0000
     14 H14         34.1035  36.7765  34.0373 H              1 <1>                0.0000
     15 H15         33.9206  35.1655  35.8778 H              1 <1>                0.0000
     16 H16         32.7430  34.4578  37.9860 H              1 <1>                0.0000
     17 H17         30.9953  34.8783  39.6338 H              1 <1>                0.0000
     18 H18         29.5129  36.8265  39.4274 H              1 <1>                0.0000
     19 H19         29.7501  38.3891  37.5715 H              1 <1>                0.0000
@<TRIPOS>BOND
    1    1    2 2     
    2    2    3 1     
    3    2   13 1     
    4    3    4 ar    
    5    3   12 ar    
    6    4    5 ar    
    7    5    6 ar    
    8    5   14 1     
    9    6    7 ar    
   10    6   15 1     
   11    7    8 ar    
   12    7   12 ar    
   13    8    9 ar    
   14    8   16 1     
   15    9   10 ar    
   16    9   17 1     
   17   10   11 ar    
   18   10   18 1     
   19   11   12 ar    
   20   11   19 1     
@<TRIPOS>SUBSTRUCTURE
      1 ****           1
@<TRIPOS>COMMENT
> <Gold.Version>
2022.2.0

> <Gold.Id.Protein>
1qkm|1qkm_protein|mol2

> <Gold.Protein.RotatedTorsions>
[  496  491  490  487 ] final  -76.60 input  -89.99 | X-H torsion

> <Gold.Protein.ActiveResidues>
 MET295  LEU298  THR299  LEU301  ALA302  GLU305  TRP335  MET336  LEU339  MET340 
 GLY342  LEU343  ARG346  PHE356  ILE373  ILE376  PHE377  LEU380  LYS471  GLY472 
 MET473  HIS475  LEU476  LEU477  ASN478  MET479  VAL484  VAL487 

> <Gold.Protein.RotatedAtoms>
   36.6356   34.7182   41.2506 H   0  0  0  0  0  0  0  0  0  0  0  0  # atno 496  bound_to 491 

> <Gold.Score>
     Score     S(PLP)   S(hbond)     S(cho)   S(metal)  DE(clash)   DE(tors)     intcor
     41.65     -39.25       0.00       1.00       0.00       0.00       0.30       0.00

> <Gold.PLP.Fitness>
41.6496

> <Gold.PLP.PLP>
-39.2530

> <Gold.PLP.part.hbond>
0.0000

> <Gold.PLP.part.metal>
0.0000

> <Gold.PLP.part.buried>
-3.3940

> <Gold.PLP.part.nonpolar>
-36.6534

> <Gold.PLP.part.repulsive>
0.1328

> <Gold.PLP.ligand.clash>
0.0000

> <Gold.PLP.ligand.torsion>
0.3017

> <Gold.PLP.Chemscore.Hbond>
0.0000

> <Gold.PLP.Chemscore.CHOScore>
1.0000

> <Gold.PLP.Chemscore.Metal>
0.0000

> <Gold.Chemscore.Hbonds>
donor molecule, donor type, donor heavy atom, donor atom, acceptor molecule, acceptor atom, score
      L1  C     5    14       P1  3229  1.00

> <Gold.PLP.Chemscore.Internal.Correction>
0.0000

