#       Name:                EN300-83792_i001
#       Creating user name   aseyller
#       Creation time:       Fri Apr 21 18:56:39 2023


#       File generated by GOLD software.
#

@<TRIPOS>MOLECULE
EN300-83792_i001|benzaldehydes|mol2|665|dock2
    19    20     1
SMALL
USER_CHARGES


@<TRIPOS>ATOM
      1 O1          28.9668  38.1092  37.0056 O.2            1 <1>                0.0000
      2 C2          30.0731  38.5188  36.7257 C.2            1 <1>                0.0000
      3 C3          31.1576  37.5675  36.4311 C.ar           1 <1>                0.0000
      4 N4          32.0422  37.8414  35.4851 N.ar           1 <1>                0.0000
      5 C5          33.0333  37.0264  35.1795 C.ar           1 <1>                0.0000
      6 C6          33.2151  35.8251  35.8303 C.ar           1 <1>                0.0000
      7 C7          32.3157  35.4638  36.8478 C.ar           1 <1>                0.0000
      8 C8          32.4336  34.2579  37.5560 C.ar           1 <1>                0.0000
      9 C9          31.5301  33.9634  38.5318 C.ar           1 <1>                0.0000
     10 C10         30.4910  34.8411  38.8361 C.ar           1 <1>                0.0000
     11 C11         30.3473  36.0200  38.1676 C.ar           1 <1>                0.0000
     12 C12         31.2610  36.3601  37.1626 C.ar           1 <1>                0.0000
     13 H13         30.2620  39.5816  36.6882 H              1 <1>                0.0000
     14 H14         33.7218  37.3082  34.3964 H              1 <1>                0.0000
     15 H15         34.0337  35.1733  35.5630 H              1 <1>                0.0000
     16 H16         33.2339  33.5692  37.3292 H              1 <1>                0.0000
     17 H17         31.6198  33.0357  39.0774 H              1 <1>                0.0000
     18 H18         29.7882  34.5826  39.6143 H              1 <1>                0.0000
     19 H19         29.5367  36.6896  38.4146 H              1 <1>                0.0000
@<TRIPOS>BOND
    1    1    2 2     
    2    2    3 1     
    3    2   13 1     
    4    3    4 ar    
    5    3   12 ar    
    6    4    5 ar    
    7    5    6 ar    
    8    5   14 1     
    9    6    7 ar    
   10    6   15 1     
   11    7    8 ar    
   12    7   12 ar    
   13    8    9 ar    
   14    8   16 1     
   15    9   10 ar    
   16    9   17 1     
   17   10   11 ar    
   18   10   18 1     
   19   11   12 ar    
   20   11   19 1     
@<TRIPOS>SUBSTRUCTURE
      1 ****           1
@<TRIPOS>COMMENT
> <Gold.Version>
2022.2.0

> <Gold.Id.Protein>
1qkm|1qkm_protein|mol2

> <Gold.Protein.RotatedTorsions>
[  496  491  490  487 ] final   80.15 input  -89.99 | X-H torsion

> <Gold.Protein.ActiveResidues>
 MET295  LEU298  THR299  LEU301  ALA302  GLU305  TRP335  MET336  LEU339  MET340 
 GLY342  LEU343  ARG346  PHE356  ILE373  ILE376  PHE377  LEU380  LYS471  GLY472 
 MET473  HIS475  LEU476  LEU477  ASN478  MET479  VAL484  VAL487 

> <Gold.Protein.RotatedAtoms>
   36.7293   33.0983   42.1343 H   0  0  0  0  0  0  0  0  0  0  0  0  # atno 496  bound_to 491 

> <Gold.Score>
     Score     S(PLP)   S(hbond)     S(cho)   S(metal)  DE(clash)   DE(tors)     intcor
     39.65     -38.02       0.00       0.73       0.00       0.00       0.28       0.00

> <Gold.PLP.Fitness>
39.6482

> <Gold.PLP.PLP>
-38.0209

> <Gold.PLP.part.hbond>
0.0000

> <Gold.PLP.part.metal>
0.0000

> <Gold.PLP.part.buried>
-3.1540

> <Gold.PLP.part.nonpolar>
-35.8329

> <Gold.PLP.part.repulsive>
0.0589

> <Gold.PLP.ligand.clash>
0.0000

> <Gold.PLP.ligand.torsion>
0.2796

> <Gold.PLP.Chemscore.Hbond>
0.0000

> <Gold.PLP.Chemscore.CHOScore>
0.7289

> <Gold.PLP.Chemscore.Metal>
0.0000

> <Gold.Chemscore.Hbonds>
donor molecule, donor type, donor heavy atom, donor atom, acceptor molecule, acceptor atom, score
      L1  C     5    14       P1  3229  0.73

> <Gold.PLP.Chemscore.Internal.Correction>
0.0000

