#       Name:                EN300-83792_i001
#       Creating user name   aseyller
#       Creation time:       Fri Apr 21 18:56:43 2023


#       File generated by GOLD software.
#

@<TRIPOS>MOLECULE
EN300-83792_i001|benzaldehydes|mol2|665|dock14
    19    20     1
SMALL
USER_CHARGES


@<TRIPOS>ATOM
      1 O1          28.6025  39.1812  36.6816 O.2            1 <1>                0.0000
      2 C2          29.6704  39.5675  36.2570 C.2            1 <1>                0.0000
      3 C3          30.7810  38.6165  36.0827 C.ar           1 <1>                0.0000
      4 N4          31.6042  38.7387  35.0533 N.ar           1 <1>                0.0000
      5 C5          32.6148  37.9161  34.8482 C.ar           1 <1>                0.0000
      6 C6          32.8830  36.8658  35.6995 C.ar           1 <1>                0.0000
      7 C7          32.0525  36.6708  36.8161 C.ar           1 <1>                0.0000
      8 C8          32.2599  35.6246  37.7283 C.ar           1 <1>                0.0000
      9 C9          31.4201  35.4871  38.7918 C.ar           1 <1>                0.0000
     10 C10         30.3587  36.3692  38.9866 C.ar           1 <1>                0.0000
     11 C11         30.1287  37.3956  38.1200 C.ar           1 <1>                0.0000
     12 C12         30.9751  37.5726  37.0187 C.ar           1 <1>                0.0000
     13 H13         29.8057  40.6083  36.0023 H              1 <1>                0.0000
     14 H14         33.2501  38.0697  33.9884 H              1 <1>                0.0000
     15 H15         33.7160  36.2047  35.5116 H              1 <1>                0.0000
     16 H16         33.0783  34.9341  37.5879 H              1 <1>                0.0000
     17 H17         31.5787  34.6823  39.4943 H              1 <1>                0.0000
     18 H18         29.7078  36.2371  39.8383 H              1 <1>                0.0000
     19 H19         29.3019  38.0707  38.2842 H              1 <1>                0.0000
@<TRIPOS>BOND
    1    1    2 2     
    2    2    3 1     
    3    2   13 1     
    4    3    4 ar    
    5    3   12 ar    
    6    4    5 ar    
    7    5    6 ar    
    8    5   14 1     
    9    6    7 ar    
   10    6   15 1     
   11    7    8 ar    
   12    7   12 ar    
   13    8    9 ar    
   14    8   16 1     
   15    9   10 ar    
   16    9   17 1     
   17   10   11 ar    
   18   10   18 1     
   19   11   12 ar    
   20   11   19 1     
@<TRIPOS>SUBSTRUCTURE
      1 ****           1
@<TRIPOS>COMMENT
> <Gold.Version>
2022.2.0

> <Gold.Id.Protein>
1qkm|1qkm_protein|mol2

> <Gold.Protein.RotatedTorsions>
[  496  491  490  487 ] final  134.44 input  -89.99 | X-H torsion

> <Gold.Protein.ActiveResidues>
 MET295  LEU298  THR299  LEU301  ALA302  GLU305  TRP335  MET336  LEU339  MET340 
 GLY342  LEU343  ARG346  PHE356  ILE373  ILE376  PHE377  LEU380  LYS471  GLY472 
 MET473  HIS475  LEU476  LEU477  ASN478  MET479  VAL484  VAL487 

> <Gold.Protein.RotatedAtoms>
   37.1817   32.9920   41.4100 H   0  0  0  0  0  0  0  0  0  0  0  0  # atno 496  bound_to 491 

> <Gold.Score>
     Score     S(PLP)   S(hbond)     S(cho)   S(metal)  DE(clash)   DE(tors)     intcor
     40.91     -38.46       0.00       1.00       0.00       0.00       0.27       0.00

> <Gold.PLP.Fitness>
40.9116

> <Gold.PLP.PLP>
-38.4557

> <Gold.PLP.part.hbond>
0.0000

> <Gold.PLP.part.metal>
0.0000

> <Gold.PLP.part.buried>
-2.6352

> <Gold.PLP.part.nonpolar>
-35.5389

> <Gold.PLP.part.repulsive>
0.0382

> <Gold.PLP.ligand.clash>
0.0000

> <Gold.PLP.ligand.torsion>
0.2721

> <Gold.PLP.Chemscore.Hbond>
0.0000

> <Gold.PLP.Chemscore.CHOScore>
1.0000

> <Gold.PLP.Chemscore.Metal>
0.0000

> <Gold.Chemscore.Hbonds>
donor molecule, donor type, donor heavy atom, donor atom, acceptor molecule, acceptor atom, score
      L1  C     5    14       P1  3229  1.00

> <Gold.PLP.Chemscore.Internal.Correction>
0.0000

