#       Name:                plp ligand
#       Creating user name   aseyller
#       Creation time:       Fri Apr 21 18:56:39 2023


#       File generated by GOLD software.
#

@<TRIPOS>MOLECULE
plp ligand
    19    20     1
SMALL
USER_CHARGES


@<TRIPOS>ATOM
      1 O1          -3.7548  -1.1010  -0.0005 ACCEPTOR       1 <1>                0.0000
      2 C2          -2.5537  -1.2665  -0.0002 NONPOLAR       1 <1>                0.0000
      3 C3          -1.6503  -0.1038  -0.0002 NONPOLAR       1 <1>                0.0000
      4 N4          -2.1474   1.1231  -0.0004 ACCEPTOR       1 <1>                0.0000
      5 C5          -1.3856   2.2000  -0.0004 NONPOLAR       1 <1>                0.0000
      6 C6          -0.0097   2.1185  -0.0002 NONPOLAR       1 <1>                0.0000
      7 C7           0.5930   0.8491  -0.0000 NONPOLAR       1 <1>                0.0000
      8 C8           1.9866   0.6834  -0.0003 NONPOLAR       1 <1>                0.0000
      9 C9           2.5115  -0.5735  -0.0004 NONPOLAR       1 <1>                0.0000
     10 C10          1.6853  -1.6960  -0.0008 NONPOLAR       1 <1>                0.0000
     11 C11          0.3282  -1.5708  -0.0009 NONPOLAR       1 <1>                0.0000
     12 C12         -0.2478  -0.2946   0.0060 NONPOLAR       1 <1>                0.0000
     13 H13         -2.1464  -2.2668   0.0045                1 <1>                0.0000
     14 H14         -1.8534   3.1735  -0.0010                1 <1>                0.0000
     15 H15          0.5941   3.0139  -0.0005                1 <1>                0.0000
     16 H16          2.6374   1.5452  -0.0007                1 <1>                0.0000
     17 H17          3.5838  -0.7022  -0.0007                1 <1>                0.0000
     18 H18          2.1279  -2.6812  -0.0012                1 <1>                0.0000
     19 H19         -0.2988  -2.4502  -0.0016                1 <1>                0.0000
@<TRIPOS>BOND
    1    1    2 2     
    2    2    3 1     
    3    2   13 1     
    4    3    4 ar    
    5    3   12 ar    
    6    4    5 ar    
    7    5    6 ar    
    8    5   14 1     
    9    6    7 ar    
   10    6   15 1     
   11    7    8 ar    
   12    7   12 ar    
   13    8    9 ar    
   14    8   16 1     
   15    9   10 ar    
   16    9   17 1     
   17   10   11 ar    
   18   10   18 1     
   19   11   12 ar    
   20   11   19 1     
@<TRIPOS>SUBSTRUCTURE
      1 ****           1
@<TRIPOS>SET
DONOR_HYDROGENS      STATIC     ATOMS    <user>   **** ""
0
ATOM$RED        STATIC     ATOMS    COLORGROUP SYSTEM
0
