#       Name:                EN300-40334_i001
#       Creating user name   aseyller
#       Creation time:       Fri Apr 21 17:35:27 2023


#       File generated by GOLD software.
#

@<TRIPOS>MOLECULE
EN300-40334_i001|benzaldehydes|mol2|293|dock10
    26    27     1
SMALL
USER_CHARGES


@<TRIPOS>ATOM
      1 C1          30.3067  40.3188  36.9427 C.3            1 <1>                0.0000
      2 C2          29.5114  39.1279  37.4814 C.3            1 <1>                0.0000
      3 C3          28.2703  38.9092  36.6138 C.3            1 <1>                0.0000
      4 N4          30.3486  37.9261  37.4477 N.pl3          1 <1>                0.0000
      5 C5          30.3514  36.9078  38.3672 C.2            1 <1>                0.0000
      6 C6          29.4997  36.8458  39.5663 C.2            1 <1>                0.0000
      7 O7          29.4032  35.8095  40.1884 O.2            1 <1>                0.0000
      8 N8          31.2281  35.9982  38.0157 N.2            1 <1>                0.0000
      9 C9          31.8309  36.3657  36.8735 C.ar           1 <1>                0.0000
     10 C10         32.8227  35.7772  36.0750 C.ar           1 <1>                0.0000
     11 C11         33.2428  36.4058  34.9402 C.ar           1 <1>                0.0000
     12 C12         32.6991  37.6278  34.5617 C.ar           1 <1>                0.0000
     13 C13         31.7241  38.2275  35.3275 C.ar           1 <1>                0.0000
     14 C14         31.2758  37.6026  36.4853 C.ar           1 <1>                0.0000
     15 H15         29.6839  41.2129  36.9678 H              1 <1>                0.0000
     16 H16         31.1910  40.4746  37.5608 H              1 <1>                0.0000
     17 H17         30.6121  40.1173  35.9160 H              1 <1>                0.0000
     18 H18         29.2061  39.3293  38.5081 H              1 <1>                0.0000
     19 H19         28.5756  38.7077  35.5869 H              1 <1>                0.0000
     20 H20         27.7036  38.0607  36.9974 H              1 <1>                0.0000
     21 H21         27.6474  39.8033  36.6388 H              1 <1>                0.0000
     22 H22         28.9608  37.7232  39.8919 H              1 <1>                0.0000
     23 H23         33.2531  34.8281  36.3587 H              1 <1>                0.0000
     24 H24         34.0068  35.9491  34.3287 H              1 <1>                0.0000
     25 H25         33.0444  38.1112  33.6597 H              1 <1>                0.0000
     26 H26         31.3065  39.1771  35.0273 H              1 <1>                0.0000
@<TRIPOS>BOND
    1    1    2 1     
    2    1   15 1     
    3    1   16 1     
    4    1   17 1     
    5    2    3 1     
    6    2    4 1     
    7    2   18 1     
    8    3   19 1     
    9    3   20 1     
   10    3   21 1     
   11    4    5 1     
   12    4   14 1     
   13    5    6 1     
   14    5    8 2     
   15    6    7 2     
   16    6   22 1     
   17    8    9 1     
   18    9   10 ar    
   19    9   14 ar    
   20   10   11 ar    
   21   10   23 1     
   22   11   12 ar    
   23   11   24 1     
   24   12   13 ar    
   25   12   25 1     
   26   13   14 ar    
   27   13   26 1     
@<TRIPOS>SUBSTRUCTURE
      1 ****           1
@<TRIPOS>COMMENT
> <Gold.Version>
2022.2.0

> <Gold.Id.Protein>
1qkm|1qkm_protein|mol2

> <Gold.Protein.RotatedTorsions>
[  496  491  490  487 ] final   67.41 input  -89.99 | X-H torsion

> <Gold.Protein.ActiveResidues>
 MET295  LEU298  THR299  LEU301  ALA302  GLU305  TRP335  MET336  LEU339  MET340 
 GLY342  LEU343  ARG346  PHE356  ILE373  ILE376  PHE377  LEU380  LYS471  GLY472 
 MET473  HIS475  LEU476  LEU477  ASN478  MET479  VAL484  VAL487 

> <Gold.Protein.RotatedAtoms>
   36.6146   33.2289   42.2508 H   0  0  0  0  0  0  0  0  0  0  0  0  # atno 496  bound_to 491 

> <Gold.Score>
     Score     S(PLP)   S(hbond)     S(cho)   S(metal)  DE(clash)   DE(tors)     intcor
     43.75     -45.23       0.00       0.00       0.00       0.05       0.72       0.00

> <Gold.PLP.Fitness>
43.7470

> <Gold.PLP.PLP>
-45.2307

> <Gold.PLP.part.hbond>
0.0000

> <Gold.PLP.part.metal>
0.0000

> <Gold.PLP.part.buried>
-3.1955

> <Gold.PLP.part.nonpolar>
-42.6812

> <Gold.PLP.part.repulsive>
0.1408

> <Gold.PLP.ligand.clash>
0.0480

> <Gold.PLP.ligand.torsion>
0.7179

> <Gold.PLP.Chemscore.Hbond>
0.0000

> <Gold.PLP.Chemscore.CHOScore>
0.0000

> <Gold.PLP.Chemscore.Metal>
0.0000

> <Gold.PLP.Chemscore.Internal.Correction>
0.0002

