#       Name:                EN300-40334_i001
#       Creating user name   aseyller
#       Creation time:       Fri Apr 21 17:35:24 2023


#       File generated by GOLD software.
#

@<TRIPOS>MOLECULE
EN300-40334_i001|benzaldehydes|mol2|293|dock5
    26    27     1
SMALL
USER_CHARGES


@<TRIPOS>ATOM
      1 C1          30.3139  37.3121  35.3728 C.3            1 <1>                0.0000
      2 C2          30.7191  37.7699  36.7754 C.3            1 <1>                0.0000
      3 C3          30.2661  39.2153  36.9907 C.3            1 <1>                0.0000
      4 N4          30.0846  36.9054  37.7735 N.pl3          1 <1>                0.0000
      5 C5          30.6828  35.8827  38.4655 C.2            1 <1>                0.0000
      6 C6          32.0887  35.4706  38.3222 C.2            1 <1>                0.0000
      7 O7          32.8217  36.0694  37.5643 O.2            1 <1>                0.0000
      8 N8          29.8119  35.3282  39.2739 N.2            1 <1>                0.0000
      9 C9          28.6252  35.9454  39.1556 C.ar           1 <1>                0.0000
     10 C10         27.3782  35.7619  39.7715 C.ar           1 <1>                0.0000
     11 C11         26.3302  36.5674  39.4364 C.ar           1 <1>                0.0000
     12 C12         26.4809  37.5727  38.4885 C.ar           1 <1>                0.0000
     13 C13         27.6942  37.7743  37.8687 C.ar           1 <1>                0.0000
     14 C14         28.7785  36.9695  38.1984 C.ar           1 <1>                0.0000
     15 H15         30.7861  37.9552  34.6301 H              1 <1>                0.0000
     16 H16         30.6367  36.2823  35.2193 H              1 <1>                0.0000
     17 H17         29.2306  37.3725  35.2697 H              1 <1>                0.0000
     18 H18         31.8025  37.7095  36.8785 H              1 <1>                0.0000
     19 H19         29.1826  39.2758  36.8876 H              1 <1>                0.0000
     20 H20         30.5546  39.5415  37.9900 H              1 <1>                0.0000
     21 H21         30.7382  39.8585  36.2481 H              1 <1>                0.0000
     22 H22         32.4673  34.6349  38.8919 H              1 <1>                0.0000
     23 H23         27.2486  34.9839  40.5094 H              1 <1>                0.0000
     24 H24         25.3720  36.4222  39.9130 H              1 <1>                0.0000
     25 H25         25.6395  38.2008  38.2356 H              1 <1>                0.0000
     26 H26         27.8037  38.5571  37.1329 H              1 <1>                0.0000
@<TRIPOS>BOND
    1    1    2 1     
    2    1   15 1     
    3    1   16 1     
    4    1   17 1     
    5    2    3 1     
    6    2    4 1     
    7    2   18 1     
    8    3   19 1     
    9    3   20 1     
   10    3   21 1     
   11    4    5 1     
   12    4   14 1     
   13    5    6 1     
   14    5    8 2     
   15    6    7 2     
   16    6   22 1     
   17    8    9 1     
   18    9   10 ar    
   19    9   14 ar    
   20   10   11 ar    
   21   10   23 1     
   22   11   12 ar    
   23   11   24 1     
   24   12   13 ar    
   25   12   25 1     
   26   13   14 ar    
   27   13   26 1     
@<TRIPOS>SUBSTRUCTURE
      1 ****           1
@<TRIPOS>COMMENT
> <Gold.Version>
2022.2.0

> <Gold.Id.Protein>
1qkm|1qkm_protein|mol2

> <Gold.Protein.RotatedTorsions>
[  496  491  490  487 ] final -169.02 input  -89.99 | X-H torsion

> <Gold.Protein.ActiveResidues>
 MET295  LEU298  THR299  LEU301  ALA302  GLU305  TRP335  MET336  LEU339  MET340 
 GLY342  LEU343  ARG346  PHE356  ILE373  ILE376  PHE377  LEU380  LYS471  GLY472 
 MET473  HIS475  LEU476  LEU477  ASN478  MET479  VAL484  VAL487 

> <Gold.Protein.RotatedAtoms>
   37.3022   33.6239   40.7900 H   0  0  0  0  0  0  0  0  0  0  0  0  # atno 496  bound_to 491 

> <Gold.Score>
     Score     S(PLP)   S(hbond)     S(cho)   S(metal)  DE(clash)   DE(tors)     intcor
     44.92     -45.92       0.00       0.00       0.00       0.00       0.50       0.00

> <Gold.PLP.Fitness>
44.9194

> <Gold.PLP.PLP>
-45.9191

> <Gold.PLP.part.hbond>
0.0000

> <Gold.PLP.part.metal>
0.0000

> <Gold.PLP.part.buried>
-3.3736

> <Gold.PLP.part.nonpolar>
-43.4014

> <Gold.PLP.part.repulsive>
0.0957

> <Gold.PLP.ligand.clash>
0.0000

> <Gold.PLP.ligand.torsion>
0.4999

> <Gold.PLP.Chemscore.Hbond>
0.0000

> <Gold.PLP.Chemscore.CHOScore>
0.0000

> <Gold.PLP.Chemscore.Metal>
0.0000

> <Gold.PLP.Chemscore.Internal.Correction>
0.0002

