#       Name:                EN300-40334_i001
#       Creating user name   aseyller
#       Creation time:       Fri Apr 21 17:35:25 2023


#       File generated by GOLD software.
#

@<TRIPOS>MOLECULE
EN300-40334_i001|benzaldehydes|mol2|293|dock6
    26    27     1
SMALL
USER_CHARGES


@<TRIPOS>ATOM
      1 C1          30.0481  39.6826  37.1091 C.3            1 <1>                0.0000
      2 C2          29.3919  38.3472  36.7528 C.3            1 <1>                0.0000
      3 C3          30.0067  37.8057  35.4606 C.3            1 <1>                0.0000
      4 N4          29.6142  37.3889  37.8383 N.pl3          1 <1>                0.0000
      5 C5          30.8071  36.8011  38.1761 C.2            1 <1>                0.0000
      6 C6          32.0908  37.0358  37.4950 C.2            1 <1>                0.0000
      7 O7          33.0548  36.3520  37.7659 O.2            1 <1>                0.0000
      8 N8          30.6300  35.9986  39.1978 N.2            1 <1>                0.0000
      9 C9          29.3409  36.0190  39.5734 C.ar           1 <1>                0.0000
     10 C10         28.6217  35.3655  40.5850 C.ar           1 <1>                0.0000
     11 C11         27.2848  35.5949  40.7245 C.ar           1 <1>                0.0000
     12 C12         26.6214  36.4717  39.8741 C.ar           1 <1>                0.0000
     13 C13         27.3036  37.1263  38.8727 C.ar           1 <1>                0.0000
     14 C14         28.6680  36.9129  38.7150 C.ar           1 <1>                0.0000
     15 H15         29.8827  40.3957  36.3014 H              1 <1>                0.0000
     16 H16         29.6101  40.0685  38.0297 H              1 <1>                0.0000
     17 H17         31.1188  39.5352  37.2501 H              1 <1>                0.0000
     18 H18         28.3212  38.4946  36.6118 H              1 <1>                0.0000
     19 H19         31.0774  37.6583  35.6015 H              1 <1>                0.0000
     20 H20         29.5393  36.8543  35.2067 H              1 <1>                0.0000
     21 H21         29.8413  38.5187  34.6529 H              1 <1>                0.0000
     22 H22         32.1742  37.8171  36.7540 H              1 <1>                0.0000
     23 H23         29.1259  34.6816  41.2518 H              1 <1>                0.0000
     24 H24         26.7351  35.0892  41.5045 H              1 <1>                0.0000
     25 H25         25.5621  36.6408  39.9995 H              1 <1>                0.0000
     26 H26         26.7815  37.8059  38.2155 H              1 <1>                0.0000
@<TRIPOS>BOND
    1    1    2 1     
    2    1   15 1     
    3    1   16 1     
    4    1   17 1     
    5    2    3 1     
    6    2    4 1     
    7    2   18 1     
    8    3   19 1     
    9    3   20 1     
   10    3   21 1     
   11    4    5 1     
   12    4   14 1     
   13    5    6 1     
   14    5    8 2     
   15    6    7 2     
   16    6   22 1     
   17    8    9 1     
   18    9   10 ar    
   19    9   14 ar    
   20   10   11 ar    
   21   10   23 1     
   22   11   12 ar    
   23   11   24 1     
   24   12   13 ar    
   25   12   25 1     
   26   13   14 ar    
   27   13   26 1     
@<TRIPOS>SUBSTRUCTURE
      1 ****           1
@<TRIPOS>COMMENT
> <Gold.Version>
2022.2.0

> <Gold.Id.Protein>
1qkm|1qkm_protein|mol2

> <Gold.Protein.RotatedTorsions>
[  496  491  490  487 ] final   94.36 input  -89.99 | X-H torsion

> <Gold.Protein.ActiveResidues>
 MET295  LEU298  THR299  LEU301  ALA302  GLU305  TRP335  MET336  LEU339  MET340 
 GLY342  LEU343  ARG346  PHE356  ILE373  ILE376  PHE377  LEU380  LYS471  GLY472 
 MET473  HIS475  LEU476  LEU477  ASN478  MET479  VAL484  VAL487 

> <Gold.Protein.RotatedAtoms>
   36.8604   32.9957   41.9709 H   0  0  0  0  0  0  0  0  0  0  0  0  # atno 496  bound_to 491 

> <Gold.Score>
     Score     S(PLP)   S(hbond)     S(cho)   S(metal)  DE(clash)   DE(tors)     intcor
     44.60     -45.04       0.00       0.00       0.00       0.00       0.22       0.00

> <Gold.PLP.Fitness>
44.5973

> <Gold.PLP.PLP>
-45.0431

> <Gold.PLP.part.hbond>
0.0000

> <Gold.PLP.part.metal>
0.0000

> <Gold.PLP.part.buried>
-3.3319

> <Gold.PLP.part.nonpolar>
-43.1412

> <Gold.PLP.part.repulsive>
0.1174

> <Gold.PLP.ligand.clash>
0.0000

> <Gold.PLP.ligand.torsion>
0.2230

> <Gold.PLP.Chemscore.Hbond>
0.0000

> <Gold.PLP.Chemscore.CHOScore>
0.0000

> <Gold.PLP.Chemscore.Metal>
0.0000

> <Gold.PLP.Chemscore.Internal.Correction>
0.0002

