#       Name:                EN300-40334_i001
#       Creating user name   aseyller
#       Creation time:       Fri Apr 21 17:35:28 2023


#       File generated by GOLD software.
#

@<TRIPOS>MOLECULE
EN300-40334_i001|benzaldehydes|mol2|293|dock13
    26    27     1
SMALL
USER_CHARGES


@<TRIPOS>ATOM
      1 C1          30.4119  38.1480  34.8464 C.3            1 <1>                0.0000
      2 C2          30.9735  38.4512  36.2369 C.3            1 <1>                0.0000
      3 C3          30.7926  39.9385  36.5467 C.3            1 <1>                0.0000
      4 N4          30.2590  37.6537  37.2367 N.pl3          1 <1>                0.0000
      5 C5          30.7810  36.6339  37.9917 C.2            1 <1>                0.0000
      6 C6          32.1721  36.1569  37.9264 C.2            1 <1>                0.0000
      7 O7          32.9322  36.6158  37.1007 O.2            1 <1>                0.0000
      8 N8          29.8525  36.1486  38.7802 N.2            1 <1>                0.0000
      9 C9          28.7005  36.8108  38.5866 C.ar           1 <1>                0.0000
     10 C10         27.4213  36.7046  39.1526 C.ar           1 <1>                0.0000
     11 C11         26.4254  37.5405  38.7419 C.ar           1 <1>                0.0000
     12 C12         26.6611  38.5013  37.7654 C.ar           1 <1>                0.0000
     13 C13         27.9076  38.6268  37.1934 C.ar           1 <1>                0.0000
     14 C14         28.9400  37.7898  37.6003 C.ar           1 <1>                0.0000
     15 H15         30.9435  38.7413  34.1024 H              1 <1>                0.0000
     16 H16         30.5407  37.0883  34.6256 H              1 <1>                0.0000
     17 H17         29.3513  38.3981  34.8204 H              1 <1>                0.0000
     18 H18         32.0341  38.2011  36.2629 H              1 <1>                0.0000
     19 H19         29.7320  40.1888  36.5207 H              1 <1>                0.0000
     20 H20         31.1926  40.1547  37.5374 H              1 <1>                0.0000
     21 H21         31.3242  40.5319  35.8028 H              1 <1>                0.0000
     22 H22         32.5157  35.3981  38.6139 H              1 <1>                0.0000
     23 H23         27.2257  35.9619  39.9119 H              1 <1>                0.0000
     24 H24         25.4420  37.4549  39.1802 H              1 <1>                0.0000
     25 H25         25.8599  39.1545  37.4523 H              1 <1>                0.0000
     26 H26         28.0833  39.3754  36.4350 H              1 <1>                0.0000
@<TRIPOS>BOND
    1    1    2 1     
    2    1   15 1     
    3    1   16 1     
    4    1   17 1     
    5    2    3 1     
    6    2    4 1     
    7    2   18 1     
    8    3   19 1     
    9    3   20 1     
   10    3   21 1     
   11    4    5 1     
   12    4   14 1     
   13    5    6 1     
   14    5    8 2     
   15    6    7 2     
   16    6   22 1     
   17    8    9 1     
   18    9   10 ar    
   19    9   14 ar    
   20   10   11 ar    
   21   10   23 1     
   22   11   12 ar    
   23   11   24 1     
   24   12   13 ar    
   25   12   25 1     
   26   13   14 ar    
   27   13   26 1     
@<TRIPOS>SUBSTRUCTURE
      1 ****           1
@<TRIPOS>COMMENT
> <Gold.Version>
2022.2.0

> <Gold.Id.Protein>
1qkm|1qkm_protein|mol2

> <Gold.Protein.RotatedTorsions>
[  496  491  490  487 ] final -141.25 input  -89.99 | X-H torsion

> <Gold.Protein.ActiveResidues>
 MET295  LEU298  THR299  LEU301  ALA302  GLU305  TRP335  MET336  LEU339  MET340 
 GLY342  LEU343  ARG346  PHE356  ILE373  ILE376  PHE377  LEU380  LYS471  GLY472 
 MET473  HIS475  LEU476  LEU477  ASN478  MET479  VAL484  VAL487 

> <Gold.Protein.RotatedAtoms>
   37.1817   34.0550   40.7223 H   0  0  0  0  0  0  0  0  0  0  0  0  # atno 496  bound_to 491 

> <Gold.Score>
     Score     S(PLP)   S(hbond)     S(cho)   S(metal)  DE(clash)   DE(tors)     intcor
     42.87     -43.08       0.00       0.00       0.00       0.00       0.11       0.00

> <Gold.PLP.Fitness>
42.8692

> <Gold.PLP.PLP>
-43.0846

> <Gold.PLP.part.hbond>
0.0000

> <Gold.PLP.part.metal>
0.0000

> <Gold.PLP.part.buried>
-2.6224

> <Gold.PLP.part.nonpolar>
-40.7761

> <Gold.PLP.part.repulsive>
0.0532

> <Gold.PLP.ligand.clash>
0.0000

> <Gold.PLP.ligand.torsion>
0.1077

> <Gold.PLP.Chemscore.Hbond>
0.0000

> <Gold.PLP.Chemscore.CHOScore>
0.0000

> <Gold.PLP.Chemscore.Metal>
0.0000

> <Gold.PLP.Chemscore.Internal.Correction>
0.0002

