#       Name:                EN300-40334_i001
#       Creating user name   aseyller
#       Creation time:       Fri Apr 21 17:35:28 2023


#       File generated by GOLD software.
#

@<TRIPOS>MOLECULE
EN300-40334_i001|benzaldehydes|mol2|293|dock12
    26    27     1
SMALL
USER_CHARGES


@<TRIPOS>ATOM
      1 C1          29.0502  34.8463  39.1007 C.3            1 <1>                0.0000
      2 C2          28.2670  35.9776  39.7698 C.3            1 <1>                0.0000
      3 C3          29.0724  36.5275  40.9488 C.3            1 <1>                0.0000
      4 N4          28.0303  37.0485  38.7985 N.pl3          1 <1>                0.0000
      5 C5          26.8252  37.6393  38.5131 C.2            1 <1>                0.0000
      6 C6          25.5409  37.2934  39.1439 C.2            1 <1>                0.0000
      7 O7          25.5206  36.8363  40.2668 O.2            1 <1>                0.0000
      8 N8          26.9913  38.5587  37.5931 N.2            1 <1>                0.0000
      9 C9          28.2847  38.6162  37.2367 C.ar           1 <1>                0.0000
     10 C10         28.9970  39.4020  36.3185 C.ar           1 <1>                0.0000
     11 C11         30.3415  39.2268  36.1740 C.ar           1 <1>                0.0000
     12 C12         31.0195  38.2758  36.9275 C.ar           1 <1>                0.0000
     13 C13         30.3445  37.4911  37.8360 C.ar           1 <1>                0.0000
     14 C14         28.9746  37.6558  38.0049 C.ar           1 <1>                0.0000
     15 H15         29.2264  34.0495  39.8233 H              1 <1>                0.0000
     16 H16         28.4765  34.4546  38.2607 H              1 <1>                0.0000
     17 H17         30.0055  35.2287  38.7413 H              1 <1>                0.0000
     18 H18         27.3117  35.5952  40.1291 H              1 <1>                0.0000
     19 H19         30.0278  36.9099  40.5895 H              1 <1>                0.0000
     20 H20         28.5146  37.3335  41.4255 H              1 <1>                0.0000
     21 H21         29.2486  35.7307  41.6714 H              1 <1>                0.0000
     22 H22         24.6167  37.4467  38.6066 H              1 <1>                0.0000
     23 H23         28.4812  40.1440  35.7269 H              1 <1>                0.0000
     24 H24         30.8857  39.8337  35.4656 H              1 <1>                0.0000
     25 H25         32.0847  38.1508  36.7993 H              1 <1>                0.0000
     26 H26         30.8779  36.7540  38.4178 H              1 <1>                0.0000
@<TRIPOS>BOND
    1    1    2 1     
    2    1   15 1     
    3    1   16 1     
    4    1   17 1     
    5    2    3 1     
    6    2    4 1     
    7    2   18 1     
    8    3   19 1     
    9    3   20 1     
   10    3   21 1     
   11    4    5 1     
   12    4   14 1     
   13    5    6 1     
   14    5    8 2     
   15    6    7 2     
   16    6   22 1     
   17    8    9 1     
   18    9   10 ar    
   19    9   14 ar    
   20   10   11 ar    
   21   10   23 1     
   22   11   12 ar    
   23   11   24 1     
   24   12   13 ar    
   25   12   25 1     
   26   13   14 ar    
   27   13   26 1     
@<TRIPOS>SUBSTRUCTURE
      1 ****           1
@<TRIPOS>COMMENT
> <Gold.Version>
2022.2.0

> <Gold.Id.Protein>
1qkm|1qkm_protein|mol2

> <Gold.Protein.RotatedTorsions>
[  496  491  490  487 ] final  -53.38 input  -89.99 | X-H torsion

> <Gold.Protein.ActiveResidues>
 MET295  LEU298  THR299  LEU301  ALA302  GLU305  TRP335  MET336  LEU339  MET340 
 GLY342  LEU343  ARG346  PHE356  ILE373  ILE376  PHE377  LEU380  LYS471  GLY472 
 MET473  HIS475  LEU476  LEU477  ASN478  MET479  VAL484  VAL487 

> <Gold.Protein.RotatedAtoms>
   36.4479   34.7166   41.5807 H   0  0  0  0  0  0  0  0  0  0  0  0  # atno 496  bound_to 491 

> <Gold.Score>
     Score     S(PLP)   S(hbond)     S(cho)   S(metal)  DE(clash)   DE(tors)     intcor
     44.89     -45.52       0.00       0.00       0.00       0.00       0.32       0.00

> <Gold.PLP.Fitness>
44.8931

> <Gold.PLP.PLP>
-45.5242

> <Gold.PLP.part.hbond>
0.0000

> <Gold.PLP.part.metal>
0.0000

> <Gold.PLP.part.buried>
-2.2219

> <Gold.PLP.part.nonpolar>
-43.5924

> <Gold.PLP.part.repulsive>
0.1375

> <Gold.PLP.ligand.clash>
0.0000

> <Gold.PLP.ligand.torsion>
0.3156

> <Gold.PLP.Chemscore.Hbond>
0.0000

> <Gold.PLP.Chemscore.CHOScore>
0.0000

> <Gold.PLP.Chemscore.Metal>
0.0000

> <Gold.PLP.Chemscore.Internal.Correction>
0.0002

