#       Name:                EN300-40334_i001
#       Creating user name   aseyller
#       Creation time:       Fri Apr 21 17:35:30 2023


#       File generated by GOLD software.
#

@<TRIPOS>MOLECULE
EN300-40334_i001|benzaldehydes|mol2|293|dock16
    26    27     1
SMALL
USER_CHARGES


@<TRIPOS>ATOM
      1 C1          33.3537  36.4135  37.8998 C.3            1 <1>                0.0000
      2 C2          32.2955  35.6592  37.0923 C.3            1 <1>                0.0000
      3 C3          32.0977  34.2641  37.6885 C.3            1 <1>                0.0000
      4 N4          31.0293  36.3945  37.1396 N.pl3          1 <1>                0.0000
      5 C5          30.5574  37.2683  36.1929 C.2            1 <1>                0.0000
      6 C6          31.2534  37.6239  34.9454 C.2            1 <1>                0.0000
      7 O7          32.3195  37.1115  34.6788 O.2            1 <1>                0.0000
      8 N8          29.3923  37.7386  36.5680 N.2            1 <1>                0.0000
      9 C9          29.0488  37.2088  37.7532 C.ar           1 <1>                0.0000
     10 C10         27.9331  37.3614  38.5897 C.ar           1 <1>                0.0000
     11 C11         27.8651  36.6714  39.7638 C.ar           1 <1>                0.0000
     12 C12         28.8910  35.8145  40.1452 C.ar           1 <1>                0.0000
     13 C13         29.9974  35.6464  39.3427 C.ar           1 <1>                0.0000
     14 C14         30.0862  36.3347  38.1384 C.ar           1 <1>                0.0000
     15 H15         34.2959  35.8664  37.8646 H              1 <1>                0.0000
     16 H16         33.4947  37.4074  37.4750 H              1 <1>                0.0000
     17 H17         33.0247  36.5041  38.9349 H              1 <1>                0.0000
     18 H18         32.6246  35.5686  36.0571 H              1 <1>                0.0000
     19 H19         31.7686  34.3546  38.7237 H              1 <1>                0.0000
     20 H20         31.3437  33.7267  37.1133 H              1 <1>                0.0000
     21 H21         33.0398  33.7170  37.6533 H              1 <1>                0.0000
     22 H22         30.8146  38.3412  34.2677 H              1 <1>                0.0000
     23 H23         27.1298  38.0246  38.3043 H              1 <1>                0.0000
     24 H24         27.0044  36.7923  40.4048 H              1 <1>                0.0000
     25 H25         28.8199  35.2765  41.0790 H              1 <1>                0.0000
     26 H26         30.7908  34.9792  39.6458 H              1 <1>                0.0000
@<TRIPOS>BOND
    1    1    2 1     
    2    1   15 1     
    3    1   16 1     
    4    1   17 1     
    5    2    3 1     
    6    2    4 1     
    7    2   18 1     
    8    3   19 1     
    9    3   20 1     
   10    3   21 1     
   11    4    5 1     
   12    4   14 1     
   13    5    6 1     
   14    5    8 2     
   15    6    7 2     
   16    6   22 1     
   17    8    9 1     
   18    9   10 ar    
   19    9   14 ar    
   20   10   11 ar    
   21   10   23 1     
   22   11   12 ar    
   23   11   24 1     
   24   12   13 ar    
   25   12   25 1     
   26   13   14 ar    
   27   13   26 1     
@<TRIPOS>SUBSTRUCTURE
      1 ****           1
@<TRIPOS>COMMENT
> <Gold.Version>
2022.2.0

> <Gold.Id.Protein>
1qkm|1qkm_protein|mol2

> <Gold.Protein.RotatedTorsions>
[  496  491  490  487 ] final   29.19 input  -89.99 | X-H torsion

> <Gold.Protein.ActiveResidues>
 MET295  LEU298  THR299  LEU301  ALA302  GLU305  TRP335  MET336  LEU339  MET340 
 GLY342  LEU343  ARG346  PHE356  ILE373  ILE376  PHE377  LEU380  LYS471  GLY472 
 MET473  HIS475  LEU476  LEU477  ASN478  MET479  VAL484  VAL487 

> <Gold.Protein.RotatedAtoms>
   36.3423   33.7680   42.3796 H   0  0  0  0  0  0  0  0  0  0  0  0  # atno 496  bound_to 491 

> <Gold.Score>
     Score     S(PLP)   S(hbond)     S(cho)   S(metal)  DE(clash)   DE(tors)     intcor
     39.94     -41.27       0.00       0.00       0.00       0.00       0.66       0.00

> <Gold.PLP.Fitness>
39.9422

> <Gold.PLP.PLP>
-41.2672

> <Gold.PLP.part.hbond>
0.0000

> <Gold.PLP.part.metal>
0.0000

> <Gold.PLP.part.buried>
-3.2985

> <Gold.PLP.part.nonpolar>
-38.4300

> <Gold.PLP.part.repulsive>
0.1449

> <Gold.PLP.ligand.clash>
0.0000

> <Gold.PLP.ligand.torsion>
0.6626

> <Gold.PLP.Chemscore.Hbond>
0.0000

> <Gold.PLP.Chemscore.CHOScore>
0.0000

> <Gold.PLP.Chemscore.Metal>
0.0000

> <Gold.PLP.Chemscore.Internal.Correction>
0.0002

