#       Name:                EN300-40334_i001
#       Creating user name   aseyller
#       Creation time:       Fri Apr 21 17:35:23 2023


#       File generated by GOLD software.
#

@<TRIPOS>MOLECULE
EN300-40334_i001|benzaldehydes|mol2|293|dock2
    26    27     1
SMALL
USER_CHARGES


@<TRIPOS>ATOM
      1 C1          30.3597  40.1264  36.6867 C.3            1 <1>                0.0000
      2 C2          29.5550  38.9124  36.2182 C.3            1 <1>                0.0000
      3 C3          30.2518  38.2717  35.0162 C.3            1 <1>                0.0000
      4 N4          29.4645  37.9367  37.3073 N.pl3          1 <1>                0.0000
      5 C5          30.4960  37.1960  37.8269 C.2            1 <1>                0.0000
      6 C6          31.8949  37.2547  37.3723 C.2            1 <1>                0.0000
      7 O7          32.6769  36.3893  37.7036 O.2            1 <1>                0.0000
      8 N8          30.0465  36.4279  38.7898 N.2            1 <1>                0.0000
      9 C9          28.7271  36.6216  38.9470 C.ar           1 <1>                0.0000
     10 C10         27.7692  36.0735  39.8130 C.ar           1 <1>                0.0000
     11 C11         26.4701  36.4799  39.7334 C.ar           1 <1>                0.0000
     12 C12         26.0796  37.4346  38.8016 C.ar           1 <1>                0.0000
     13 C13         26.9997  37.9888  37.9396 C.ar           1 <1>                0.0000
     14 C14         28.3309  37.5944  38.0060 C.ar           1 <1>                0.0000
     15 H15         30.4270  40.8524  35.8764 H              1 <1>                0.0000
     16 H16         29.8633  40.5828  37.5431 H              1 <1>                0.0000
     17 H17         31.3619  39.8090  36.9744 H              1 <1>                0.0000
     18 H18         28.5527  39.2298  35.9305 H              1 <1>                0.0000
     19 H19         31.2541  37.9543  35.3038 H              1 <1>                0.0000
     20 H20         29.6786  37.4067  34.6824 H              1 <1>                0.0000
     21 H21         30.3191  38.9976  34.2059 H              1 <1>                0.0000
     22 H22         32.2249  38.0687  36.7438 H              1 <1>                0.0000
     23 H23         28.0603  35.3307  40.5410 H              1 <1>                0.0000
     24 H24         25.7360  36.0550  40.4020 H              1 <1>                0.0000
     25 H25         25.0460  37.7441  38.7530 H              1 <1>                0.0000
     26 H26         26.6889  38.7297  37.2180 H              1 <1>                0.0000
@<TRIPOS>BOND
    1    1    2 1     
    2    1   15 1     
    3    1   16 1     
    4    1   17 1     
    5    2    3 1     
    6    2    4 1     
    7    2   18 1     
    8    3   19 1     
    9    3   20 1     
   10    3   21 1     
   11    4    5 1     
   12    4   14 1     
   13    5    6 1     
   14    5    8 2     
   15    6    7 2     
   16    6   22 1     
   17    8    9 1     
   18    9   10 ar    
   19    9   14 ar    
   20   10   11 ar    
   21   10   23 1     
   22   11   12 ar    
   23   11   24 1     
   24   12   13 ar    
   25   12   25 1     
   26   13   14 ar    
   27   13   26 1     
@<TRIPOS>SUBSTRUCTURE
      1 ****           1
@<TRIPOS>COMMENT
> <Gold.Version>
2022.2.0

> <Gold.Id.Protein>
1qkm|1qkm_protein|mol2

> <Gold.Protein.RotatedTorsions>
[  496  491  490  487 ] final  100.10 input  -89.99 | X-H torsion

> <Gold.Protein.ActiveResidues>
 MET295  LEU298  THR299  LEU301  ALA302  GLU305  TRP335  MET336  LEU339  MET340 
 GLY342  LEU343  ARG346  PHE356  ILE373  ILE376  PHE377  LEU380  LYS471  GLY472 
 MET473  HIS475  LEU476  LEU477  ASN478  MET479  VAL484  VAL487 

> <Gold.Protein.RotatedAtoms>
   36.9125   32.9687   41.8969 H   0  0  0  0  0  0  0  0  0  0  0  0  # atno 496  bound_to 491 

> <Gold.Score>
     Score     S(PLP)   S(hbond)     S(cho)   S(metal)  DE(clash)   DE(tors)     intcor
     46.13     -46.49       0.00       0.00       0.00       0.00       0.18       0.00

> <Gold.PLP.Fitness>
46.1289

> <Gold.PLP.PLP>
-46.4892

> <Gold.PLP.part.hbond>
0.0000

> <Gold.PLP.part.metal>
0.0000

> <Gold.PLP.part.buried>
-3.0390

> <Gold.PLP.part.nonpolar>
-43.7516

> <Gold.PLP.part.repulsive>
0.0727

> <Gold.PLP.ligand.clash>
0.0000

> <Gold.PLP.ligand.torsion>
0.1802

> <Gold.PLP.Chemscore.Hbond>
0.0000

> <Gold.PLP.Chemscore.CHOScore>
0.0000

> <Gold.PLP.Chemscore.Metal>
0.0000

> <Gold.PLP.Chemscore.Internal.Correction>
0.0002

