#       Name:                EN300-40334_i001
#       Creating user name   aseyller
#       Creation time:       Fri Apr 21 17:35:26 2023


#       File generated by GOLD software.
#

@<TRIPOS>MOLECULE
EN300-40334_i001|benzaldehydes|mol2|293|dock8
    26    27     1
SMALL
USER_CHARGES


@<TRIPOS>ATOM
      1 C1          27.2792  35.5451  39.0322 C.3            1 <1>                0.0000
      2 C2          28.1131  36.8023  39.2873 C.3            1 <1>                0.0000
      3 C3          28.7664  36.7093  40.6677 C.3            1 <1>                0.0000
      4 N4          29.1529  36.9151  38.2616 N.pl3          1 <1>                0.0000
      5 C5          29.2172  37.8560  37.2650 C.2            1 <1>                0.0000
      6 C6          28.2362  38.9325  37.0509 C.2            1 <1>                0.0000
      7 O7          27.0936  38.7963  37.4331 O.2            1 <1>                0.0000
      8 N8          30.2851  37.6507  36.5324 N.2            1 <1>                0.0000
      9 C9          30.9601  36.5886  37.0009 C.ar           1 <1>                0.0000
     10 C10         32.1429  35.9473  36.6042 C.ar           1 <1>                0.0000
     11 C11         32.5916  34.8614  37.2961 C.ar           1 <1>                0.0000
     12 C12         31.8899  34.3787  38.3946 C.ar           1 <1>                0.0000
     13 C13         30.7260  34.9895  38.8053 C.ar           1 <1>                0.0000
     14 C14         30.2522  36.1016  38.1191 C.ar           1 <1>                0.0000
     15 H15         26.5055  35.4612  39.7954 H              1 <1>                0.0000
     16 H16         26.8137  35.6113  38.0487 H              1 <1>                0.0000
     17 H17         27.9241  34.6673  39.0705 H              1 <1>                0.0000
     18 H18         27.4681  37.6801  39.2490 H              1 <1>                0.0000
     19 H19         29.4114  35.8314  40.7061 H              1 <1>                0.0000
     20 H20         29.3606  37.6048  40.8496 H              1 <1>                0.0000
     21 H21         27.9927  36.6254  41.4309 H              1 <1>                0.0000
     22 H22         28.5341  39.8436  36.5532 H              1 <1>                0.0000
     23 H23         32.6968  36.3127  35.7521 H              1 <1>                0.0000
     24 H24         33.5026  34.3706  36.9869 H              1 <1>                0.0000
     25 H25         32.2605  33.5171  38.9303 H              1 <1>                0.0000
     26 H26         30.1859  34.6087  39.6595 H              1 <1>                0.0000
@<TRIPOS>BOND
    1    1    2 1     
    2    1   15 1     
    3    1   16 1     
    4    1   17 1     
    5    2    3 1     
    6    2    4 1     
    7    2   18 1     
    8    3   19 1     
    9    3   20 1     
   10    3   21 1     
   11    4    5 1     
   12    4   14 1     
   13    5    6 1     
   14    5    8 2     
   15    6    7 2     
   16    6   22 1     
   17    8    9 1     
   18    9   10 ar    
   19    9   14 ar    
   20   10   11 ar    
   21   10   23 1     
   22   11   12 ar    
   23   11   24 1     
   24   12   13 ar    
   25   12   25 1     
   26   13   14 ar    
   27   13   26 1     
@<TRIPOS>SUBSTRUCTURE
      1 ****           1
@<TRIPOS>COMMENT
> <Gold.Version>
2022.2.0

> <Gold.Id.Protein>
1qkm|1qkm_protein|mol2

> <Gold.Protein.RotatedTorsions>
[  496  491  490  487 ] final  140.43 input  -89.99 | X-H torsion

> <Gold.Protein.ActiveResidues>
 MET295  LEU298  THR299  LEU301  ALA302  GLU305  TRP335  MET336  LEU339  MET340 
 GLY342  LEU343  ARG346  PHE356  ILE373  ILE376  PHE377  LEU380  LYS471  GLY472 
 MET473  HIS475  LEU476  LEU477  ASN478  MET479  VAL484  VAL487 

> <Gold.Protein.RotatedAtoms>
   37.2166   33.0282   41.3253 H   0  0  0  0  0  0  0  0  0  0  0  0  # atno 496  bound_to 491 

> <Gold.Score>
     Score     S(PLP)   S(hbond)     S(cho)   S(metal)  DE(clash)   DE(tors)     intcor
     43.57     -44.18       0.00       0.00       0.00       0.00       0.30       0.00

> <Gold.PLP.Fitness>
43.5694

> <Gold.PLP.PLP>
-44.1754

> <Gold.PLP.part.hbond>
0.0000

> <Gold.PLP.part.metal>
0.0000

> <Gold.PLP.part.buried>
-2.0449

> <Gold.PLP.part.nonpolar>
-42.8225

> <Gold.PLP.part.repulsive>
0.0000

> <Gold.PLP.ligand.clash>
0.0000

> <Gold.PLP.ligand.torsion>
0.3031

> <Gold.PLP.Chemscore.Hbond>
0.0000

> <Gold.PLP.Chemscore.CHOScore>
0.0000

> <Gold.PLP.Chemscore.Metal>
0.0000

> <Gold.PLP.Chemscore.Internal.Correction>
0.0002

