#       Name:                EN300-40334_i001
#       Creating user name   aseyller
#       Creation time:       Fri Apr 21 17:35:29 2023


#       File generated by GOLD software.
#

@<TRIPOS>MOLECULE
EN300-40334_i001|benzaldehydes|mol2|293|dock14
    26    27     1
SMALL
USER_CHARGES


@<TRIPOS>ATOM
      1 C1          29.0995  36.6947  40.7372 C.3            1 <1>                0.0000
      2 C2          29.1206  35.9873  39.3808 C.3            1 <1>                0.0000
      3 C3          27.7061  35.9589  38.7984 C.3            1 <1>                0.0000
      4 N4          30.0102  36.7090  38.4675 N.pl3          1 <1>                0.0000
      5 C5          31.3104  36.3865  38.1704 C.2            1 <1>                0.0000
      6 C6          32.0482  35.2408  38.7273 C.2            1 <1>                0.0000
      7 O7          31.4973  34.1679  38.8525 O.2            1 <1>                0.0000
      8 N8          31.7959  37.2538  37.3152 N.2            1 <1>                0.0000
      9 C9          30.8597  38.1684  37.0149 C.ar           1 <1>                0.0000
     10 C10         30.8445  39.2913  36.1742 C.ar           1 <1>                0.0000
     11 C11         29.7149  40.0482  36.0722 C.ar           1 <1>                0.0000
     12 C12         28.5725  39.7210  36.7933 C.ar           1 <1>                0.0000
     13 C13         28.5603  38.6240  37.6258 C.ar           1 <1>                0.0000
     14 C14         29.6982  37.8340  37.7413 C.ar           1 <1>                0.0000
     15 H15         28.4376  36.1578  41.4168 H              1 <1>                0.0000
     16 H16         30.1073  36.7150  41.1522 H              1 <1>                0.0000
     17 H17         28.7387  37.7153  40.6093 H              1 <1>                0.0000
     18 H18         29.4814  34.9668  39.5087 H              1 <1>                0.0000
     19 H19         27.3452  36.9795  38.6704 H              1 <1>                0.0000
     20 H20         27.7210  35.4550  37.8320 H              1 <1>                0.0000
     21 H21         27.0442  35.4220  39.4779 H              1 <1>                0.0000
     22 H22         33.0801  35.3558  39.0244 H              1 <1>                0.0000
     23 H23         31.7261  39.5559  35.6091 H              1 <1>                0.0000
     24 H24         29.7079  40.9120  35.4240 H              1 <1>                0.0000
     25 H25         27.6870  40.3324  36.7001 H              1 <1>                0.0000
     26 H26         27.6692  38.3761  38.1832 H              1 <1>                0.0000
@<TRIPOS>BOND
    1    1    2 1     
    2    1   15 1     
    3    1   16 1     
    4    1   17 1     
    5    2    3 1     
    6    2    4 1     
    7    2   18 1     
    8    3   19 1     
    9    3   20 1     
   10    3   21 1     
   11    4    5 1     
   12    4   14 1     
   13    5    6 1     
   14    5    8 2     
   15    6    7 2     
   16    6   22 1     
   17    8    9 1     
   18    9   10 ar    
   19    9   14 ar    
   20   10   11 ar    
   21   10   23 1     
   22   11   12 ar    
   23   11   24 1     
   24   12   13 ar    
   25   12   25 1     
   26   13   14 ar    
   27   13   26 1     
@<TRIPOS>SUBSTRUCTURE
      1 ****           1
@<TRIPOS>COMMENT
> <Gold.Version>
2022.2.0

> <Gold.Id.Protein>
1qkm|1qkm_protein|mol2

> <Gold.Protein.RotatedTorsions>
[  496  491  490  487 ] final  -55.26 input  -89.99 | X-H torsion

> <Gold.Protein.ActiveResidues>
 MET295  LEU298  THR299  LEU301  ALA302  GLU305  TRP335  MET336  LEU339  MET340 
 GLY342  LEU343  ARG346  PHE356  ILE373  ILE376  PHE377  LEU380  LYS471  GLY472 
 MET473  HIS475  LEU476  LEU477  ASN478  MET479  VAL484  VAL487 

> <Gold.Protein.RotatedAtoms>
   36.4614   34.7222   41.5534 H   0  0  0  0  0  0  0  0  0  0  0  0  # atno 496  bound_to 491 

> <Gold.Score>
     Score     S(PLP)   S(hbond)     S(cho)   S(metal)  DE(clash)   DE(tors)     intcor
     43.12     -44.98       0.00       0.00       0.00       0.00       0.93       0.00

> <Gold.PLP.Fitness>
43.1193

> <Gold.PLP.PLP>
-44.9787

> <Gold.PLP.part.hbond>
0.0000

> <Gold.PLP.part.metal>
0.0000

> <Gold.PLP.part.buried>
-2.7664

> <Gold.PLP.part.nonpolar>
-42.0359

> <Gold.PLP.part.repulsive>
0.0916

> <Gold.PLP.ligand.clash>
0.0000

> <Gold.PLP.ligand.torsion>
0.9298

> <Gold.PLP.Chemscore.Hbond>
0.0000

> <Gold.PLP.Chemscore.CHOScore>
0.0000

> <Gold.PLP.Chemscore.Metal>
0.0000

> <Gold.PLP.Chemscore.Internal.Correction>
0.0002

