#       Name:                EN300-40334_i001
#       Creating user name   aseyller
#       Creation time:       Fri Apr 21 17:35:23 2023


#       File generated by GOLD software.
#

@<TRIPOS>MOLECULE
EN300-40334_i001|benzaldehydes|mol2|293|dock3
    26    27     1
SMALL
USER_CHARGES


@<TRIPOS>ATOM
      1 C1          27.2842  36.0779  38.7947 C.3            1 <1>                0.0000
      2 C2          28.3462  37.0658  39.2816 C.3            1 <1>                0.0000
      3 C3          28.7721  36.6964  40.7040 C.3            1 <1>                0.0000
      4 N4          29.5097  37.0092  38.3933 N.pl3          1 <1>                0.0000
      5 C5          29.9099  37.9802  37.5102 C.2            1 <1>                0.0000
      6 C6          29.2281  39.2676  37.2994 C.2            1 <1>                0.0000
      7 O7          29.7278  40.1081  36.5824 O.2            1 <1>                0.0000
      8 N8          30.9920  37.5870  36.8826 N.2            1 <1>                0.0000
      9 C9          31.3482  36.3658  37.3127 C.ar           1 <1>                0.0000
     10 C10         32.4010  35.4984  36.9857 C.ar           1 <1>                0.0000
     11 C11         32.5042  34.2902  37.6093 C.ar           1 <1>                0.0000
     12 C12         31.5761  33.9042  38.5694 C.ar           1 <1>                0.0000
     13 C13         30.5329  34.7366  38.9092 C.ar           1 <1>                0.0000
     14 C14         30.4106  35.9756  38.2911 C.ar           1 <1>                0.0000
     15 H15         26.4184  36.1200  39.4556 H              1 <1>                0.0000
     16 H16         26.9807  36.3410  37.7813 H              1 <1>                0.0000
     17 H17         27.6967  35.0690  38.8000 H              1 <1>                0.0000
     18 H18         27.9337  38.0746  39.2764 H              1 <1>                0.0000
     19 H19         29.1847  35.6875  40.7094 H              1 <1>                0.0000
     20 H20         29.5288  37.4001  41.0510 H              1 <1>                0.0000
     21 H21         27.9065  36.7385  41.3650 H              1 <1>                0.0000
     22 H22         28.2827  39.4637  37.7834 H              1 <1>                0.0000
     23 H23         33.1283  35.7869  36.2411 H              1 <1>                0.0000
     24 H24         33.3163  33.6255  37.3542 H              1 <1>                0.0000
     25 H25         31.6737  32.9432  39.0527 H              1 <1>                0.0000
     26 H26         29.8154  34.4298  39.6557 H              1 <1>                0.0000
@<TRIPOS>BOND
    1    1    2 1     
    2    1   15 1     
    3    1   16 1     
    4    1   17 1     
    5    2    3 1     
    6    2    4 1     
    7    2   18 1     
    8    3   19 1     
    9    3   20 1     
   10    3   21 1     
   11    4    5 1     
   12    4   14 1     
   13    5    6 1     
   14    5    8 2     
   15    6    7 2     
   16    6   22 1     
   17    8    9 1     
   18    9   10 ar    
   19    9   14 ar    
   20   10   11 ar    
   21   10   23 1     
   22   11   12 ar    
   23   11   24 1     
   24   12   13 ar    
   25   12   25 1     
   26   13   14 ar    
   27   13   26 1     
@<TRIPOS>SUBSTRUCTURE
      1 ****           1
@<TRIPOS>COMMENT
> <Gold.Version>
2022.2.0

> <Gold.Id.Protein>
1qkm|1qkm_protein|mol2

> <Gold.Protein.RotatedTorsions>
[  496  491  490  487 ] final   98.91 input  -89.99 | X-H torsion

> <Gold.Protein.ActiveResidues>
 MET295  LEU298  THR299  LEU301  ALA302  GLU305  TRP335  MET336  LEU339  MET340 
 GLY342  LEU343  ARG346  PHE356  ILE373  ILE376  PHE377  LEU380  LYS471  GLY472 
 MET473  HIS475  LEU476  LEU477  ASN478  MET479  VAL484  VAL487 

> <Gold.Protein.RotatedAtoms>
   36.9018   32.9736   41.9125 H   0  0  0  0  0  0  0  0  0  0  0  0  # atno 496  bound_to 491 

> <Gold.Score>
     Score     S(PLP)   S(hbond)     S(cho)   S(metal)  DE(clash)   DE(tors)     intcor
     46.16     -46.57       0.00       0.00       0.00       0.00       0.21       0.00

> <Gold.PLP.Fitness>
46.1551

> <Gold.PLP.PLP>
-46.5725

> <Gold.PLP.part.hbond>
0.0000

> <Gold.PLP.part.metal>
0.0000

> <Gold.PLP.part.buried>
-3.3677

> <Gold.PLP.part.nonpolar>
-43.0421

> <Gold.PLP.part.repulsive>
0.0000

> <Gold.PLP.ligand.clash>
0.0000

> <Gold.PLP.ligand.torsion>
0.2088

> <Gold.PLP.Chemscore.Hbond>
0.0000

> <Gold.PLP.Chemscore.CHOScore>
0.0000

> <Gold.PLP.Chemscore.Metal>
0.0000

> <Gold.PLP.Chemscore.Internal.Correction>
0.0002

