#       Name:                EN300-40334_i001
#       Creating user name   aseyller
#       Creation time:       Fri Apr 21 17:35:22 2023


#       File generated by GOLD software.
#

@<TRIPOS>MOLECULE
EN300-40334_i001|benzaldehydes|mol2|293|dock1
    26    27     1
SMALL
USER_CHARGES


@<TRIPOS>ATOM
      1 C1          30.1346  39.3174  37.0356 C.3            1 <1>                0.0000
      2 C2          29.2947  38.0808  36.7094 C.3            1 <1>                0.0000
      3 C3          30.0016  37.2535  35.6339 C.3            1 <1>                0.0000
      4 N4          29.1289  37.2703  37.9185 N.pl3          1 <1>                0.0000
      5 C5          30.0991  36.5262  38.5413 C.2            1 <1>                0.0000
      6 C6          31.4972  36.4120  38.0948 C.2            1 <1>                0.0000
      7 O7          32.1758  35.4760  38.4605 O.2            1 <1>                0.0000
      8 N8          29.5917  35.9324  39.5945 N.2            1 <1>                0.0000
      9 C9          28.2924  36.2499  39.7131 C.ar           1 <1>                0.0000
     10 C10         27.2957  35.9008  40.6365 C.ar           1 <1>                0.0000
     11 C11         26.0331  36.3950  40.4923 C.ar           1 <1>                0.0000
     12 C12         25.7182  37.2441  39.4378 C.ar           1 <1>                0.0000
     13 C13         26.6776  37.6027  38.5172 C.ar           1 <1>                0.0000
     14 C14         27.9732  37.1161  38.6471 C.ar           1 <1>                0.0000
     15 H15         30.2579  39.9205  36.1361 H              1 <1>                0.0000
     16 H16         29.6310  39.9068  37.8019 H              1 <1>                0.0000
     17 H17         31.1130  39.0060  37.4013 H              1 <1>                0.0000
     18 H18         28.3163  38.3922  36.3437 H              1 <1>                0.0000
     19 H19         30.9801  36.9421  35.9995 H              1 <1>                0.0000
     20 H20         29.4034  36.3725  35.4015 H              1 <1>                0.0000
     21 H21         30.1250  37.8566  34.7343 H              1 <1>                0.0000
     22 H22         31.9185  37.1617  37.4416 H              1 <1>                0.0000
     23 H23         27.5281  35.2416  41.4599 H              1 <1>                0.0000
     24 H24         25.2689  36.1233  41.2054 H              1 <1>                0.0000
     25 H25         24.7125  37.6256  39.3394 H              1 <1>                0.0000
     26 H26         26.4255  38.2626  37.7003 H              1 <1>                0.0000
@<TRIPOS>BOND
    1    1    2 1     
    2    1   15 1     
    3    1   16 1     
    4    1   17 1     
    5    2    3 1     
    6    2    4 1     
    7    2   18 1     
    8    3   19 1     
    9    3   20 1     
   10    3   21 1     
   11    4    5 1     
   12    4   14 1     
   13    5    6 1     
   14    5    8 2     
   15    6    7 2     
   16    6   22 1     
   17    8    9 1     
   18    9   10 ar    
   19    9   14 ar    
   20   10   11 ar    
   21   10   23 1     
   22   11   12 ar    
   23   11   24 1     
   24   12   13 ar    
   25   12   25 1     
   26   13   14 ar    
   27   13   26 1     
@<TRIPOS>SUBSTRUCTURE
      1 ****           1
@<TRIPOS>COMMENT
> <Gold.Version>
2022.2.0

> <Gold.Id.Protein>
1qkm|1qkm_protein|mol2

> <Gold.Protein.RotatedTorsions>
[  496  491  490  487 ] final  -39.32 input  -89.99 | X-H torsion

> <Gold.Protein.ActiveResidues>
 MET295  LEU298  THR299  LEU301  ALA302  GLU305  TRP335  MET336  LEU339  MET340 
 GLY342  LEU343  ARG346  PHE356  ILE373  ILE376  PHE377  LEU380  LYS471  GLY472 
 MET473  HIS475  LEU476  LEU477  ASN478  MET479  VAL484  VAL487 

> <Gold.Protein.RotatedAtoms>
   36.3596   34.6454   41.7817 H   0  0  0  0  0  0  0  0  0  0  0  0  # atno 496  bound_to 491 

> <Gold.Score>
     Score     S(PLP)   S(hbond)     S(cho)   S(metal)  DE(clash)   DE(tors)     intcor
     47.06     -47.70       0.00       0.00       0.00       0.00       0.32       0.00

> <Gold.PLP.Fitness>
47.0574

> <Gold.PLP.PLP>
-47.7010

> <Gold.PLP.part.hbond>
0.0000

> <Gold.PLP.part.metal>
0.0000

> <Gold.PLP.part.buried>
-3.8628

> <Gold.PLP.part.nonpolar>
-44.8681

> <Gold.PLP.part.repulsive>
0.1558

> <Gold.PLP.ligand.clash>
0.0000

> <Gold.PLP.ligand.torsion>
0.3219

> <Gold.PLP.Chemscore.Hbond>
0.0000

> <Gold.PLP.Chemscore.CHOScore>
0.0000

> <Gold.PLP.Chemscore.Metal>
0.0000

> <Gold.PLP.Chemscore.Internal.Correction>
0.0002

