#       Name:                EN300-40334_i001
#       Creating user name   aseyller
#       Creation time:       Fri Apr 21 17:35:29 2023


#       File generated by GOLD software.
#

@<TRIPOS>MOLECULE
EN300-40334_i001|benzaldehydes|mol2|293|dock15
    26    27     1
SMALL
USER_CHARGES


@<TRIPOS>ATOM
      1 C1          30.1107  40.0532  37.0103 C.3            1 <1>                0.0000
      2 C2          29.3782  38.8720  36.3708 C.3            1 <1>                0.0000
      3 C3          30.0954  38.4643  35.0823 C.3            1 <1>                0.0000
      4 N4          29.3679  37.7415  37.3025 N.pl3          1 <1>                0.0000
      5 C5          28.3045  37.3171  38.0587 C.2            1 <1>                0.0000
      6 C6          26.9682  37.9346  38.0645 C.2            1 <1>                0.0000
      7 O7          26.1139  37.5242  38.8208 O.2            1 <1>                0.0000
      8 N8          28.6593  36.2779  38.7753 N.2            1 <1>                0.0000
      9 C9          29.9445  35.9750  38.5309 C.ar           1 <1>                0.0000
     10 C10         30.8088  34.9813  39.0140 C.ar           1 <1>                0.0000
     11 C11         32.0955  34.9242  38.5665 C.ar           1 <1>                0.0000
     12 C12         32.5652  35.8414  37.6336 C.ar           1 <1>                0.0000
     13 C13         31.7377  36.8270  37.1430 C.ar           1 <1>                0.0000
     14 C14         30.4203  36.9013  37.5801 C.ar           1 <1>                0.0000
     15 H15         30.1184  40.8944  36.3172 H              1 <1>                0.0000
     16 H16         29.5997  40.3437  37.9284 H              1 <1>                0.0000
     17 H17         31.1357  39.7633  37.2412 H              1 <1>                0.0000
     18 H18         28.3532  39.1619  36.1399 H              1 <1>                0.0000
     19 H19         31.1205  38.1743  35.3131 H              1 <1>                0.0000
     20 H20         29.5737  37.6227  34.6267 H              1 <1>                0.0000
     21 H21         30.1031  39.3054  34.3891 H              1 <1>                0.0000
     22 H22         26.7486  38.7532  37.3951 H              1 <1>                0.0000
     23 H23         30.4557  34.2631  39.7393 H              1 <1>                0.0000
     24 H24         32.7575  34.1576  38.9414 H              1 <1>                0.0000
     25 H25         33.5876  35.7808  37.2909 H              1 <1>                0.0000
     26 H26         32.1097  37.5364  36.4187 H              1 <1>                0.0000
@<TRIPOS>BOND
    1    1    2 1     
    2    1   15 1     
    3    1   16 1     
    4    1   17 1     
    5    2    3 1     
    6    2    4 1     
    7    2   18 1     
    8    3   19 1     
    9    3   20 1     
   10    3   21 1     
   11    4    5 1     
   12    4   14 1     
   13    5    6 1     
   14    5    8 2     
   15    6    7 2     
   16    6   22 1     
   17    8    9 1     
   18    9   10 ar    
   19    9   14 ar    
   20   10   11 ar    
   21   10   23 1     
   22   11   12 ar    
   23   11   24 1     
   24   12   13 ar    
   25   12   25 1     
   26   13   14 ar    
   27   13   26 1     
@<TRIPOS>SUBSTRUCTURE
      1 ****           1
@<TRIPOS>COMMENT
> <Gold.Version>
2022.2.0

> <Gold.Id.Protein>
1qkm|1qkm_protein|mol2

> <Gold.Protein.RotatedTorsions>
[  496  491  490  487 ] final   29.94 input  -89.99 | X-H torsion

> <Gold.Protein.ActiveResidues>
 MET295  LEU298  THR299  LEU301  ALA302  GLU305  TRP335  MET336  LEU339  MET340 
 GLY342  LEU343  ARG346  PHE356  ILE373  ILE376  PHE377  LEU380  LYS471  GLY472 
 MET473  HIS475  LEU476  LEU477  ASN478  MET479  VAL484  VAL487 

> <Gold.Protein.RotatedAtoms>
   36.3460   33.7564   42.3805 H   0  0  0  0  0  0  0  0  0  0  0  0  # atno 496  bound_to 491 

> <Gold.Score>
     Score     S(PLP)   S(hbond)     S(cho)   S(metal)  DE(clash)   DE(tors)     intcor
     43.09     -43.94       0.00       0.00       0.00       0.00       0.43       0.00

> <Gold.PLP.Fitness>
43.0874

> <Gold.PLP.PLP>
-43.9398

> <Gold.PLP.part.hbond>
0.0000

> <Gold.PLP.part.metal>
0.0000

> <Gold.PLP.part.buried>
-2.3483

> <Gold.PLP.part.nonpolar>
-42.3728

> <Gold.PLP.part.repulsive>
0.0617

> <Gold.PLP.ligand.clash>
0.0000

> <Gold.PLP.ligand.torsion>
0.4263

> <Gold.PLP.Chemscore.Hbond>
0.0000

> <Gold.PLP.Chemscore.CHOScore>
0.0000

> <Gold.PLP.Chemscore.Metal>
0.0000

> <Gold.PLP.Chemscore.Internal.Correction>
0.0002

