#       Name:                EN300-40334_i001
#       Creating user name   aseyller
#       Creation time:       Fri Apr 21 17:35:22 2023


#       File generated by GOLD software.
#

@<TRIPOS>MOLECULE
EN300-40334_i001
    26    27     1
SMALL
USER_CHARGES


@<TRIPOS>ATOM
      1 C1           2.0346  -1.2158  -1.2490 C.3            1 <1>                0.0000
      2 C2           1.1514  -1.1919   0.0001 C.3            1 <1>                0.0000
      3 C3           2.0343  -1.2163   1.2494 C.3            1 <1>                0.0000
      4 N4           0.3387   0.0270   0.0003 N.pl3          1 <1>                0.0000
      5 C5           0.8040   1.3178   0.0001 C.2            1 <1>                0.0000
      6 C6           2.2236   1.7073  -0.0003 C.2            1 <1>                0.0000
      7 O7           2.5304   2.8804  -0.0005 O.2            1 <1>                0.0000
      8 N8          -0.2079   2.1517   0.0004 N.2            1 <1>                0.0000
      9 C9          -1.3621   1.4654   0.0007 C.ar           1 <1>                0.0000
     10 C10         -2.7113   1.8494   0.0004 C.ar           1 <1>                0.0000
     11 C11         -3.6882   0.8981   0.0001 C.ar           1 <1>                0.0000
     12 C12         -3.3642  -0.4536   0.0000 C.ar           1 <1>                0.0000
     13 C13         -2.0477  -0.8579   0.0003 C.ar           1 <1>                0.0000
     14 C14         -1.0346   0.0938  -0.0054 C.ar           1 <1>                0.0000
     15 H15          2.6393  -2.1227  -1.2492 H              1 <1>                0.0000
     16 H16          1.4056  -1.1984  -2.1391 H              1 <1>                0.0000
     17 H17          2.6880  -0.3434  -1.2488 H              1 <1>                0.0000
     18 H18          0.4980  -2.0643  -0.0001 H              1 <1>                0.0000
     19 H19          2.6878  -0.3439   1.2497 H              1 <1>                0.0000
     20 H20          1.4052  -1.1992   2.1394 H              1 <1>                0.0000
     21 H21          2.6390  -2.1232   1.2493 H              1 <1>                0.0000
     22 H22          2.9919   0.9483  -0.0005 H              1 <1>                0.0000
     23 H23         -2.9757   2.8966   0.0008 H              1 <1>                0.0000
     24 H24         -4.7256   1.1984   0.0002 H              1 <1>                0.0000
     25 H25         -4.1515  -1.1930   0.0001 H              1 <1>                0.0000
     26 H26         -1.8035  -1.9099   0.0006 H              1 <1>                0.0000
@<TRIPOS>BOND
    1    1    2 1     
    2    1   15 1     
    3    1   16 1     
    4    1   17 1     
    5    2    3 1     
    6    2    4 1     
    7    2   18 1     
    8    3   19 1     
    9    3   20 1     
   10    3   21 1     
   11    4    5 1     
   12    4   14 1     
   13    5    6 1     
   14    5    8 2     
   15    6    7 2     
   16    6   22 1     
   17    8    9 1     
   18    9   10 ar    
   19    9   14 ar    
   20   10   11 ar    
   21   10   23 1     
   22   11   12 ar    
   23   11   24 1     
   24   12   13 ar    
   25   12   25 1     
   26   13   14 ar    
   27   13   26 1     
@<TRIPOS>SUBSTRUCTURE
      1 ****           1
