#       Name:                EN300-40334_i001
#       Creating user name   aseyller
#       Creation time:       Fri Apr 21 17:35:26 2023


#       File generated by GOLD software.
#

@<TRIPOS>MOLECULE
EN300-40334_i001|benzaldehydes|mol2|293|dock9
    26    27     1
SMALL
USER_CHARGES


@<TRIPOS>ATOM
      1 C1          30.0997  37.6469  35.1130 C.3            1 <1>                0.0000
      2 C2          30.8447  38.1277  36.3598 C.3            1 <1>                0.0000
      3 C3          30.3168  39.5038  36.7704 C.3            1 <1>                0.0000
      4 N4          30.6311  37.1766  37.4534 N.pl3          1 <1>                0.0000
      5 C5          31.5731  36.3489  38.0105 C.2            1 <1>                0.0000
      6 C6          32.9843  36.2723  37.5987 C.2            1 <1>                0.0000
      7 O7          33.2869  36.4417  36.4368 O.2            1 <1>                0.0000
      8 N8          31.0252  35.6364  38.9653 N.2            1 <1>                0.0000
      9 C9          29.7255  35.9538  39.0802 C.ar           1 <1>                0.0000
     10 C10         28.6953  35.5066  39.9207 C.ar           1 <1>                0.0000
     11 C11         27.4427  36.0312  39.7979 C.ar           1 <1>                0.0000
     12 C12         27.1710  37.0079  38.8469 C.ar           1 <1>                0.0000
     13 C13         28.1641  37.4646  38.0091 C.ar           1 <1>                0.0000
     14 C14         29.4501  36.9489  38.1197 C.ar           1 <1>                0.0000
     15 H15         30.2586  38.3546  34.2993 H              1 <1>                0.0000
     16 H16         30.4758  36.6665  34.8204 H              1 <1>                0.0000
     17 H17         29.0340  37.5771  35.3308 H              1 <1>                0.0000
     18 H18         31.9104  38.1976  36.1420 H              1 <1>                0.0000
     19 H19         29.2511  39.4340  36.9883 H              1 <1>                0.0000
     20 H20         30.8475  39.8463  37.6588 H              1 <1>                0.0000
     21 H21         30.4758  40.2115  35.9568 H              1 <1>                0.0000
     22 H22         33.7502  36.0651  38.3314 H              1 <1>                0.0000
     23 H23         28.8938  34.7480  40.6634 H              1 <1>                0.0000
     24 H24         26.6525  35.6837  40.4470 H              1 <1>                0.0000
     25 H25         26.1727  37.4116  38.7639 H              1 <1>                0.0000
     26 H26         27.9456  38.2233  37.2723 H              1 <1>                0.0000
@<TRIPOS>BOND
    1    1    2 1     
    2    1   15 1     
    3    1   16 1     
    4    1   17 1     
    5    2    3 1     
    6    2    4 1     
    7    2   18 1     
    8    3   19 1     
    9    3   20 1     
   10    3   21 1     
   11    4    5 1     
   12    4   14 1     
   13    5    6 1     
   14    5    8 2     
   15    6    7 2     
   16    6   22 1     
   17    8    9 1     
   18    9   10 ar    
   19    9   14 ar    
   20   10   11 ar    
   21   10   23 1     
   22   11   12 ar    
   23   11   24 1     
   24   12   13 ar    
   25   12   25 1     
   26   13   14 ar    
   27   13   26 1     
@<TRIPOS>SUBSTRUCTURE
      1 ****           1
@<TRIPOS>COMMENT
> <Gold.Version>
2022.2.0

> <Gold.Id.Protein>
1qkm|1qkm_protein|mol2

> <Gold.Protein.RotatedTorsions>
[  496  491  490  487 ] final   63.41 input  -89.99 | X-H torsion

> <Gold.Protein.ActiveResidues>
 MET295  LEU298  THR299  LEU301  ALA302  GLU305  TRP335  MET336  LEU339  MET340 
 GLY342  LEU343  ARG346  PHE356  ILE373  ILE376  PHE377  LEU380  LYS471  GLY472 
 MET473  HIS475  LEU476  LEU477  ASN478  MET479  VAL484  VAL487 

> <Gold.Protein.RotatedAtoms>
   36.5801   33.2766   42.2806 H   0  0  0  0  0  0  0  0  0  0  0  0  # atno 496  bound_to 491 

> <Gold.Score>
     Score     S(PLP)   S(hbond)     S(cho)   S(metal)  DE(clash)   DE(tors)     intcor
     42.20     -42.94       0.00       0.00       0.00       0.00       0.37       0.00

> <Gold.PLP.Fitness>
42.1975

> <Gold.PLP.PLP>
-42.9428

> <Gold.PLP.part.hbond>
0.0000

> <Gold.PLP.part.metal>
0.0000

> <Gold.PLP.part.buried>
-2.5003

> <Gold.PLP.part.nonpolar>
-41.0726

> <Gold.PLP.part.repulsive>
0.1110

> <Gold.PLP.ligand.clash>
0.0000

> <Gold.PLP.ligand.torsion>
0.3728

> <Gold.PLP.Chemscore.Hbond>
0.0000

> <Gold.PLP.Chemscore.CHOScore>
0.0000

> <Gold.PLP.Chemscore.Metal>
0.0000

> <Gold.PLP.Chemscore.Internal.Correction>
0.0002

