#       Name:                EN300-40334_i001
#       Creating user name   aseyller
#       Creation time:       Fri Apr 21 17:35:32 2023


#       File generated by GOLD software.
#

@<TRIPOS>MOLECULE
EN300-40334_i001|benzaldehydes|mol2|293|dock19
    26    27     1
SMALL
USER_CHARGES


@<TRIPOS>ATOM
      1 C1          28.5535  36.9427  41.8473 C.3            1 <1>                0.0000
      2 C2          28.6851  35.8951  40.7400 C.3            1 <1>                0.0000
      3 C3          27.5865  34.8425  40.9006 C.3            1 <1>                0.0000
      4 N4          28.5510  36.5454  39.4341 N.pl3          1 <1>                0.0000
      5 C5          27.4007  37.0644  38.8954 C.2            1 <1>                0.0000
      6 C6          26.0809  37.0572  39.5472 C.2            1 <1>                0.0000
      7 O7          26.0020  37.0875  40.7568 O.2            1 <1>                0.0000
      8 N8          27.6557  37.5676  37.7117 N.2            1 <1>                0.0000
      9 C9          28.9568  37.4078  37.4208 C.ar           1 <1>                0.0000
     10 C10         29.7460  37.7533  36.3137 C.ar           1 <1>                0.0000
     11 C11         31.0760  37.4525  36.3073 C.ar           1 <1>                0.0000
     12 C12         31.6637  36.8053  37.3880 C.ar           1 <1>                0.0000
     13 C13         30.9119  36.4550  38.4874 C.ar           1 <1>                0.0000
     14 C14         29.5554  36.7566  38.5191 C.ar           1 <1>                0.0000
     15 H15         28.6533  36.4589  42.8189 H              1 <1>                0.0000
     16 H16         29.3362  37.6927  41.7328 H              1 <1>                0.0000
     17 H17         27.5775  37.4229  41.7790 H              1 <1>                0.0000
     18 H18         29.6612  35.4149  40.8082 H              1 <1>                0.0000
     19 H19         26.6103  35.3227  40.8324 H              1 <1>                0.0000
     20 H20         27.6801  34.0962  40.1118 H              1 <1>                0.0000
     21 H21         27.6862  34.3586  41.8723 H              1 <1>                0.0000
     22 H22         25.1828  37.0248  38.9482 H              1 <1>                0.0000
     23 H23         29.3008  38.2561  35.4678 H              1 <1>                0.0000
     24 H24         31.6796  37.7201  35.4527 H              1 <1>                0.0000
     25 H25         32.7186  36.5749  37.3651 H              1 <1>                0.0000
     26 H26         31.3752  35.9520  39.3232 H              1 <1>                0.0000
@<TRIPOS>BOND
    1    1    2 1     
    2    1   15 1     
    3    1   16 1     
    4    1   17 1     
    5    2    3 1     
    6    2    4 1     
    7    2   18 1     
    8    3   19 1     
    9    3   20 1     
   10    3   21 1     
   11    4    5 1     
   12    4   14 1     
   13    5    6 1     
   14    5    8 2     
   15    6    7 2     
   16    6   22 1     
   17    8    9 1     
   18    9   10 ar    
   19    9   14 ar    
   20   10   11 ar    
   21   10   23 1     
   22   11   12 ar    
   23   11   24 1     
   24   12   13 ar    
   25   12   25 1     
   26   13   14 ar    
   27   13   26 1     
@<TRIPOS>SUBSTRUCTURE
      1 ****           1
@<TRIPOS>COMMENT
> <Gold.Version>
2022.2.0

> <Gold.Id.Protein>
1qkm|1qkm_protein|mol2

> <Gold.Protein.RotatedTorsions>
[  496  491  490  487 ] final    7.12 input  -89.99 | X-H torsion

> <Gold.Protein.ActiveResidues>
 MET295  LEU298  THR299  LEU301  ALA302  GLU305  TRP335  MET336  LEU339  MET340 
 GLY342  LEU343  ARG346  PHE356  ILE373  ILE376  PHE377  LEU380  LYS471  GLY472 
 MET473  HIS475  LEU476  LEU477  ASN478  MET479  VAL484  VAL487 

> <Gold.Protein.RotatedAtoms>
   36.2677   34.1096   42.2893 H   0  0  0  0  0  0  0  0  0  0  0  0  # atno 496  bound_to 491 

> <Gold.Score>
     Score     S(PLP)   S(hbond)     S(cho)   S(metal)  DE(clash)   DE(tors)     intcor
     41.63     -42.46       0.00       0.00       0.00       0.00       0.41       0.00

> <Gold.PLP.Fitness>
41.6325

> <Gold.PLP.PLP>
-42.4597

> <Gold.PLP.part.hbond>
0.0000

> <Gold.PLP.part.metal>
0.0000

> <Gold.PLP.part.buried>
-3.5784

> <Gold.PLP.part.nonpolar>
-39.4886

> <Gold.PLP.part.repulsive>
0.1180

> <Gold.PLP.ligand.clash>
0.0000

> <Gold.PLP.ligand.torsion>
0.4137

> <Gold.PLP.Chemscore.Hbond>
0.0000

> <Gold.PLP.Chemscore.CHOScore>
0.0000

> <Gold.PLP.Chemscore.Metal>
0.0000

> <Gold.PLP.Chemscore.Internal.Correction>
0.0002

