#       Name:                EN300-40334_i001
#       Creating user name   aseyller
#       Creation time:       Fri Apr 21 17:35:32 2023


#       File generated by GOLD software.
#

@<TRIPOS>MOLECULE
EN300-40334_i001|benzaldehydes|mol2|293|dock20
    26    27     1
SMALL
USER_CHARGES


@<TRIPOS>ATOM
      1 C1          28.2083  36.0208  38.3082 C.3            1 <1>                0.0000
      2 C2          29.3582  37.0133  38.4912 C.3            1 <1>                0.0000
      3 C3          29.8110  37.0054  39.9526 C.3            1 <1>                0.0000
      4 N4          30.4789  36.6262  37.6307 N.pl3          1 <1>                0.0000
      5 C5          31.2604  35.5062  37.7633 C.2            1 <1>                0.0000
      6 C6          31.1051  34.4832  38.8103 C.2            1 <1>                0.0000
      7 O7          31.8004  33.4899  38.7953 O.2            1 <1>                0.0000
      8 N8          32.1665  35.4856  36.8158 N.2            1 <1>                0.0000
      9 C9          32.0282  36.5667  36.0314 C.ar           1 <1>                0.0000
     10 C10         32.7151  37.0299  34.8993 C.ar           1 <1>                0.0000
     11 C11         32.3326  38.1945  34.3022 C.ar           1 <1>                0.0000
     12 C12         31.2662  38.9329  34.8019 C.ar           1 <1>                0.0000
     13 C13         30.5748  38.5009  35.9119 C.ar           1 <1>                0.0000
     14 C14         30.9428  37.3136  36.5340 C.ar           1 <1>                0.0000
     15 H15         27.3744  36.3088  38.9484 H              1 <1>                0.0000
     16 H16         27.8857  36.0264  37.2670 H              1 <1>                0.0000
     17 H17         28.5454  35.0202  38.5787 H              1 <1>                0.0000
     18 H18         29.0211  38.0139  38.2207 H              1 <1>                0.0000
     19 H19         30.1481  36.0048  40.2233 H              1 <1>                0.0000
     20 H20         30.6303  37.7124  40.0831 H              1 <1>                0.0000
     21 H21         28.9772  37.2934  40.5929 H              1 <1>                0.0000
     22 H22         30.3719  34.6172  39.5919 H              1 <1>                0.0000
     23 H23         33.5455  36.4652  34.5018 H              1 <1>                0.0000
     24 H24         32.8645  38.5474  33.4310 H              1 <1>                0.0000
     25 H25         30.9777  39.8533  34.3159 H              1 <1>                0.0000
     26 H26         29.7476  39.0800  36.2948 H              1 <1>                0.0000
@<TRIPOS>BOND
    1    1    2 1     
    2    1   15 1     
    3    1   16 1     
    4    1   17 1     
    5    2    3 1     
    6    2    4 1     
    7    2   18 1     
    8    3   19 1     
    9    3   20 1     
   10    3   21 1     
   11    4    5 1     
   12    4   14 1     
   13    5    6 1     
   14    5    8 2     
   15    6    7 2     
   16    6   22 1     
   17    8    9 1     
   18    9   10 ar    
   19    9   14 ar    
   20   10   11 ar    
   21   10   23 1     
   22   11   12 ar    
   23   11   24 1     
   24   12   13 ar    
   25   12   25 1     
   26   13   14 ar    
   27   13   26 1     
@<TRIPOS>SUBSTRUCTURE
      1 ****           1
@<TRIPOS>COMMENT
> <Gold.Version>
2022.2.0

> <Gold.Id.Protein>
1qkm|1qkm_protein|mol2

> <Gold.Protein.RotatedTorsions>
[  496  491  490  487 ] final   91.82 input  -89.99 | X-H torsion

> <Gold.Protein.ActiveResidues>
 MET295  LEU298  THR299  LEU301  ALA302  GLU305  TRP335  MET336  LEU339  MET340 
 GLY342  LEU343  ARG346  PHE356  ILE373  ILE376  PHE377  LEU380  LYS471  GLY472 
 MET473  HIS475  LEU476  LEU477  ASN478  MET479  VAL484  VAL487 

> <Gold.Protein.RotatedAtoms>
   36.8370   33.0104   42.0022 H   0  0  0  0  0  0  0  0  0  0  0  0  # atno 496  bound_to 491 

> <Gold.Score>
     Score     S(PLP)   S(hbond)     S(cho)   S(metal)  DE(clash)   DE(tors)     intcor
     42.66     -42.90       0.00       0.00       0.00       0.00       0.12       0.00

> <Gold.PLP.Fitness>
42.6581

> <Gold.PLP.PLP>
-42.8987

> <Gold.PLP.part.hbond>
0.0000

> <Gold.PLP.part.metal>
0.0000

> <Gold.PLP.part.buried>
-3.5064

> <Gold.PLP.part.nonpolar>
-39.8751

> <Gold.PLP.part.repulsive>
0.0990

> <Gold.PLP.ligand.clash>
0.0000

> <Gold.PLP.ligand.torsion>
0.1204

> <Gold.PLP.Chemscore.Hbond>
0.0000

> <Gold.PLP.Chemscore.CHOScore>
0.0000

> <Gold.PLP.Chemscore.Metal>
0.0000

> <Gold.PLP.Chemscore.Internal.Correction>
0.0002

