#       Name:                EN300-40334_i001
#       Creating user name   aseyller
#       Creation time:       Fri Apr 21 17:35:27 2023


#       File generated by GOLD software.
#

@<TRIPOS>MOLECULE
EN300-40334_i001|benzaldehydes|mol2|293|dock11
    26    27     1
SMALL
USER_CHARGES


@<TRIPOS>ATOM
      1 C1          31.6096  34.1801  38.0181 C.3            1 <1>                0.0000
      2 C2          31.4684  35.4881  38.7991 C.3            1 <1>                0.0000
      3 C3          32.5995  36.4408  38.4068 C.3            1 <1>                0.0000
      4 N4          30.1780  36.1070  38.4859 N.pl3          1 <1>                0.0000
      5 C5          29.8245  36.7014  37.3008 C.2            1 <1>                0.0000
      6 C6          30.6951  36.8220  36.1200 C.2            1 <1>                0.0000
      7 O7          30.3409  37.4888  35.1712 O.2            1 <1>                0.0000
      8 N8          28.5934  37.1458  37.3800 N.2            1 <1>                0.0000
      9 C9          28.0886  36.8714  38.5937 C.ar           1 <1>                0.0000
     10 C10         26.8467  37.1160  39.1984 C.ar           1 <1>                0.0000
     11 C11         26.6227  36.7066  40.4795 C.ar           1 <1>                0.0000
     12 C12         27.6126  36.0467  41.1984 C.ar           1 <1>                0.0000
     13 C13         28.8407  35.7939  40.6287 C.ar           1 <1>                0.0000
     14 C14         29.0901  36.1967  39.3219 C.ar           1 <1>                0.0000
     15 H15         32.5697  33.7195  38.2511 H              1 <1>                0.0000
     16 H16         30.8038  33.5013  38.2975 H              1 <1>                0.0000
     17 H17         31.5559  34.3873  36.9494 H              1 <1>                0.0000
     18 H18         31.5222  35.2809  39.8678 H              1 <1>                0.0000
     19 H19         32.5458  36.6481  37.3381 H              1 <1>                0.0000
     20 H20         32.4990  37.3728  38.9631 H              1 <1>                0.0000
     21 H21         33.5596  35.9804  38.6399 H              1 <1>                0.0000
     22 H22         31.6493  36.3165  36.0985 H              1 <1>                0.0000
     23 H23         26.0696  37.6281  38.6502 H              1 <1>                0.0000
     24 H24         25.6651  36.8974  40.9411 H              1 <1>                0.0000
     25 H25         27.4172  35.7301  42.2123 H              1 <1>                0.0000
     26 H26         29.6052  35.2811  41.1934 H              1 <1>                0.0000
@<TRIPOS>BOND
    1    1    2 1     
    2    1   15 1     
    3    1   16 1     
    4    1   17 1     
    5    2    3 1     
    6    2    4 1     
    7    2   18 1     
    8    3   19 1     
    9    3   20 1     
   10    3   21 1     
   11    4    5 1     
   12    4   14 1     
   13    5    6 1     
   14    5    8 2     
   15    6    7 2     
   16    6   22 1     
   17    8    9 1     
   18    9   10 ar    
   19    9   14 ar    
   20   10   11 ar    
   21   10   23 1     
   22   11   12 ar    
   23   11   24 1     
   24   12   13 ar    
   25   12   25 1     
   26   13   14 ar    
   27   13   26 1     
@<TRIPOS>SUBSTRUCTURE
      1 ****           1
@<TRIPOS>COMMENT
> <Gold.Version>
2022.2.0

> <Gold.Id.Protein>
1qkm|1qkm_protein|mol2

> <Gold.Protein.RotatedTorsions>
[  496  491  490  487 ] final -143.08 input  -89.99 | X-H torsion

> <Gold.Protein.ActiveResidues>
 MET295  LEU298  THR299  LEU301  ALA302  GLU305  TRP335  MET336  LEU339  MET340 
 GLY342  LEU343  ARG346  PHE356  ILE373  ILE376  PHE377  LEU380  LYS471  GLY472 
 MET473  HIS475  LEU476  LEU477  ASN478  MET479  VAL484  VAL487 

> <Gold.Protein.RotatedAtoms>
   37.1928   34.0271   40.7208 H   0  0  0  0  0  0  0  0  0  0  0  0  # atno 496  bound_to 491 

> <Gold.Score>
     Score     S(PLP)   S(hbond)     S(cho)   S(metal)  DE(clash)   DE(tors)     intcor
     43.53     -44.02       0.00       0.00       0.00       0.00       0.24       0.00

> <Gold.PLP.Fitness>
43.5332

> <Gold.PLP.PLP>
-44.0222

> <Gold.PLP.part.hbond>
0.0000

> <Gold.PLP.part.metal>
0.0000

> <Gold.PLP.part.buried>
-3.2867

> <Gold.PLP.part.nonpolar>
-40.9775

> <Gold.PLP.part.repulsive>
0.0391

> <Gold.PLP.ligand.clash>
0.0000

> <Gold.PLP.ligand.torsion>
0.2446

> <Gold.PLP.Chemscore.Hbond>
0.0000

> <Gold.PLP.Chemscore.CHOScore>
0.0000

> <Gold.PLP.Chemscore.Metal>
0.0000

> <Gold.PLP.Chemscore.Internal.Correction>
0.0002

