#       Name:                EN300-40334_i001
#       Creating user name   aseyller
#       Creation time:       Fri Apr 21 17:35:31 2023


#       File generated by GOLD software.
#

@<TRIPOS>MOLECULE
EN300-40334_i001|benzaldehydes|mol2|293|dock18
    26    27     1
SMALL
USER_CHARGES


@<TRIPOS>ATOM
      1 C1          31.9278  33.9811  37.9103 C.3            1 <1>                0.0000
      2 C2          32.1221  35.3946  38.4625 C.3            1 <1>                0.0000
      3 C3          33.5941  35.7929  38.3377 C.3            1 <1>                0.0000
      4 N4          31.2958  36.3343  37.7007 N.pl3          1 <1>                0.0000
      5 C5          30.0641  36.8177  38.0641 C.2            1 <1>                0.0000
      6 C6          29.3484  36.4698  39.3025 C.2            1 <1>                0.0000
      7 O7          28.2866  36.9968  39.5576 O.2            1 <1>                0.0000
      8 N8          29.6213  37.6365  37.1406 N.2            1 <1>                0.0000
      9 C9          30.5201  37.7296  36.1472 C.ar           1 <1>                0.0000
     10 C10         30.5540  38.4481  34.9429 C.ar           1 <1>                0.0000
     11 C11         31.6325  38.3370  34.1159 C.ar           1 <1>                0.0000
     12 C12         32.7042  37.5178  34.4513 C.ar           1 <1>                0.0000
     13 C13         32.6964  36.8015  35.6276 C.ar           1 <1>                0.0000
     14 C14         31.6105  36.9034  36.4893 C.ar           1 <1>                0.0000
     15 H15         32.5427  33.2818  38.4771 H              1 <1>                0.0000
     16 H16         30.8791  33.6972  37.9992 H              1 <1>                0.0000
     17 H17         32.2231  33.9569  36.8614 H              1 <1>                0.0000
     18 H18         31.8269  35.4188  39.5114 H              1 <1>                0.0000
     19 H19         33.8895  35.7688  37.2887 H              1 <1>                0.0000
     20 H20         33.7326  36.8001  38.7310 H              1 <1>                0.0000
     21 H21         34.2090  35.0938  38.9045 H              1 <1>                0.0000
     22 H22         29.7691  35.7452  39.9840 H              1 <1>                0.0000
     23 H23         29.7273  39.0877  34.6711 H              1 <1>                0.0000
     24 H24         31.6541  38.8918  33.1896 H              1 <1>                0.0000
     25 H25         33.5498  37.4420  33.7837 H              1 <1>                0.0000
     26 H26         33.5324  36.1667  35.8814 H              1 <1>                0.0000
@<TRIPOS>BOND
    1    1    2 1     
    2    1   15 1     
    3    1   16 1     
    4    1   17 1     
    5    2    3 1     
    6    2    4 1     
    7    2   18 1     
    8    3   19 1     
    9    3   20 1     
   10    3   21 1     
   11    4    5 1     
   12    4   14 1     
   13    5    6 1     
   14    5    8 2     
   15    6    7 2     
   16    6   22 1     
   17    8    9 1     
   18    9   10 ar    
   19    9   14 ar    
   20   10   11 ar    
   21   10   23 1     
   22   11   12 ar    
   23   11   24 1     
   24   12   13 ar    
   25   12   25 1     
   26   13   14 ar    
   27   13   26 1     
@<TRIPOS>SUBSTRUCTURE
      1 ****           1
@<TRIPOS>COMMENT
> <Gold.Version>
2022.2.0

> <Gold.Id.Protein>
1qkm|1qkm_protein|mol2

> <Gold.Protein.RotatedTorsions>
[  496  491  490  487 ] final   23.07 input  -89.99 | X-H torsion

> <Gold.Protein.ActiveResidues>
 MET295  LEU298  THR299  LEU301  ALA302  GLU305  TRP335  MET336  LEU339  MET340 
 GLY342  LEU343  ARG346  PHE356  ILE373  ILE376  PHE377  LEU380  LYS471  GLY472 
 MET473  HIS475  LEU476  LEU477  ASN478  MET479  VAL484  VAL487 

> <Gold.Protein.RotatedAtoms>
   36.3143   33.8639   42.3665 H   0  0  0  0  0  0  0  0  0  0  0  0  # atno 496  bound_to 491 

> <Gold.Score>
     Score     S(PLP)   S(hbond)     S(cho)   S(metal)  DE(clash)   DE(tors)     intcor
     42.03     -43.28       0.00       0.00       0.00       0.00       0.62       0.00

> <Gold.PLP.Fitness>
42.0340

> <Gold.PLP.PLP>
-43.2803

> <Gold.PLP.part.hbond>
0.0000

> <Gold.PLP.part.metal>
0.0000

> <Gold.PLP.part.buried>
-2.7551

> <Gold.PLP.part.nonpolar>
-40.9574

> <Gold.PLP.part.repulsive>
0.0113

> <Gold.PLP.ligand.clash>
0.0000

> <Gold.PLP.ligand.torsion>
0.6232

> <Gold.PLP.Chemscore.Hbond>
0.0000

> <Gold.PLP.Chemscore.CHOScore>
0.0000

> <Gold.PLP.Chemscore.Metal>
0.0000

> <Gold.PLP.Chemscore.Internal.Correction>
0.0002

