#       Name:                EN300-40334_i001
#       Creating user name   aseyller
#       Creation time:       Fri Apr 21 17:35:30 2023


#       File generated by GOLD software.
#

@<TRIPOS>MOLECULE
EN300-40334_i001|benzaldehydes|mol2|293|dock17
    26    27     1
SMALL
USER_CHARGES


@<TRIPOS>ATOM
      1 C1          32.1968  35.7095  35.7685 C.3            1 <1>                0.0000
      2 C2          32.0084  35.8703  37.2783 C.3            1 <1>                0.0000
      3 C3          33.3009  36.4037  37.8995 C.3            1 <1>                0.0000
      4 N4          30.9172  36.8131  37.5367 N.pl3          1 <1>                0.0000
      5 C5          29.9079  36.6614  38.4536 C.2            1 <1>                0.0000
      6 C6          29.7442  35.5060  39.3510 C.2            1 <1>                0.0000
      7 O7          28.8771  35.5146  40.1985 O.2            1 <1>                0.0000
      8 N8          29.1111  37.7018  38.4091 N.2            1 <1>                0.0000
      9 C9          29.5479  38.5691  37.4816 C.ar           1 <1>                0.0000
     10 C10         29.0840  39.8147  37.0330 C.ar           1 <1>                0.0000
     11 C11         29.7584  40.4767  36.0501 C.ar           1 <1>                0.0000
     12 C12         30.9048  39.9319  35.4836 C.ar           1 <1>                0.0000
     13 C13         31.3818  38.7108  35.9054 C.ar           1 <1>                0.0000
     14 C14         30.7144  38.0202  36.9103 C.ar           1 <1>                0.0000
     15 H15         33.0086  35.0081  35.5763 H              1 <1>                0.0000
     16 H16         31.2759  35.3296  35.3259 H              1 <1>                0.0000
     17 H17         32.4398  36.6763  35.3276 H              1 <1>                0.0000
     18 H18         31.7654  34.9036  37.7192 H              1 <1>                0.0000
     19 H19         33.5440  37.3705  37.4587 H              1 <1>                0.0000
     20 H20         33.1668  36.5184  38.9752 H              1 <1>                0.0000
     21 H21         34.1128  35.7023  37.7073 H              1 <1>                0.0000
     22 H22         30.3966  34.6507  39.2546 H              1 <1>                0.0000
     23 H23         28.1942  40.2482  37.4652 H              1 <1>                0.0000
     24 H24         29.3974  41.4352  35.7076 H              1 <1>                0.0000
     25 H25         31.4257  40.4707  34.7057 H              1 <1>                0.0000
     26 H26         32.2729  38.2936  35.4604 H              1 <1>                0.0000
@<TRIPOS>BOND
    1    1    2 1     
    2    1   15 1     
    3    1   16 1     
    4    1   17 1     
    5    2    3 1     
    6    2    4 1     
    7    2   18 1     
    8    3   19 1     
    9    3   20 1     
   10    3   21 1     
   11    4    5 1     
   12    4   14 1     
   13    5    6 1     
   14    5    8 2     
   15    6    7 2     
   16    6   22 1     
   17    8    9 1     
   18    9   10 ar    
   19    9   14 ar    
   20   10   11 ar    
   21   10   23 1     
   22   11   12 ar    
   23   11   24 1     
   24   12   13 ar    
   25   12   25 1     
   26   13   14 ar    
   27   13   26 1     
@<TRIPOS>SUBSTRUCTURE
      1 ****           1
@<TRIPOS>COMMENT
> <Gold.Version>
2022.2.0

> <Gold.Id.Protein>
1qkm|1qkm_protein|mol2

> <Gold.Protein.RotatedTorsions>
[  496  491  490  487 ] final  -32.07 input  -89.99 | X-H torsion

> <Gold.Protein.ActiveResidues>
 MET295  LEU298  THR299  LEU301  ALA302  GLU305  TRP335  MET336  LEU339  MET340 
 GLY342  LEU343  ARG346  PHE356  ILE373  ILE376  PHE377  LEU380  LYS471  GLY472 
 MET473  HIS475  LEU476  LEU477  ASN478  MET479  VAL484  VAL487 

> <Gold.Protein.RotatedAtoms>
   36.3238   34.5894   41.8807 H   0  0  0  0  0  0  0  0  0  0  0  0  # atno 496  bound_to 491 

> <Gold.Score>
     Score     S(PLP)   S(hbond)     S(cho)   S(metal)  DE(clash)   DE(tors)     intcor
     40.88     -41.67       0.00       0.00       0.00       0.00       0.40       0.00

> <Gold.PLP.Fitness>
40.8776

> <Gold.PLP.PLP>
-41.6718

> <Gold.PLP.part.hbond>
0.0000

> <Gold.PLP.part.metal>
0.0000

> <Gold.PLP.part.buried>
-1.9759

> <Gold.PLP.part.nonpolar>
-39.7775

> <Gold.PLP.part.repulsive>
0.0946

> <Gold.PLP.ligand.clash>
0.0000

> <Gold.PLP.ligand.torsion>
0.3972

> <Gold.PLP.Chemscore.Hbond>
0.0000

> <Gold.PLP.Chemscore.CHOScore>
0.0000

> <Gold.PLP.Chemscore.Metal>
0.0000

> <Gold.PLP.Chemscore.Internal.Correction>
0.0002

