#       Name:                EN300-40334_i001
#       Creating user name   aseyller
#       Creation time:       Fri Apr 21 17:35:25 2023


#       File generated by GOLD software.
#

@<TRIPOS>MOLECULE
EN300-40334_i001|benzaldehydes|mol2|293|dock7
    26    27     1
SMALL
USER_CHARGES


@<TRIPOS>ATOM
      1 C1          29.3793  36.9961  40.4191 C.3            1 <1>                0.0000
      2 C2          29.8316  35.9491  39.3992 C.3            1 <1>                0.0000
      3 C3          28.7367  34.8936  39.2323 C.3            1 <1>                0.0000
      4 N4          30.0834  36.5993  38.1108 N.pl3          1 <1>                0.0000
      5 C5          29.2274  37.4334  37.4367 C.2            1 <1>                0.0000
      6 C6          27.8860  37.8253  37.8993 C.2            1 <1>                0.0000
      7 O7          27.1691  37.0105  38.4400 O.2            1 <1>                0.0000
      8 N8          29.7857  37.8282  36.3179 N.2            1 <1>                0.0000
      9 C9          31.0087  37.2853  36.2042 C.ar           1 <1>                0.0000
     10 C10         32.0139  37.3708  35.2295 C.ar           1 <1>                0.0000
     11 C11         33.1817  36.6871  35.3965 C.ar           1 <1>                0.0000
     12 C12         33.3913  35.9028  36.5247 C.ar           1 <1>                0.0000
     13 C13         32.4210  35.8014  37.4968 C.ar           1 <1>                0.0000
     14 C14         31.2247  36.4940  37.3513 C.ar           1 <1>                0.0000
     15 H15         29.1920  36.5124  41.3777 H              1 <1>                0.0000
     16 H16         30.1594  37.7481  40.5380 H              1 <1>                0.0000
     17 H17         28.4646  37.4738  40.0682 H              1 <1>                0.0000
     18 H18         30.7463  35.4714  39.7501 H              1 <1>                0.0000
     19 H19         27.8219  35.3712  38.8814 H              1 <1>                0.0000
     20 H20         29.0587  34.1476  38.5056 H              1 <1>                0.0000
     21 H21         28.5493  34.4098  40.1909 H              1 <1>                0.0000
     22 H22         27.5403  38.8385  37.7570 H              1 <1>                0.0000
     23 H23         31.8627  37.9768  34.3482 H              1 <1>                0.0000
     24 H24         33.9527  36.7557  34.6433 H              1 <1>                0.0000
     25 H25         34.3226  35.3681  36.6398 H              1 <1>                0.0000
     26 H26         32.5907  35.1898  38.3706 H              1 <1>                0.0000
@<TRIPOS>BOND
    1    1    2 1     
    2    1   15 1     
    3    1   16 1     
    4    1   17 1     
    5    2    3 1     
    6    2    4 1     
    7    2   18 1     
    8    3   19 1     
    9    3   20 1     
   10    3   21 1     
   11    4    5 1     
   12    4   14 1     
   13    5    6 1     
   14    5    8 2     
   15    6    7 2     
   16    6   22 1     
   17    8    9 1     
   18    9   10 ar    
   19    9   14 ar    
   20   10   11 ar    
   21   10   23 1     
   22   11   12 ar    
   23   11   24 1     
   24   12   13 ar    
   25   12   25 1     
   26   13   14 ar    
   27   13   26 1     
@<TRIPOS>SUBSTRUCTURE
      1 ****           1
@<TRIPOS>COMMENT
> <Gold.Version>
2022.2.0

> <Gold.Id.Protein>
1qkm|1qkm_protein|mol2

> <Gold.Protein.RotatedTorsions>
[  496  491  490  487 ] final   65.74 input  -89.99 | X-H torsion

> <Gold.Protein.ActiveResidues>
 MET295  LEU298  THR299  LEU301  ALA302  GLU305  TRP335  MET336  LEU339  MET340 
 GLY342  LEU343  ARG346  PHE356  ILE373  ILE376  PHE377  LEU380  LYS471  GLY472 
 MET473  HIS475  LEU476  LEU477  ASN478  MET479  VAL484  VAL487 

> <Gold.Protein.RotatedAtoms>
   36.6001   33.2485   42.2636 H   0  0  0  0  0  0  0  0  0  0  0  0  # atno 496  bound_to 491 

> <Gold.Score>
     Score     S(PLP)   S(hbond)     S(cho)   S(metal)  DE(clash)   DE(tors)     intcor
     43.38     -44.25       0.00       0.00       0.00       0.00       0.44       0.00

> <Gold.PLP.Fitness>
43.3823

> <Gold.PLP.PLP>
-44.2533

> <Gold.PLP.part.hbond>
0.0000

> <Gold.PLP.part.metal>
0.0000

> <Gold.PLP.part.buried>
-3.3315

> <Gold.PLP.part.nonpolar>
-40.9137

> <Gold.PLP.part.repulsive>
0.0000

> <Gold.PLP.ligand.clash>
0.0000

> <Gold.PLP.ligand.torsion>
0.4356

> <Gold.PLP.Chemscore.Hbond>
0.0000

> <Gold.PLP.Chemscore.CHOScore>
0.0000

> <Gold.PLP.Chemscore.Metal>
0.0000

> <Gold.PLP.Chemscore.Internal.Correction>
0.0002

