#       Name:                EN300-40334_i001
#       Creating user name   aseyller
#       Creation time:       Fri Apr 21 17:35:24 2023


#       File generated by GOLD software.
#

@<TRIPOS>MOLECULE
EN300-40334_i001|benzaldehydes|mol2|293|dock4
    26    27     1
SMALL
USER_CHARGES


@<TRIPOS>ATOM
      1 C1          29.1000  36.7409  40.8912 C.3            1 <1>                0.0000
      2 C2          29.0423  35.7808  39.7013 C.3            1 <1>                0.0000
      3 C3          27.6643  35.8679  39.0422 C.3            1 <1>                0.0000
      4 N4          30.0734  36.1477  38.7274 N.pl3          1 <1>                0.0000
      5 C5          31.1465  35.3816  38.3476 C.2            1 <1>                0.0000
      6 C6          31.4522  34.0365  38.8617 C.2            1 <1>                0.0000
      7 O7          32.0937  33.2606  38.1859 O.2            1 <1>                0.0000
      8 N8          31.8583  36.0296  37.4573 N.2            1 <1>                0.0000
      9 C9          31.3006  37.2266  37.2135 C.ar           1 <1>                0.0000
     10 C10         31.6405  38.2938  36.3690 C.ar           1 <1>                0.0000
     11 C11         30.8583  39.4102  36.3369 C.ar           1 <1>                0.0000
     12 C12         29.7231  39.5060  37.1332 C.ar           1 <1>                0.0000
     13 C13         29.3666  38.4729  37.9712 C.ar           1 <1>                0.0000
     14 C14         30.1454  37.3225  38.0166 C.ar           1 <1>                0.0000
     15 H15         28.3329  36.4679  41.6159 H              1 <1>                0.0000
     16 H16         30.0818  36.6789  41.3608 H              1 <1>                0.0000
     17 H17         28.9266  37.7597  40.5448 H              1 <1>                0.0000
     18 H18         29.2157  34.7620  40.0477 H              1 <1>                0.0000
     19 H19         27.4908  36.8867  38.6958 H              1 <1>                0.0000
     20 H20         27.6231  35.1840  38.1944 H              1 <1>                0.0000
     21 H21         26.8971  35.5949  39.7668 H              1 <1>                0.0000
     22 H22         31.1051  33.7407  39.8406 H              1 <1>                0.0000
     23 H23         32.5204  38.2314  35.7457 H              1 <1>                0.0000
     24 H24         31.1241  40.2296  35.6854 H              1 <1>                0.0000
     25 H25         29.1157  40.3983  37.0947 H              1 <1>                0.0000
     26 H26         28.4834  38.5546  38.5873 H              1 <1>                0.0000
@<TRIPOS>BOND
    1    1    2 1     
    2    1   15 1     
    3    1   16 1     
    4    1   17 1     
    5    2    3 1     
    6    2    4 1     
    7    2   18 1     
    8    3   19 1     
    9    3   20 1     
   10    3   21 1     
   11    4    5 1     
   12    4   14 1     
   13    5    6 1     
   14    5    8 2     
   15    6    7 2     
   16    6   22 1     
   17    8    9 1     
   18    9   10 ar    
   19    9   14 ar    
   20   10   11 ar    
   21   10   23 1     
   22   11   12 ar    
   23   11   24 1     
   24   12   13 ar    
   25   12   25 1     
   26   13   14 ar    
   27   13   26 1     
@<TRIPOS>SUBSTRUCTURE
      1 ****           1
@<TRIPOS>COMMENT
> <Gold.Version>
2022.2.0

> <Gold.Id.Protein>
1qkm|1qkm_protein|mol2

> <Gold.Protein.RotatedTorsions>
[  496  491  490  487 ] final -127.16 input  -89.99 | X-H torsion

> <Gold.Protein.ActiveResidues>
 MET295  LEU298  THR299  LEU301  ALA302  GLU305  TRP335  MET336  LEU339  MET340 
 GLY342  LEU343  ARG346  PHE356  ILE373  ILE376  PHE377  LEU380  LYS471  GLY472 
 MET473  HIS475  LEU476  LEU477  ASN478  MET479  VAL484  VAL487 

> <Gold.Protein.RotatedAtoms>
   37.0833   34.2605   40.7618 H   0  0  0  0  0  0  0  0  0  0  0  0  # atno 496  bound_to 491 

> <Gold.Score>
     Score     S(PLP)   S(hbond)     S(cho)   S(metal)  DE(clash)   DE(tors)     intcor
     45.82     -46.16       0.00       0.00       0.00       0.00       0.17       0.00

> <Gold.PLP.Fitness>
45.8250

> <Gold.PLP.PLP>
-46.1647

> <Gold.PLP.part.hbond>
0.0000

> <Gold.PLP.part.metal>
0.0000

> <Gold.PLP.part.buried>
-3.3815

> <Gold.PLP.part.nonpolar>
-43.4275

> <Gold.PLP.part.repulsive>
0.0494

> <Gold.PLP.ligand.clash>
0.0000

> <Gold.PLP.ligand.torsion>
0.1700

> <Gold.PLP.Chemscore.Hbond>
0.0000

> <Gold.PLP.Chemscore.CHOScore>
0.0000

> <Gold.PLP.Chemscore.Metal>
0.0000

> <Gold.PLP.Chemscore.Internal.Correction>
0.0002

