#       Name:                EN300-107373_i001
#       Creating user name   aseyller
#       Creation time:       Fri Apr 21 16:28:15 2023


#       File generated by GOLD software.
#

@<TRIPOS>MOLECULE
EN300-107373_i001|aminophenols|mol2|25|dock7
    21    21     1
SMALL
USER_CHARGES


@<TRIPOS>ATOM
      1 C1          32.8950  36.7609  34.9551 C.3            1 <1>                0.0000
      2 O2          32.1602  37.7037  35.7382 O.3            1 <1>                0.0000
      3 C3          31.5315  37.2288  36.8464 C.ar           1 <1>                0.0000
      4 C4          31.9863  36.0702  37.4582 C.ar           1 <1>                0.0000
      5 C5          31.3446  35.5871  38.5885 C.ar           1 <1>                0.0000
      6 N6          31.8014  34.4185  39.2082 N.pl3          1 <1>                0.0000
      7 C7          30.2446  36.2676  39.1064 C.ar           1 <1>                0.0000
      8 O8          29.6129  35.7963  40.2159 O.3            1 <1>                0.0000
      9 C9          29.7949  37.4235  38.4918 C.ar           1 <1>                0.0000
     10 C10         30.4397  37.9066  37.3674 C.ar           1 <1>                0.0000
     11 N11         29.9564  39.1429  36.7125 N.pl3          1 <1>                0.0000
     12 O12         30.6515  39.7056  35.8855 O.2            1 <1>                0.0000
     13 O13         28.8637  39.5975  37.0003 O.2            1 <1>                0.0000
     14 H14         33.6781  36.3126  35.5666 H              1 <1>                0.0000
     15 H15         32.2215  35.9815  34.5985 H              1 <1>                0.0000
     16 H16         33.3458  37.2694  34.1029 H              1 <1>                0.0000
     17 H17         32.8389  35.5446  37.0543 H              1 <1>                0.0000
     18 H18         28.9422  37.9512  38.8929 H              1 <1>                0.0000
     19 H19         32.5676  33.9457  38.8471 H              1 <1>                0.0000
     20 H20         31.3520  34.0812  39.9989 H              1 <1>                0.0000
     21 H21         30.2061  35.6068  40.9556 H              1 <1>                0.0000
@<TRIPOS>BOND
    1    1    2 1     
    2    1   14 1     
    3    1   15 1     
    4    1   16 1     
    5    2    3 1     
    6    3    4 ar    
    7    3   10 ar    
    8    4    5 ar    
    9    4   17 1     
   10    5    6 1     
   11    5    7 ar    
   12    6   19 1     
   13    6   20 1     
   14    7    8 1     
   15    7    9 ar    
   16    8   21 1     
   17    9   10 ar    
   18    9   18 1     
   19   10   11 1     
   20   11   12 2     
   21   11   13 2     
@<TRIPOS>SUBSTRUCTURE
      1 ****           1
@<TRIPOS>SET
DONOR_HYDROGENS      STATIC     ATOMS    <user>   **** ""
3 19 20 21
ATOM$RED        STATIC     ATOMS    COLORGROUP SYSTEM
3 19 20 21
@<TRIPOS>COMMENT
> <Gold.Version>
2022.2.0

> <Gold.Id.Protein>
1qkm|1qkm_protein|mol2

> <Gold.Protein.RotatedTorsions>
[  496  491  490  487 ] final -172.82 input  -89.99 | X-H torsion

> <Gold.Protein.ActiveResidues>
 MET295  LEU298  THR299  LEU301  ALA302  GLU305  TRP335  MET336  LEU339  MET340 
 GLY342  LEU343  ARG346  PHE356  ILE373  ILE376  PHE377  LEU380  LYS471  GLY472 
 MET473  HIS475  LEU476  LEU477  ASN478  MET479  VAL484  VAL487 

> <Gold.Protein.RotatedAtoms>
   37.3098   33.5665   40.8137 H   0  0  0  0  0  0  0  0  0  0  0  0  # atno 496  bound_to 491 

> <Gold.Score>
     Score     S(PLP)   S(hbond)     S(cho)   S(metal)  DE(clash)   DE(tors)     intcor
     38.46     -35.31       1.07       0.00       0.00       0.00       0.42       0.78

> <Gold.PLP.Fitness>
38.4626

> <Gold.PLP.PLP>
-35.3060

> <Gold.PLP.part.hbond>
-2.0000

> <Gold.PLP.part.metal>
0.0000

> <Gold.PLP.part.buried>
-4.0632

> <Gold.PLP.part.nonpolar>
-29.5416

> <Gold.PLP.part.repulsive>
0.1415

> <Gold.PLP.ligand.clash>
0.0000

> <Gold.PLP.ligand.torsion>
0.4248

> <Gold.PLP.Chemscore.Hbond>
1.0744

> <Gold.PLP.Chemscore.CHOScore>
0.0000

> <Gold.PLP.Chemscore.Metal>
0.0000

> <Gold.Chemscore.Hbonds>
donor molecule, donor type, donor heavy atom, donor atom, acceptor molecule, acceptor atom, score
      L1  H     6    20       P1   470  0.07
      L1  H     8    21       P1   470  1.00

> <Gold.PLP.Chemscore.Internal.Correction>
0.7832

