#       Name:                EN300-107373_i001
#       Creating user name   aseyller
#       Creation time:       Fri Apr 21 16:28:13 2023


#       File generated by GOLD software.
#

@<TRIPOS>MOLECULE
EN300-107373_i001|aminophenols|mol2|25|dock5
    21    21     1
SMALL
USER_CHARGES


@<TRIPOS>ATOM
      1 C1          29.1652  39.4434  36.6562 C.3            1 <1>                0.0000
      2 O2          30.4427  38.8372  36.4498 O.3            1 <1>                0.0000
      3 C3          30.7168  37.7154  37.1678 C.ar           1 <1>                0.0000
      4 C4          30.0584  37.4812  38.3657 C.ar           1 <1>                0.0000
      5 C5          30.3384  36.3368  39.0968 C.ar           1 <1>                0.0000
      6 N6          29.6754  36.0975  40.3057 N.pl3          1 <1>                0.0000
      7 C7          31.2807  35.4251  38.6251 C.ar           1 <1>                0.0000
      8 O8          31.5575  34.3006  39.3400 O.3            1 <1>                0.0000
      9 C9          31.9349  35.6639  37.4288 C.ar           1 <1>                0.0000
     10 C10         31.6502  36.8035  36.6986 C.ar           1 <1>                0.0000
     11 N11         32.3514  37.0560  35.4197 N.pl3          1 <1>                0.0000
     12 O12         31.9487  37.9234  34.6653 O.2            1 <1>                0.0000
     13 O13         33.3311  36.3965  35.1217 O.2            1 <1>                0.0000
     14 H14         28.3799  38.7323  36.3997 H              1 <1>                0.0000
     15 H15         29.0653  39.7334  37.7023 H              1 <1>                0.0000
     16 H16         29.0759  40.3269  36.0242 H              1 <1>                0.0000
     17 H17         29.3287  38.1898  38.7290 H              1 <1>                0.0000
     18 H18         32.6654  34.9574  37.0631 H              1 <1>                0.0000
     19 H19         29.0192  36.7326  40.6330 H              1 <1>                0.0000
     20 H20         29.8719  35.2966  40.8165 H              1 <1>                0.0000
     21 H21         31.6939  34.4584  40.2843 H              1 <1>                0.0000
@<TRIPOS>BOND
    1    1    2 1     
    2    1   14 1     
    3    1   15 1     
    4    1   16 1     
    5    2    3 1     
    6    3    4 ar    
    7    3   10 ar    
    8    4    5 ar    
    9    4   17 1     
   10    5    6 1     
   11    5    7 ar    
   12    6   19 1     
   13    6   20 1     
   14    7    8 1     
   15    7    9 ar    
   16    8   21 1     
   17    9   10 ar    
   18    9   18 1     
   19   10   11 1     
   20   11   12 2     
   21   11   13 2     
@<TRIPOS>SUBSTRUCTURE
      1 ****           1
@<TRIPOS>SET
DONOR_HYDROGENS      STATIC     ATOMS    <user>   **** ""
3 19 20 21
ATOM$RED        STATIC     ATOMS    COLORGROUP SYSTEM
3 19 20 21
@<TRIPOS>COMMENT
> <Gold.Version>
2022.2.0

> <Gold.Id.Protein>
1qkm|1qkm_protein|mol2

> <Gold.Protein.RotatedTorsions>
[  496  491  490  487 ] final  146.26 input  -89.99 | X-H torsion

> <Gold.Protein.ActiveResidues>
 MET295  LEU298  THR299  LEU301  ALA302  GLU305  TRP335  MET336  LEU339  MET340 
 GLY342  LEU343  ARG346  PHE356  ILE373  ILE376  PHE377  LEU380  LYS471  GLY472 
 MET473  HIS475  LEU476  LEU477  ASN478  MET479  VAL484  VAL487 

> <Gold.Protein.RotatedAtoms>
   37.2462   33.0720   41.2451 H   0  0  0  0  0  0  0  0  0  0  0  0  # atno 496  bound_to 491 

> <Gold.Score>
     Score     S(PLP)   S(hbond)     S(cho)   S(metal)  DE(clash)   DE(tors)     intcor
     37.33     -34.04       1.11       0.00       0.00       0.00       0.42       0.79

> <Gold.PLP.Fitness>
37.3291

> <Gold.PLP.PLP>
-34.0411

> <Gold.PLP.part.hbond>
-2.0000

> <Gold.PLP.part.metal>
0.0000

> <Gold.PLP.part.buried>
-4.9089

> <Gold.PLP.part.nonpolar>
-27.4514

> <Gold.PLP.part.repulsive>
0.2926

> <Gold.PLP.ligand.clash>
0.0000

> <Gold.PLP.ligand.torsion>
0.4173

> <Gold.PLP.Chemscore.Hbond>
1.1123

> <Gold.PLP.Chemscore.CHOScore>
0.0000

> <Gold.PLP.Chemscore.Metal>
0.0000

> <Gold.Chemscore.Hbonds>
donor molecule, donor type, donor heavy atom, donor atom, acceptor molecule, acceptor atom, score
      L1  H     6    20       P1   470  0.11
      L1  H     8    21       P1   470  1.00

> <Gold.PLP.Chemscore.Internal.Correction>
0.7856

