#       Name:                EN300-107373_i001
#       Creating user name   aseyller
#       Creation time:       Fri Apr 21 16:28:23 2023


#       File generated by GOLD software.
#

@<TRIPOS>MOLECULE
EN300-107373_i001|aminophenols|mol2|25|dock16
    21    21     1
SMALL
USER_CHARGES


@<TRIPOS>ATOM
      1 C1          30.1798  39.7117  35.8070 C.3            1 <1>                0.0000
      2 O2          31.2911  38.8628  36.1009 O.3            1 <1>                0.0000
      3 C3          31.0813  37.8578  36.9924 C.ar           1 <1>                0.0000
      4 C4          30.0318  37.9402  37.8952 C.ar           1 <1>                0.0000
      5 C5          29.8185  36.9145  38.8036 C.ar           1 <1>                0.0000
      6 N6          28.7601  36.9946  39.7156 N.pl3          1 <1>                0.0000
      7 C7          30.6597  35.8037  38.8064 C.ar           1 <1>                0.0000
      8 O8          30.4529  34.7951  39.6964 O.3            1 <1>                0.0000
      9 C9          31.7058  35.7267  37.9031 C.ar           1 <1>                0.0000
     10 C10         31.9135  36.7485  36.9943 C.ar           1 <1>                0.0000
     11 N11         33.0329  36.6632  36.0297 N.pl3          1 <1>                0.0000
     12 O12         33.8835  35.8009  36.1586 O.2            1 <1>                0.0000
     13 O13         33.1035  37.4551  35.1069 O.2            1 <1>                0.0000
     14 H14         29.3675  39.1159  35.3908 H              1 <1>                0.0000
     15 H15         29.8419  40.1979  36.7223 H              1 <1>                0.0000
     16 H16         30.4824  40.4690  35.0838 H              1 <1>                0.0000
     17 H17         29.3816  38.8025  37.8910 H              1 <1>                0.0000
     18 H18         32.3580  34.8659  37.9051 H              1 <1>                0.0000
     19 H19         28.1747  37.7681  39.7125 H              1 <1>                0.0000
     20 H20         28.6116  36.2767  40.3507 H              1 <1>                0.0000
     21 H21         30.8917  34.9259  40.5481 H              1 <1>                0.0000
@<TRIPOS>BOND
    1    1    2 1     
    2    1   14 1     
    3    1   15 1     
    4    1   16 1     
    5    2    3 1     
    6    3    4 ar    
    7    3   10 ar    
    8    4    5 ar    
    9    4   17 1     
   10    5    6 1     
   11    5    7 ar    
   12    6   19 1     
   13    6   20 1     
   14    7    8 1     
   15    7    9 ar    
   16    8   21 1     
   17    9   10 ar    
   18    9   18 1     
   19   10   11 1     
   20   11   12 2     
   21   11   13 2     
@<TRIPOS>SUBSTRUCTURE
      1 ****           1
@<TRIPOS>SET
DONOR_HYDROGENS      STATIC     ATOMS    <user>   **** ""
3 19 20 21
ATOM$RED        STATIC     ATOMS    COLORGROUP SYSTEM
3 19 20 21
@<TRIPOS>COMMENT
> <Gold.Version>
2022.2.0

> <Gold.Id.Protein>
1qkm|1qkm_protein|mol2

> <Gold.Protein.RotatedTorsions>
[  496  491  490  487 ] final -160.43 input  -89.99 | X-H torsion

> <Gold.Protein.ActiveResidues>
 MET295  LEU298  THR299  LEU301  ALA302  GLU305  TRP335  MET336  LEU339  MET340 
 GLY342  LEU343  ARG346  PHE356  ILE373  ILE376  PHE377  LEU380  LYS471  GLY472 
 MET473  HIS475  LEU476  LEU477  ASN478  MET479  VAL484  VAL487 

> <Gold.Protein.RotatedAtoms>
   37.2767   33.7567   40.7487 H   0  0  0  0  0  0  0  0  0  0  0  0  # atno 496  bound_to 491 

> <Gold.Score>
     Score     S(PLP)   S(hbond)     S(cho)   S(metal)  DE(clash)   DE(tors)     intcor
     33.03     -30.25       1.00       0.00       0.00       0.28       0.37       0.78

> <Gold.PLP.Fitness>
33.0270

> <Gold.PLP.PLP>
-30.2507

> <Gold.PLP.part.hbond>
-1.0000

> <Gold.PLP.part.metal>
0.0000

> <Gold.PLP.part.buried>
-1.8798

> <Gold.PLP.part.nonpolar>
-27.5724

> <Gold.PLP.part.repulsive>
0.1640

> <Gold.PLP.ligand.clash>
0.2754

> <Gold.PLP.ligand.torsion>
0.3657

> <Gold.PLP.Chemscore.Hbond>
1.0000

> <Gold.PLP.Chemscore.CHOScore>
0.0000

> <Gold.PLP.Chemscore.Metal>
0.0000

> <Gold.Chemscore.Hbonds>
donor molecule, donor type, donor heavy atom, donor atom, acceptor molecule, acceptor atom, score
      L1  H     8    21       P1   470  1.00

> <Gold.PLP.Chemscore.Internal.Correction>
0.7832

