#       Name:                EN300-107373_i001
#       Creating user name   aseyller
#       Creation time:       Fri Apr 21 16:28:20 2023


#       File generated by GOLD software.
#

@<TRIPOS>MOLECULE
EN300-107373_i001|aminophenols|mol2|25|dock13
    21    21     1
SMALL
USER_CHARGES


@<TRIPOS>ATOM
      1 C1          32.9288  36.0669  37.6116 C.3            1 <1>                0.0000
      2 O2          32.0201  37.1363  37.3425 O.3            1 <1>                0.0000
      3 C3          30.7958  37.0687  37.9303 C.ar           1 <1>                0.0000
      4 C4          30.6260  36.3358  39.0953 C.ar           1 <1>                0.0000
      5 C5          29.3772  36.2680  39.6941 C.ar           1 <1>                0.0000
      6 N6          29.2028  35.5295  40.8700 N.pl3          1 <1>                0.0000
      7 C7          28.2964  36.9369  39.1232 C.ar           1 <1>                0.0000
      8 O8          27.0695  36.8727  39.7087 O.3            1 <1>                0.0000
      9 C9          28.4716  37.6670  37.9603 C.ar           1 <1>                0.0000
     10 C10         29.7193  37.7376  37.3675 C.ar           1 <1>                0.0000
     11 N11         29.9034  38.5191  36.1240 N.pl3          1 <1>                0.0000
     12 O12         29.1120  39.3987  35.8348 O.2            1 <1>                0.0000
     13 O13         30.8461  38.2828  35.3900 O.2            1 <1>                0.0000
     14 H14         33.1210  36.0144  38.6833 H              1 <1>                0.0000
     15 H15         32.4933  35.1263  37.2741 H              1 <1>                0.0000
     16 H16         33.8653  36.2440  37.0828 H              1 <1>                0.0000
     17 H17         31.4654  35.8181  39.5354 H              1 <1>                0.0000
     18 H18         27.6340  38.1855  37.5175 H              1 <1>                0.0000
     19 H19         29.9559  35.0646  41.2669 H              1 <1>                0.0000
     20 H20         28.3288  35.4826  41.2882 H              1 <1>                0.0000
     21 H21         26.7877  35.9755  39.9340 H              1 <1>                0.0000
@<TRIPOS>BOND
    1    1    2 1     
    2    1   14 1     
    3    1   15 1     
    4    1   16 1     
    5    2    3 1     
    6    3    4 ar    
    7    3   10 ar    
    8    4    5 ar    
    9    4   17 1     
   10    5    6 1     
   11    5    7 ar    
   12    6   19 1     
   13    6   20 1     
   14    7    8 1     
   15    7    9 ar    
   16    8   21 1     
   17    9   10 ar    
   18    9   18 1     
   19   10   11 1     
   20   11   12 2     
   21   11   13 2     
@<TRIPOS>SUBSTRUCTURE
      1 ****           1
@<TRIPOS>SET
DONOR_HYDROGENS      STATIC     ATOMS    <user>   **** ""
3 19 20 21
ATOM$RED        STATIC     ATOMS    COLORGROUP SYSTEM
3 19 20 21
@<TRIPOS>COMMENT
> <Gold.Version>
2022.2.0

> <Gold.Id.Protein>
1qkm|1qkm_protein|mol2

> <Gold.Protein.RotatedTorsions>
[  496  491  490  487 ] final   19.11 input  -89.99 | X-H torsion

> <Gold.Protein.ActiveResidues>
 MET295  LEU298  THR299  LEU301  ALA302  GLU305  TRP335  MET336  LEU339  MET340 
 GLY342  LEU343  ARG346  PHE356  ILE373  ILE376  PHE377  LEU380  LYS471  GLY472 
 MET473  HIS475  LEU476  LEU477  ASN478  MET479  VAL484  VAL487 

> <Gold.Protein.RotatedAtoms>
   36.2992   33.9259   42.3530 H   0  0  0  0  0  0  0  0  0  0  0  0  # atno 496  bound_to 491 

> <Gold.Score>
     Score     S(PLP)   S(hbond)     S(cho)   S(metal)  DE(clash)   DE(tors)     intcor
     34.06     -31.42       0.98       0.00       0.00       0.00       0.54       0.78

> <Gold.PLP.Fitness>
34.0612

> <Gold.PLP.PLP>
-31.4157

> <Gold.PLP.part.hbond>
-1.0000

> <Gold.PLP.part.metal>
0.0000

> <Gold.PLP.part.buried>
-4.9857

> <Gold.PLP.part.nonpolar>
-26.2196

> <Gold.PLP.part.repulsive>
0.0827

> <Gold.PLP.ligand.clash>
0.0000

> <Gold.PLP.ligand.torsion>
0.5438

> <Gold.PLP.Chemscore.Hbond>
0.9833

> <Gold.PLP.Chemscore.CHOScore>
0.0000

> <Gold.PLP.Chemscore.Metal>
0.0000

> <Gold.Chemscore.Hbonds>
donor molecule, donor type, donor heavy atom, donor atom, acceptor molecule, acceptor atom, score
      L1  H     6    19       P1   470  0.98

> <Gold.PLP.Chemscore.Internal.Correction>
0.7832

