#       Name:                EN300-107373_i001
#       Creating user name   aseyller
#       Creation time:       Fri Apr 21 16:28:19 2023


#       File generated by GOLD software.
#

@<TRIPOS>MOLECULE
EN300-107373_i001|aminophenols|mol2|25|dock12
    21    21     1
SMALL
USER_CHARGES


@<TRIPOS>ATOM
      1 C1          31.4994  35.4938  38.7913 C.3            1 <1>                0.0000
      2 O2          30.8955  36.7381  38.4322 O.3            1 <1>                0.0000
      3 C3          29.5519  36.8466  38.6116 C.ar           1 <1>                0.0000
      4 C4          28.9254  36.1187  39.6120 C.ar           1 <1>                0.0000
      5 C5          27.5553  36.2304  39.7943 C.ar           1 <1>                0.0000
      6 N6          26.9203  35.4976  40.8032 N.pl3          1 <1>                0.0000
      7 C7          26.8122  37.0743  38.9714 C.ar           1 <1>                0.0000
      8 O8          25.4675  37.1867  39.1479 O.3            1 <1>                0.0000
      9 C9          27.4428  37.7985  37.9744 C.ar           1 <1>                0.0000
     10 C10         28.8103  37.6895  37.7977 C.ar           1 <1>                0.0000
     11 N11         29.4816  38.4652  36.7307 N.pl3          1 <1>                0.0000
     12 O12         28.8804  39.3533  36.1533 O.2            1 <1>                0.0000
     13 O13         30.6352  38.2156  36.4301 O.2            1 <1>                0.0000
     14 H14         31.3287  35.2991  39.8501 H              1 <1>                0.0000
     15 H15         31.0591  34.6917  38.1988 H              1 <1>                0.0000
     16 H16         32.5712  35.5412  38.5989 H              1 <1>                0.0000
     17 H17         29.5038  35.4651  40.2481 H              1 <1>                0.0000
     18 H18         26.8670  38.4526  37.3363 H              1 <1>                0.0000
     19 H19         27.4386  34.9107  41.3759 H              1 <1>                0.0000
     20 H20         25.9618  35.5763  40.9300 H              1 <1>                0.0000
     21 H21         25.0228  37.7046  38.4630 H              1 <1>                0.0000
@<TRIPOS>BOND
    1    1    2 1     
    2    1   14 1     
    3    1   15 1     
    4    1   16 1     
    5    2    3 1     
    6    3    4 ar    
    7    3   10 ar    
    8    4    5 ar    
    9    4   17 1     
   10    5    6 1     
   11    5    7 ar    
   12    6   19 1     
   13    6   20 1     
   14    7    8 1     
   15    7    9 ar    
   16    8   21 1     
   17    9   10 ar    
   18    9   18 1     
   19   10   11 1     
   20   11   12 2     
   21   11   13 2     
@<TRIPOS>SUBSTRUCTURE
      1 ****           1
@<TRIPOS>SET
DONOR_HYDROGENS      STATIC     ATOMS    <user>   **** ""
3 19 20 21
ATOM$RED        STATIC     ATOMS    COLORGROUP SYSTEM
3 19 20 21
@<TRIPOS>COMMENT
> <Gold.Version>
2022.2.0

> <Gold.Id.Protein>
1qkm|1qkm_protein|mol2

> <Gold.Protein.RotatedTorsions>
[  496  491  490  487 ] final   60.62 input  -89.99 | X-H torsion

> <Gold.Protein.ActiveResidues>
 MET295  LEU298  THR299  LEU301  ALA302  GLU305  TRP335  MET336  LEU339  MET340 
 GLY342  LEU343  ARG346  PHE356  ILE373  ILE376  PHE377  LEU380  LYS471  GLY472 
 MET473  HIS475  LEU476  LEU477  ASN478  MET479  VAL484  VAL487 

> <Gold.Protein.RotatedAtoms>
   36.5566   33.3114   42.2992 H   0  0  0  0  0  0  0  0  0  0  0  0  # atno 496  bound_to 491 

> <Gold.Score>
     Score     S(PLP)   S(hbond)     S(cho)   S(metal)  DE(clash)   DE(tors)     intcor
     34.41     -34.50       0.00       0.00       0.00       0.00       0.43       0.78

> <Gold.PLP.Fitness>
34.4125

> <Gold.PLP.PLP>
-34.4977

> <Gold.PLP.part.hbond>
-0.5760

> <Gold.PLP.part.metal>
0.0000

> <Gold.PLP.part.buried>
-4.9388

> <Gold.PLP.part.nonpolar>
-28.7366

> <Gold.PLP.part.repulsive>
0.0537

> <Gold.PLP.ligand.clash>
0.0000

> <Gold.PLP.ligand.torsion>
0.4342

> <Gold.PLP.Chemscore.Hbond>
0.0000

> <Gold.PLP.Chemscore.CHOScore>
0.0000

> <Gold.PLP.Chemscore.Metal>
0.0000

> <Gold.PLP.Chemscore.Internal.Correction>
0.7832

