#       Name:                EN300-107373_i001
#       Creating user name   aseyller
#       Creation time:       Fri Apr 21 16:28:24 2023


#       File generated by GOLD software.
#

@<TRIPOS>MOLECULE
EN300-107373_i001|aminophenols|mol2|25|dock17
    21    21     1
SMALL
USER_CHARGES


@<TRIPOS>ATOM
      1 C1          32.1000  33.5557  37.9628 C.3            1 <1>                0.0000
      2 O2          31.5549  34.8205  38.3440 O.3            1 <1>                0.0000
      3 C3          31.5360  35.7953  37.3961 C.ar           1 <1>                0.0000
      4 C4          32.4339  35.7526  36.3401 C.ar           1 <1>                0.0000
      5 C5          32.4133  36.7469  35.3739 C.ar           1 <1>                0.0000
      6 N6          33.3178  36.7064  34.3068 N.pl3          1 <1>                0.0000
      7 C7          31.4900  37.7863  35.4670 C.ar           1 <1>                0.0000
      8 O8          31.4668  38.7635  34.5202 O.3            1 <1>                0.0000
      9 C9          30.5960  37.8240  36.5233 C.ar           1 <1>                0.0000
     10 C10         30.6148  36.8282  37.4831 C.ar           1 <1>                0.0000
     11 N11         29.6576  36.8713  38.6113 N.pl3          1 <1>                0.0000
     12 O12         28.5546  37.3641  38.4556 O.2            1 <1>                0.0000
     13 O13         29.9728  36.4141  39.6953 O.2            1 <1>                0.0000
     14 H14         31.5231  33.1465  37.1335 H              1 <1>                0.0000
     15 H15         33.1376  33.6851  37.6549 H              1 <1>                0.0000
     16 H16         32.0550  32.8708  38.8095 H              1 <1>                0.0000
     17 H17         33.1487  34.9460  36.2706 H              1 <1>                0.0000
     18 H18         29.8803  38.6295  36.5957 H              1 <1>                0.0000
     19 H19         33.9600  35.9821  34.2426 H              1 <1>                0.0000
     20 H20         33.3028  37.4024  33.6314 H              1 <1>                0.0000
     21 H21         32.0929  38.6247  33.7963 H              1 <1>                0.0000
@<TRIPOS>BOND
    1    1    2 1     
    2    1   14 1     
    3    1   15 1     
    4    1   16 1     
    5    2    3 1     
    6    3    4 ar    
    7    3   10 ar    
    8    4    5 ar    
    9    4   17 1     
   10    5    6 1     
   11    5    7 ar    
   12    6   19 1     
   13    6   20 1     
   14    7    8 1     
   15    7    9 ar    
   16    8   21 1     
   17    9   10 ar    
   18    9   18 1     
   19   10   11 1     
   20   11   12 2     
   21   11   13 2     
@<TRIPOS>SUBSTRUCTURE
      1 ****           1
@<TRIPOS>SET
DONOR_HYDROGENS      STATIC     ATOMS    <user>   **** ""
3 19 20 21
ATOM$RED        STATIC     ATOMS    COLORGROUP SYSTEM
3 19 20 21
@<TRIPOS>COMMENT
> <Gold.Version>
2022.2.0

> <Gold.Id.Protein>
1qkm|1qkm_protein|mol2

> <Gold.Protein.RotatedTorsions>
[  496  491  490  487 ] final   25.72 input  -89.99 | X-H torsion

> <Gold.Protein.ActiveResidues>
 MET295  LEU298  THR299  LEU301  ALA302  GLU305  TRP335  MET336  LEU339  MET340 
 GLY342  LEU343  ARG346  PHE356  ILE373  ILE376  PHE377  LEU380  LYS471  GLY472 
 MET473  HIS475  LEU476  LEU477  ASN478  MET479  VAL484  VAL487 

> <Gold.Protein.RotatedAtoms>
   36.3258   33.8223   42.3733 H   0  0  0  0  0  0  0  0  0  0  0  0  # atno 496  bound_to 491 

> <Gold.Score>
     Score     S(PLP)   S(hbond)     S(cho)   S(metal)  DE(clash)   DE(tors)     intcor
     33.80     -34.49       0.00       0.00       0.00       0.00       0.74       0.78

> <Gold.PLP.Fitness>
33.7969

> <Gold.PLP.PLP>
-34.4908

> <Gold.PLP.part.hbond>
-1.2343

> <Gold.PLP.part.metal>
0.0000

> <Gold.PLP.part.buried>
-6.0289

> <Gold.PLP.part.nonpolar>
-27.8264

> <Gold.PLP.part.repulsive>
0.2459

> <Gold.PLP.ligand.clash>
0.0000

> <Gold.PLP.ligand.torsion>
0.7385

> <Gold.PLP.Chemscore.Hbond>
0.0000

> <Gold.PLP.Chemscore.CHOScore>
0.0000

> <Gold.PLP.Chemscore.Metal>
0.0000

> <Gold.PLP.Chemscore.Internal.Correction>
0.7832

