#       Name:                EN300-107373_i001
#       Creating user name   aseyller
#       Creation time:       Fri Apr 21 16:28:11 2023


#       File generated by GOLD software.
#

@<TRIPOS>MOLECULE
EN300-107373_i001|aminophenols|mol2|25|dock2
    21    21     1
SMALL
USER_CHARGES


@<TRIPOS>ATOM
      1 C1          26.2359  39.0309  37.4891 C.3            1 <1>                0.0000
      2 O2          27.3030  38.0818  37.5383 O.3            1 <1>                0.0000
      3 C3          27.4196  37.3424  38.6735 C.ar           1 <1>                0.0000
      4 C4          26.2914  37.0347  39.4190 C.ar           1 <1>                0.0000
      5 C5          26.4114  36.2803  40.5762 C.ar           1 <1>                0.0000
      6 N6          25.2747  35.9678  41.3304 N.pl3          1 <1>                0.0000
      7 C7          27.6658  35.8334  40.9865 C.ar           1 <1>                0.0000
      8 O8          27.7870  35.0924  42.1215 O.3            1 <1>                0.0000
      9 C9          28.7886  36.1435  40.2386 C.ar           1 <1>                0.0000
     10 C10         28.6659  36.8917  39.0818 C.ar           1 <1>                0.0000
     11 N11         29.8684  37.2217  38.2842 N.pl3          1 <1>                0.0000
     12 O12         30.9197  36.6461  38.5011 O.2            1 <1>                0.0000
     13 O13         29.8067  38.0685  37.4110 O.2            1 <1>                0.0000
     14 H14         25.2834  38.5128  37.6002 H              1 <1>                0.0000
     15 H15         26.3537  39.7523  38.2977 H              1 <1>                0.0000
     16 H16         26.2567  39.5516  36.5318 H              1 <1>                0.0000
     17 H17         25.3204  37.3827  39.0988 H              1 <1>                0.0000
     18 H18         29.7610  35.7974  40.5564 H              1 <1>                0.0000
     19 H19         24.4018  36.2790  41.0437 H              1 <1>                0.0000
     20 H20         25.3596  35.4401  42.1398 H              1 <1>                0.0000
     21 H21         26.9766  35.0420  42.6468 H              1 <1>                0.0000
@<TRIPOS>BOND
    1    1    2 1     
    2    1   14 1     
    3    1   15 1     
    4    1   16 1     
    5    2    3 1     
    6    3    4 ar    
    7    3   10 ar    
    8    4    5 ar    
    9    4   17 1     
   10    5    6 1     
   11    5    7 ar    
   12    6   19 1     
   13    6   20 1     
   14    7    8 1     
   15    7    9 ar    
   16    8   21 1     
   17    9   10 ar    
   18    9   18 1     
   19   10   11 1     
   20   11   12 2     
   21   11   13 2     
@<TRIPOS>SUBSTRUCTURE
      1 ****           1
@<TRIPOS>SET
DONOR_HYDROGENS      STATIC     ATOMS    <user>   **** ""
3 19 20 21
ATOM$RED        STATIC     ATOMS    COLORGROUP SYSTEM
3 19 20 21
@<TRIPOS>COMMENT
> <Gold.Version>
2022.2.0

> <Gold.Id.Protein>
1qkm|1qkm_protein|mol2

> <Gold.Protein.RotatedTorsions>
[  496  491  490  487 ] final   -0.54 input  -89.99 | X-H torsion

> <Gold.Protein.ActiveResidues>
 MET295  LEU298  THR299  LEU301  ALA302  GLU305  TRP335  MET336  LEU339  MET340 
 GLY342  LEU343  ARG346  PHE356  ILE373  ILE376  PHE377  LEU380  LYS471  GLY472 
 MET473  HIS475  LEU476  LEU477  ASN478  MET479  VAL484  VAL487 

> <Gold.Protein.RotatedAtoms>
   36.2594   34.2213   42.2316 H   0  0  0  0  0  0  0  0  0  0  0  0  # atno 496  bound_to 491 

> <Gold.Score>
     Score     S(PLP)   S(hbond)     S(cho)   S(metal)  DE(clash)   DE(tors)     intcor
     41.07     -34.15       2.34       0.00       0.00       0.00       0.45       0.79

> <Gold.PLP.Fitness>
41.0735

> <Gold.PLP.PLP>
-34.1540

> <Gold.PLP.part.hbond>
-2.3197

> <Gold.PLP.part.metal>
0.0000

> <Gold.PLP.part.buried>
-5.9398

> <Gold.PLP.part.nonpolar>
-26.8638

> <Gold.PLP.part.repulsive>
0.1657

> <Gold.PLP.ligand.clash>
0.0000

> <Gold.PLP.ligand.torsion>
0.4491

> <Gold.PLP.Chemscore.Hbond>
2.3441

> <Gold.PLP.Chemscore.CHOScore>
0.0000

> <Gold.PLP.Chemscore.Metal>
0.0000

> <Gold.Chemscore.Hbonds>
donor molecule, donor type, donor heavy atom, donor atom, acceptor molecule, acceptor atom, score
      L1  H     6    19       P1  1131  0.35
      L1  H     6    20       P1   582  1.00
      L1  H     8    21       P1   582  0.99

> <Gold.PLP.Chemscore.Internal.Correction>
0.7856

