#       Name:                EN300-107373_i001
#       Creating user name   aseyller
#       Creation time:       Fri Apr 21 16:28:21 2023


#       File generated by GOLD software.
#

@<TRIPOS>MOLECULE
EN300-107373_i001|aminophenols|mol2|25|dock14
    21    21     1
SMALL
USER_CHARGES


@<TRIPOS>ATOM
      1 C1          30.0551  40.1833  36.3725 C.3            1 <1>                0.0000
      2 O2          29.2070  39.0481  36.5568 O.3            1 <1>                0.0000
      3 C3          29.7281  37.9923  37.2372 C.ar           1 <1>                0.0000
      4 C4          31.0901  37.7369  37.1826 C.ar           1 <1>                0.0000
      5 C5          31.6204  36.6603  37.8771 C.ar           1 <1>                0.0000
      6 N6          32.9944  36.4002  37.8243 N.pl3          1 <1>                0.0000
      7 C7          30.7828  35.8382  38.6282 C.ar           1 <1>                0.0000
      8 O8          31.3001  34.7810  39.3114 O.3            1 <1>                0.0000
      9 C9          29.4240  36.0978  38.6792 C.ar           1 <1>                0.0000
     10 C10         28.8979  37.1754  37.9898 C.ar           1 <1>                0.0000
     11 N11         27.4446  37.4504  38.0463 N.pl3          1 <1>                0.0000
     12 O12         26.6884  36.6309  38.5364 O.2            1 <1>                0.0000
     13 O13         27.0049  38.4960  37.6028 O.2            1 <1>                0.0000
     14 H14         30.3500  40.5782  37.3446 H              1 <1>                0.0000
     15 H15         30.9441  39.8862  35.8160 H              1 <1>                0.0000
     16 H16         29.5181  40.9514  35.8160 H              1 <1>                0.0000
     17 H17         31.7369  38.3755  36.5993 H              1 <1>                0.0000
     18 H18         28.7746  35.4608  39.2612 H              1 <1>                0.0000
     19 H19         33.5768  36.9733  37.3015 H              1 <1>                0.0000
     20 H20         33.3646  35.6468  38.3105 H              1 <1>                0.0000
     21 H21         31.2770  34.8846  40.2726 H              1 <1>                0.0000
@<TRIPOS>BOND
    1    1    2 1     
    2    1   14 1     
    3    1   15 1     
    4    1   16 1     
    5    2    3 1     
    6    3    4 ar    
    7    3   10 ar    
    8    4    5 ar    
    9    4   17 1     
   10    5    6 1     
   11    5    7 ar    
   12    6   19 1     
   13    6   20 1     
   14    7    8 1     
   15    7    9 ar    
   16    8   21 1     
   17    9   10 ar    
   18    9   18 1     
   19   10   11 1     
   20   11   12 2     
   21   11   13 2     
@<TRIPOS>SUBSTRUCTURE
      1 ****           1
@<TRIPOS>SET
DONOR_HYDROGENS      STATIC     ATOMS    <user>   **** ""
3 19 20 21
ATOM$RED        STATIC     ATOMS    COLORGROUP SYSTEM
3 19 20 21
@<TRIPOS>COMMENT
> <Gold.Version>
2022.2.0

> <Gold.Id.Protein>
1qkm|1qkm_protein|mol2

> <Gold.Protein.RotatedTorsions>
[  496  491  490  487 ] final  -15.39 input  -89.99 | X-H torsion

> <Gold.Protein.ActiveResidues>
 MET295  LEU298  THR299  LEU301  ALA302  GLU305  TRP335  MET336  LEU339  MET340 
 GLY342  LEU343  ARG346  PHE356  ILE373  ILE376  PHE377  LEU380  LYS471  GLY472 
 MET473  HIS475  LEU476  LEU477  ASN478  MET479  VAL484  VAL487 

> <Gold.Protein.RotatedAtoms>
   36.2703   34.4166   42.0861 H   0  0  0  0  0  0  0  0  0  0  0  0  # atno 496  bound_to 491 

> <Gold.Score>
     Score     S(PLP)   S(hbond)     S(cho)   S(metal)  DE(clash)   DE(tors)     intcor
     35.68     -32.77       1.00       0.00       0.00       0.01       0.43       0.78

> <Gold.PLP.Fitness>
35.6841

> <Gold.PLP.PLP>
-32.7689

> <Gold.PLP.part.hbond>
-1.0000

> <Gold.PLP.part.metal>
0.0000

> <Gold.PLP.part.buried>
-4.0977

> <Gold.PLP.part.nonpolar>
-27.5741

> <Gold.PLP.part.repulsive>
0.0728

> <Gold.PLP.ligand.clash>
0.0136

> <Gold.PLP.ligand.torsion>
0.4272

> <Gold.PLP.Chemscore.Hbond>
1.0000

> <Gold.PLP.Chemscore.CHOScore>
0.0000

> <Gold.PLP.Chemscore.Metal>
0.0000

> <Gold.Chemscore.Hbonds>
donor molecule, donor type, donor heavy atom, donor atom, acceptor molecule, acceptor atom, score
      L1  H     8    21       P1   470  1.00

> <Gold.PLP.Chemscore.Internal.Correction>
0.7832

