#       Name:                EN300-107373_i001
#       Creating user name   aseyller
#       Creation time:       Fri Apr 21 16:28:13 2023


#       File generated by GOLD software.
#

@<TRIPOS>MOLECULE
EN300-107373_i001|aminophenols|mol2|25|dock4
    21    21     1
SMALL
USER_CHARGES


@<TRIPOS>ATOM
      1 C1          29.1339  38.1221  37.4830 C.3            1 <1>                0.0000
      2 O2          29.7177  36.8237  37.3596 O.3            1 <1>                0.0000
      3 C3          30.8941  36.7376  36.6830 C.ar           1 <1>                0.0000
      4 C4          31.1924  37.6604  35.6917 C.ar           1 <1>                0.0000
      5 C5          32.3925  37.5719  35.0027 C.ar           1 <1>                0.0000
      6 N6          32.6966  38.5019  34.0021 N.pl3          1 <1>                0.0000
      7 C7          33.2954  36.5558  35.3089 C.ar           1 <1>                0.0000
      8 O8          34.4743  36.4664  34.6349 O.3            1 <1>                0.0000
      9 C9          32.9925  35.6374  36.2993 C.ar           1 <1>                0.0000
     10 C10         31.7971  35.7307  36.9889 C.ar           1 <1>                0.0000
     11 N11         31.4761  34.7471  38.0475 N.pl3          1 <1>                0.0000
     12 O12         30.5850  34.9795  38.8447 O.2            1 <1>                0.0000
     13 O13         32.1029  33.7054  38.1213 O.2            1 <1>                0.0000
     14 H14         29.8234  38.7820  38.0094 H              1 <1>                0.0000
     15 H15         28.9312  38.5252  36.4906 H              1 <1>                0.0000
     16 H16         28.2015  38.0495  38.0429 H              1 <1>                0.0000
     17 H17         30.4905  38.4468  35.4562 H              1 <1>                0.0000
     18 H18         33.6920  34.8496  36.5368 H              1 <1>                0.0000
     19 H19         32.0675  39.2092  33.7900 H              1 <1>                0.0000
     20 H20         33.5363  38.4392  33.5206 H              1 <1>                0.0000
     21 H21         34.5365  37.0566  33.8713 H              1 <1>                0.0000
@<TRIPOS>BOND
    1    1    2 1     
    2    1   14 1     
    3    1   15 1     
    4    1   16 1     
    5    2    3 1     
    6    3    4 ar    
    7    3   10 ar    
    8    4    5 ar    
    9    4   17 1     
   10    5    6 1     
   11    5    7 ar    
   12    6   19 1     
   13    6   20 1     
   14    7    8 1     
   15    7    9 ar    
   16    8   21 1     
   17    9   10 ar    
   18    9   18 1     
   19   10   11 1     
   20   11   12 2     
   21   11   13 2     
@<TRIPOS>SUBSTRUCTURE
      1 ****           1
@<TRIPOS>SET
DONOR_HYDROGENS      STATIC     ATOMS    <user>   **** ""
3 19 20 21
ATOM$RED        STATIC     ATOMS    COLORGROUP SYSTEM
3 19 20 21
@<TRIPOS>COMMENT
> <Gold.Version>
2022.2.0

> <Gold.Id.Protein>
1qkm|1qkm_protein|mol2

> <Gold.Protein.RotatedTorsions>
[  496  491  490  487 ] final  103.86 input  -89.99 | X-H torsion

> <Gold.Protein.ActiveResidues>
 MET295  LEU298  THR299  LEU301  ALA302  GLU305  TRP335  MET336  LEU339  MET340 
 GLY342  LEU343  ARG346  PHE356  ILE373  ILE376  PHE377  LEU380  LYS471  GLY472 
 MET473  HIS475  LEU476  LEU477  ASN478  MET479  VAL484  VAL487 

> <Gold.Protein.RotatedAtoms>
   36.9461   32.9556   41.8465 H   0  0  0  0  0  0  0  0  0  0  0  0  # atno 496  bound_to 491 

> <Gold.Score>
     Score     S(PLP)   S(hbond)     S(cho)   S(metal)  DE(clash)   DE(tors)     intcor
     37.27     -32.66       1.60       0.00       0.00       0.00       0.49       0.79

> <Gold.PLP.Fitness>
37.2725

> <Gold.PLP.PLP>
-32.6613

> <Gold.PLP.part.hbond>
-2.4999

> <Gold.PLP.part.metal>
0.0000

> <Gold.PLP.part.buried>
-2.6099

> <Gold.PLP.part.nonpolar>
-27.8264

> <Gold.PLP.part.repulsive>
0.1655

> <Gold.PLP.ligand.clash>
0.0000

> <Gold.PLP.ligand.torsion>
0.4872

> <Gold.PLP.Chemscore.Hbond>
1.6000

> <Gold.PLP.Chemscore.CHOScore>
0.0000

> <Gold.PLP.Chemscore.Metal>
0.0000

> <Gold.Chemscore.Hbonds>
donor molecule, donor type, donor heavy atom, donor atom, acceptor molecule, acceptor atom, score
      L1  H     6    20       P1  3229  0.60
      L1  H     8    21       P1  3229  1.00

> <Gold.PLP.Chemscore.Internal.Correction>
0.7856

