#       Name:                EN300-107373_i001
#       Creating user name   aseyller
#       Creation time:       Fri Apr 21 16:28:19 2023


#       File generated by GOLD software.
#

@<TRIPOS>MOLECULE
EN300-107373_i001|aminophenols|mol2|25|dock11
    21    21     1
SMALL
USER_CHARGES


@<TRIPOS>ATOM
      1 C1          29.1130  39.5215  36.1083 C.3            1 <1>                0.0000
      2 O2          29.9028  38.3460  36.2989 O.3            1 <1>                0.0000
      3 C3          29.6997  37.6453  37.4464 C.ar           1 <1>                0.0000
      4 C4          28.4501  37.6477  38.0478 C.ar           1 <1>                0.0000
      5 C5          28.2440  36.9324  39.2177 C.ar           1 <1>                0.0000
      6 N6          26.9841  36.9325  39.8268 N.pl3          1 <1>                0.0000
      7 C7          29.2936  36.2129  39.7854 C.ar           1 <1>                0.0000
      8 O8          29.0946  35.5095  40.9333 O.3            1 <1>                0.0000
      9 C9          30.5389  36.2141  39.1808 C.ar           1 <1>                0.0000
     10 C10         30.7408  36.9240  38.0110 C.ar           1 <1>                0.0000
     11 N11         32.0735  36.9232  37.3670 N.pl3          1 <1>                0.0000
     12 O12         32.9265  36.1346  37.7334 O.2            1 <1>                0.0000
     13 O13         32.3173  37.7109  36.4705 O.2            1 <1>                0.0000
     14 H14         28.0566  39.2528  36.1042 H              1 <1>                0.0000
     15 H15         29.3060  40.2244  36.9188 H              1 <1>                0.0000
     16 H16         29.3738  39.9841  35.1564 H              1 <1>                0.0000
     17 H17         27.6385  38.2065  37.6058 H              1 <1>                0.0000
     18 H18         31.3526  35.6566  39.6206 H              1 <1>                0.0000
     19 H19         26.2539  37.4334  39.4305 H              1 <1>                0.0000
     20 H20         26.8409  36.4319  40.6451 H              1 <1>                0.0000
     21 H21         29.9037  35.3368  41.4341 H              1 <1>                0.0000
@<TRIPOS>BOND
    1    1    2 1     
    2    1   14 1     
    3    1   15 1     
    4    1   16 1     
    5    2    3 1     
    6    3    4 ar    
    7    3   10 ar    
    8    4    5 ar    
    9    4   17 1     
   10    5    6 1     
   11    5    7 ar    
   12    6   19 1     
   13    6   20 1     
   14    7    8 1     
   15    7    9 ar    
   16    8   21 1     
   17    9   10 ar    
   18    9   18 1     
   19   10   11 1     
   20   11   12 2     
   21   11   13 2     
@<TRIPOS>SUBSTRUCTURE
      1 ****           1
@<TRIPOS>SET
DONOR_HYDROGENS      STATIC     ATOMS    <user>   **** ""
3 19 20 21
ATOM$RED        STATIC     ATOMS    COLORGROUP SYSTEM
3 19 20 21
@<TRIPOS>COMMENT
> <Gold.Version>
2022.2.0

> <Gold.Id.Protein>
1qkm|1qkm_protein|mol2

> <Gold.Protein.RotatedTorsions>
[  496  491  490  487 ] final -112.31 input  -89.99 | X-H torsion

> <Gold.Protein.ActiveResidues>
 MET295  LEU298  THR299  LEU301  ALA302  GLU305  TRP335  MET336  LEU339  MET340 
 GLY342  LEU343  ARG346  PHE356  ILE373  ILE376  PHE377  LEU380  LYS471  GLY472 
 MET473  HIS475  LEU476  LEU477  ASN478  MET479  VAL484  VAL487 

> <Gold.Protein.RotatedAtoms>
   36.9606   34.4495   40.8548 H   0  0  0  0  0  0  0  0  0  0  0  0  # atno 496  bound_to 491 

> <Gold.Score>
     Score     S(PLP)   S(hbond)     S(cho)   S(metal)  DE(clash)   DE(tors)     intcor
     34.16     -31.25       1.00       0.00       0.00       0.00       0.44       0.78

> <Gold.PLP.Fitness>
34.1603

> <Gold.PLP.PLP>
-31.2494

> <Gold.PLP.part.hbond>
-1.0000

> <Gold.PLP.part.metal>
0.0000

> <Gold.PLP.part.buried>
-4.8320

> <Gold.PLP.part.nonpolar>
-26.1823

> <Gold.PLP.part.repulsive>
0.0223

> <Gold.PLP.ligand.clash>
0.0000

> <Gold.PLP.ligand.torsion>
0.4361

> <Gold.PLP.Chemscore.Hbond>
1.0000

> <Gold.PLP.Chemscore.CHOScore>
0.0000

> <Gold.PLP.Chemscore.Metal>
0.0000

> <Gold.Chemscore.Hbonds>
donor molecule, donor type, donor heavy atom, donor atom, acceptor molecule, acceptor atom, score
      L1  H     8    21       P1   470  1.00

> <Gold.PLP.Chemscore.Internal.Correction>
0.7832

