#       Name:                EN300-107373_i001
#       Creating user name   aseyller
#       Creation time:       Fri Apr 21 16:28:12 2023


#       File generated by GOLD software.
#

@<TRIPOS>MOLECULE
EN300-107373_i001|aminophenols|mol2|25|dock3
    21    21     1
SMALL
USER_CHARGES


@<TRIPOS>ATOM
      1 C1          32.0552  34.1338  38.4565 C.3            1 <1>                0.0000
      2 O2          31.5705  35.4780  38.4422 O.3            1 <1>                0.0000
      3 C3          31.8564  36.2255  37.3429 C.ar           1 <1>                0.0000
      4 C4          33.0185  35.9858  36.6250 C.ar           1 <1>                0.0000
      5 C5          33.3088  36.7484  35.5039 C.ar           1 <1>                0.0000
      6 N6          34.4804  36.5087  34.7771 N.pl3          1 <1>                0.0000
      7 C7          32.4315  37.7535  35.1019 C.ar           1 <1>                0.0000
      8 O8          32.7132  38.5035  34.0018 O.3            1 <1>                0.0000
      9 C9          31.2730  37.9885  35.8222 C.ar           1 <1>                0.0000
     10 C10         30.9828  37.2231  36.9371 C.ar           1 <1>                0.0000
     11 N11         29.7432  37.4767  37.7053 N.pl3          1 <1>                0.0000
     12 O12         28.8763  38.1962  37.2421 O.2            1 <1>                0.0000
     13 O13         29.5899  36.9661  38.8003 O.2            1 <1>                0.0000
     14 H14         31.6344  33.5868  37.6129 H              1 <1>                0.0000
     15 H15         33.1426  34.1388  38.3804 H              1 <1>                0.0000
     16 H16         31.7584  33.6505  39.3873 H              1 <1>                0.0000
     17 H17         33.6968  35.2063  36.9391 H              1 <1>                0.0000
     18 H18         30.5928  38.7675  35.5109 H              1 <1>                0.0000
     19 H19         35.0904  35.8084  35.0576 H              1 <1>                0.0000
     20 H20         34.6828  37.0427  33.9930 H              1 <1>                0.0000
     21 H21         33.6561  38.5584  33.7941 H              1 <1>                0.0000
@<TRIPOS>BOND
    1    1    2 1     
    2    1   14 1     
    3    1   15 1     
    4    1   16 1     
    5    2    3 1     
    6    3    4 ar    
    7    3   10 ar    
    8    4    5 ar    
    9    4   17 1     
   10    5    6 1     
   11    5    7 ar    
   12    6   19 1     
   13    6   20 1     
   14    7    8 1     
   15    7    9 ar    
   16    8   21 1     
   17    9   10 ar    
   18    9   18 1     
   19   10   11 1     
   20   11   12 2     
   21   11   13 2     
@<TRIPOS>SUBSTRUCTURE
      1 ****           1
@<TRIPOS>SET
DONOR_HYDROGENS      STATIC     ATOMS    <user>   **** ""
3 19 20 21
ATOM$RED        STATIC     ATOMS    COLORGROUP SYSTEM
3 19 20 21
@<TRIPOS>COMMENT
> <Gold.Version>
2022.2.0

> <Gold.Id.Protein>
1qkm|1qkm_protein|mol2

> <Gold.Protein.RotatedTorsions>
[  496  491  490  487 ] final  151.17 input  -89.99 | X-H torsion

> <Gold.Protein.ActiveResidues>
 MET295  LEU298  THR299  LEU301  ALA302  GLU305  TRP335  MET336  LEU339  MET340 
 GLY342  LEU343  ARG346  PHE356  ILE373  ILE376  PHE377  LEU380  LYS471  GLY472 
 MET473  HIS475  LEU476  LEU477  ASN478  MET479  VAL484  VAL487 

> <Gold.Protein.RotatedAtoms>
   37.2675   33.1149   41.1801 H   0  0  0  0  0  0  0  0  0  0  0  0  # atno 496  bound_to 491 

> <Gold.Score>
     Score     S(PLP)   S(hbond)     S(cho)   S(metal)  DE(clash)   DE(tors)     intcor
     37.66     -31.82       1.98       0.00       0.00       0.00       0.44       0.79

> <Gold.PLP.Fitness>
37.6571

> <Gold.PLP.PLP>
-31.8229

> <Gold.PLP.part.hbond>
-2.0000

> <Gold.PLP.part.metal>
0.0000

> <Gold.PLP.part.buried>
-2.7537

> <Gold.PLP.part.nonpolar>
-27.4143

> <Gold.PLP.part.repulsive>
0.1921

> <Gold.PLP.ligand.clash>
0.0000

> <Gold.PLP.ligand.torsion>
0.4382

> <Gold.PLP.Chemscore.Hbond>
1.9750

> <Gold.PLP.Chemscore.CHOScore>
0.0000

> <Gold.PLP.Chemscore.Metal>
0.0000

> <Gold.Chemscore.Hbonds>
donor molecule, donor type, donor heavy atom, donor atom, acceptor molecule, acceptor atom, score
      L1  H     6    20       P1  3229  1.00
      L1  H     8    21       P1  3229  0.98

> <Gold.PLP.Chemscore.Internal.Correction>
0.7856

