#       Name:                EN300-107373_i001
#       Creating user name   aseyller
#       Creation time:       Fri Apr 21 16:28:25 2023


#       File generated by GOLD software.
#

@<TRIPOS>MOLECULE
EN300-107373_i001|aminophenols|mol2|25|dock18
    21    21     1
SMALL
USER_CHARGES


@<TRIPOS>ATOM
      1 C1          28.1581  38.1377  37.5926 C.3            1 <1>                0.0000
      2 O2          29.3827  37.5361  38.0172 O.3            1 <1>                0.0000
      3 C3          30.3306  37.3273  37.0649 C.ar           1 <1>                0.0000
      4 C4          30.4120  38.1753  35.9706 C.ar           1 <1>                0.0000
      5 C5          31.3793  37.9617  35.0003 C.ar           1 <1>                0.0000
      6 N6          31.4642  38.8159  33.8951 N.pl3          1 <1>                0.0000
      7 C7          32.2670  36.8953  35.1281 C.ar           1 <1>                0.0000
      8 O8          33.2178  36.6831  34.1778 O.3            1 <1>                0.0000
      9 C9          32.1812  36.0520  36.2225 C.ar           1 <1>                0.0000
     10 C10         31.2189  36.2701  37.1918 C.ar           1 <1>                0.0000
     11 N11         31.1298  35.3665  38.3609 N.pl3          1 <1>                0.0000
     12 O12         31.7518  34.3193  38.3699 O.2            1 <1>                0.0000
     13 O13         30.4346  35.6702  39.3137 O.2            1 <1>                0.0000
     14 H14         28.3644  39.1187  37.1647 H              1 <1>                0.0000
     15 H15         27.6843  37.5059  36.8412 H              1 <1>                0.0000
     16 H16         27.4914  38.2472  38.4479 H              1 <1>                0.0000
     17 H17         29.7224  39.0008  35.8739 H              1 <1>                0.0000
     18 H18         32.8691  35.2253  36.3217 H              1 <1>                0.0000
     19 H19         30.8460  39.5583  33.8072 H              1 <1>                0.0000
     20 H20         32.1411  38.6657  33.2168 H              1 <1>                0.0000
     21 H21         32.9255  36.1205  33.4476 H              1 <1>                0.0000
@<TRIPOS>BOND
    1    1    2 1     
    2    1   14 1     
    3    1   15 1     
    4    1   16 1     
    5    2    3 1     
    6    3    4 ar    
    7    3   10 ar    
    8    4    5 ar    
    9    4   17 1     
   10    5    6 1     
   11    5    7 ar    
   12    6   19 1     
   13    6   20 1     
   14    7    8 1     
   15    7    9 ar    
   16    8   21 1     
   17    9   10 ar    
   18    9   18 1     
   19   10   11 1     
   20   11   12 2     
   21   11   13 2     
@<TRIPOS>SUBSTRUCTURE
      1 ****           1
@<TRIPOS>SET
DONOR_HYDROGENS      STATIC     ATOMS    <user>   **** ""
3 19 20 21
ATOM$RED        STATIC     ATOMS    COLORGROUP SYSTEM
3 19 20 21
@<TRIPOS>COMMENT
> <Gold.Version>
2022.2.0

> <Gold.Id.Protein>
1qkm|1qkm_protein|mol2

> <Gold.Protein.RotatedTorsions>
[  496  491  490  487 ] final  179.39 input  -89.99 | X-H torsion

> <Gold.Protein.ActiveResidues>
 MET295  LEU298  THR299  LEU301  ALA302  GLU305  TRP335  MET336  LEU339  MET340 
 GLY342  LEU343  ARG346  PHE356  ILE373  ILE376  PHE377  LEU380  LYS471  GLY472 
 MET473  HIS475  LEU476  LEU477  ASN478  MET479  VAL484  VAL487 

> <Gold.Protein.RotatedAtoms>
   37.3182   33.4529   40.8725 H   0  0  0  0  0  0  0  0  0  0  0  0  # atno 496  bound_to 491 

> <Gold.Score>
     Score     S(PLP)   S(hbond)     S(cho)   S(metal)  DE(clash)   DE(tors)     intcor
     33.60     -30.69       1.00       0.00       0.00       0.00       0.44       0.78

> <Gold.PLP.Fitness>
33.5970

> <Gold.PLP.PLP>
-30.6926

> <Gold.PLP.part.hbond>
-1.6216

> <Gold.PLP.part.metal>
0.0000

> <Gold.PLP.part.buried>
-4.0977

> <Gold.PLP.part.nonpolar>
-25.0467

> <Gold.PLP.part.repulsive>
0.1750

> <Gold.PLP.ligand.clash>
0.0000

> <Gold.PLP.ligand.torsion>
0.4393

> <Gold.PLP.Chemscore.Hbond>
1.0000

> <Gold.PLP.Chemscore.CHOScore>
0.0000

> <Gold.PLP.Chemscore.Metal>
0.0000

> <Gold.Chemscore.Hbonds>
donor molecule, donor type, donor heavy atom, donor atom, acceptor molecule, acceptor atom, score
      L1  H     8    21       P1  3187  1.00

> <Gold.PLP.Chemscore.Internal.Correction>
0.7832

