#       Name:                EN300-107373_i001
#       Creating user name   aseyller
#       Creation time:       Fri Apr 21 16:28:22 2023


#       File generated by GOLD software.
#

@<TRIPOS>MOLECULE
EN300-107373_i001|aminophenols|mol2|25|dock15
    21    21     1
SMALL
USER_CHARGES


@<TRIPOS>ATOM
      1 C1          27.4568  38.8725  37.2982 C.3            1 <1>                0.0000
      2 O2          28.8227  38.7441  36.8985 O.3            1 <1>                0.0000
      3 C3          29.5500  37.7609  37.4929 C.ar           1 <1>                0.0000
      4 C4          29.1814  37.2853  38.7424 C.ar           1 <1>                0.0000
      5 C5          29.9235  36.2823  39.3475 C.ar           1 <1>                0.0000
      6 N6          29.5538  35.8001  40.6080 N.pl3          1 <1>                0.0000
      7 C7          31.0377  35.7552  38.6977 C.ar           1 <1>                0.0000
      8 O8          31.7679  34.7704  39.2885 O.3            1 <1>                0.0000
      9 C9          31.4011  36.2337  37.4506 C.ar           1 <1>                0.0000
     10 C10         30.6563  37.2305  36.8466 C.ar           1 <1>                0.0000
     11 N11         31.0475  37.7400  35.5131 N.pl3          1 <1>                0.0000
     12 O12         31.8883  37.1500  34.8584 O.2            1 <1>                0.0000
     13 O13         30.5286  38.7490  35.0703 O.2            1 <1>                0.0000
     14 H14         26.9264  37.9449  37.0827 H              1 <1>                0.0000
     15 H15         27.4089  39.0784  38.3676 H              1 <1>                0.0000
     16 H16         26.9931  39.6920  36.7493 H              1 <1>                0.0000
     17 H17         28.3175  37.6960  39.2439 H              1 <1>                0.0000
     18 H18         32.2647  35.8253  36.9468 H              1 <1>                0.0000
     19 H19         28.7777  36.1674  41.0594 H              1 <1>                0.0000
     20 H20         30.0735  35.0985  41.0306 H              1 <1>                0.0000
     21 H21         31.6259  34.6936  40.2420 H              1 <1>                0.0000
@<TRIPOS>BOND
    1    1    2 1     
    2    1   14 1     
    3    1   15 1     
    4    1   16 1     
    5    2    3 1     
    6    3    4 ar    
    7    3   10 ar    
    8    4    5 ar    
    9    4   17 1     
   10    5    6 1     
   11    5    7 ar    
   12    6   19 1     
   13    6   20 1     
   14    7    8 1     
   15    7    9 ar    
   16    8   21 1     
   17    9   10 ar    
   18    9   18 1     
   19   10   11 1     
   20   11   12 2     
   21   11   13 2     
@<TRIPOS>SUBSTRUCTURE
      1 ****           1
@<TRIPOS>SET
DONOR_HYDROGENS      STATIC     ATOMS    <user>   **** ""
3 19 20 21
ATOM$RED        STATIC     ATOMS    COLORGROUP SYSTEM
3 19 20 21
@<TRIPOS>COMMENT
> <Gold.Version>
2022.2.0

> <Gold.Id.Protein>
1qkm|1qkm_protein|mol2

> <Gold.Protein.RotatedTorsions>
[  496  491  490  487 ] final -147.01 input  -89.99 | X-H torsion

> <Gold.Protein.ActiveResidues>
 MET295  LEU298  THR299  LEU301  ALA302  GLU305  TRP335  MET336  LEU339  MET340 
 GLY342  LEU343  ARG346  PHE356  ILE373  ILE376  PHE377  LEU380  LYS471  GLY472 
 MET473  HIS475  LEU476  LEU477  ASN478  MET479  VAL484  VAL487 

> <Gold.Protein.RotatedAtoms>
   37.2154   33.9665   40.7205 H   0  0  0  0  0  0  0  0  0  0  0  0  # atno 496  bound_to 491 

> <Gold.Score>
     Score     S(PLP)   S(hbond)     S(cho)   S(metal)  DE(clash)   DE(tors)     intcor
     36.89     -32.26       1.55       0.00       0.00       0.00       0.40       0.78

> <Gold.PLP.Fitness>
36.8890

> <Gold.PLP.PLP>
-32.2576

> <Gold.PLP.part.hbond>
-2.0000

> <Gold.PLP.part.metal>
0.0000

> <Gold.PLP.part.buried>
-3.7460

> <Gold.PLP.part.nonpolar>
-26.3911

> <Gold.PLP.part.repulsive>
0.1843

> <Gold.PLP.ligand.clash>
0.0000

> <Gold.PLP.ligand.torsion>
0.4013

> <Gold.PLP.Chemscore.Hbond>
1.5503

> <Gold.PLP.Chemscore.CHOScore>
0.0000

> <Gold.PLP.Chemscore.Metal>
0.0000

> <Gold.Chemscore.Hbonds>
donor molecule, donor type, donor heavy atom, donor atom, acceptor molecule, acceptor atom, score
      L1  H     6    20       P1   470  0.65
      L1  H     8    21       P1   470  0.90

> <Gold.PLP.Chemscore.Internal.Correction>
0.7832

