#       Name:                EN300-107373_i001
#       Creating user name   aseyller
#       Creation time:       Fri Apr 21 16:28:26 2023


#       File generated by GOLD software.
#

@<TRIPOS>MOLECULE
EN300-107373_i001|aminophenols|mol2|25|dock20
    21    21     1
SMALL
USER_CHARGES


@<TRIPOS>ATOM
      1 C1          28.8921  39.2825  36.9973 C.3            1 <1>                0.0000
      2 O2          29.3015  37.9419  37.2752 O.3            1 <1>                0.0000
      3 C3          30.5075  37.5504  36.7840 C.ar           1 <1>                0.0000
      4 C4          31.0211  38.1538  35.6458 C.ar           1 <1>                0.0000
      5 C5          32.2512  37.7541  35.1460 C.ar           1 <1>                0.0000
      6 N6          32.7723  38.3614  33.9979 N.pl3          1 <1>                0.0000
      7 C7          32.9678  36.7471  35.7893 C.ar           1 <1>                0.0000
      8 O8          34.1755  36.3527  35.3017 O.3            1 <1>                0.0000
      9 C9          32.4504  36.1482  36.9250 C.ar           1 <1>                0.0000
     10 C10         31.2256  36.5521  37.4249 C.ar           1 <1>                0.0000
     11 N11         30.6750  35.9098  38.6395 N.pl3          1 <1>                0.0000
     12 O12         31.1887  34.8964  39.0785 O.2            1 <1>                0.0000
     13 O13         29.7084  36.3945  39.2000 O.2            1 <1>                0.0000
     14 H14         29.6189  39.9786  37.4161 H              1 <1>                0.0000
     15 H15         28.8300  39.4273  35.9187 H              1 <1>                0.0000
     16 H16         27.9151  39.4642  37.4451 H              1 <1>                0.0000
     17 H17         30.4633  38.9339  35.1491 H              1 <1>                0.0000
     18 H18         33.0055  35.3676  37.4238 H              1 <1>                0.0000
     19 H19         32.2728  39.0627  33.5510 H              1 <1>                0.0000
     20 H20         33.6328  38.0811  33.6490 H              1 <1>                0.0000
     21 H21         34.2206  36.3275  34.3360 H              1 <1>                0.0000
@<TRIPOS>BOND
    1    1    2 1     
    2    1   14 1     
    3    1   15 1     
    4    1   16 1     
    5    2    3 1     
    6    3    4 ar    
    7    3   10 ar    
    8    4    5 ar    
    9    4   17 1     
   10    5    6 1     
   11    5    7 ar    
   12    6   19 1     
   13    6   20 1     
   14    7    8 1     
   15    7    9 ar    
   16    8   21 1     
   17    9   10 ar    
   18    9   18 1     
   19   10   11 1     
   20   11   12 2     
   21   11   13 2     
@<TRIPOS>SUBSTRUCTURE
      1 ****           1
@<TRIPOS>SET
DONOR_HYDROGENS      STATIC     ATOMS    <user>   **** ""
3 19 20 21
ATOM$RED        STATIC     ATOMS    COLORGROUP SYSTEM
3 19 20 21
@<TRIPOS>COMMENT
> <Gold.Version>
2022.2.0

> <Gold.Id.Protein>
1qkm|1qkm_protein|mol2

> <Gold.Protein.RotatedTorsions>
[  496  491  490  487 ] final   37.65 input  -89.99 | X-H torsion

> <Gold.Protein.ActiveResidues>
 MET295  LEU298  THR299  LEU301  ALA302  GLU305  TRP335  MET336  LEU339  MET340 
 GLY342  LEU343  ARG346  PHE356  ILE373  ILE376  PHE377  LEU380  LYS471  GLY472 
 MET473  HIS475  LEU476  LEU477  ASN478  MET479  VAL484  VAL487 

> <Gold.Protein.RotatedAtoms>
   36.3891   33.6371   42.3821 H   0  0  0  0  0  0  0  0  0  0  0  0  # atno 496  bound_to 491 

> <Gold.Score>
     Score     S(PLP)   S(hbond)     S(cho)   S(metal)  DE(clash)   DE(tors)     intcor
     33.96     -31.35       0.89       0.00       0.00       0.00       0.43       0.78

> <Gold.PLP.Fitness>
33.9559

> <Gold.PLP.PLP>
-31.3497

> <Gold.PLP.part.hbond>
-1.0000

> <Gold.PLP.part.metal>
0.0000

> <Gold.PLP.part.buried>
-3.5325

> <Gold.PLP.part.nonpolar>
-26.7445

> <Gold.PLP.part.repulsive>
0.6619

> <Gold.PLP.ligand.clash>
0.0000

> <Gold.PLP.ligand.torsion>
0.4266

> <Gold.PLP.Chemscore.Hbond>
0.8921

> <Gold.PLP.Chemscore.CHOScore>
0.0000

> <Gold.PLP.Chemscore.Metal>
0.0000

> <Gold.Chemscore.Hbonds>
donor molecule, donor type, donor heavy atom, donor atom, acceptor molecule, acceptor atom, score
      L1  H     6    20       P1  3229  0.89

> <Gold.PLP.Chemscore.Internal.Correction>
0.7832

