#       Name:                EN300-107373_i001
#       Creating user name   aseyller
#       Creation time:       Fri Apr 21 16:28:10 2023


#       File generated by GOLD software.
#

@<TRIPOS>MOLECULE
EN300-107373_i001|aminophenols|mol2|25|dock1
    21    21     1
SMALL
USER_CHARGES


@<TRIPOS>ATOM
      1 C1          31.4133  35.5369  38.7480 C.3            1 <1>                0.0000
      2 O2          30.5789  36.6814  38.5581 O.3            1 <1>                0.0000
      3 C3          29.3225  36.6217  39.0746 C.ar           1 <1>                0.0000
      4 C4          29.0754  35.8654  40.2105 C.ar           1 <1>                0.0000
      5 C5          27.7938  35.8057  40.7366 C.ar           1 <1>                0.0000
      6 N6          27.5415  35.0436  41.8829 N.pl3          1 <1>                0.0000
      7 C7          26.7580  36.5063  40.1222 C.ar           1 <1>                0.0000
      8 O8          25.4991  36.4502  40.6363 O.3            1 <1>                0.0000
      9 C9          27.0102  37.2597  38.9886 C.ar           1 <1>                0.0000
     10 C10         28.2904  37.3221  38.4686 C.ar           1 <1>                0.0000
     11 N11         28.5570  38.1286  37.2563 N.pl3          1 <1>                0.0000
     12 O12         27.8598  39.0944  37.0021 O.2            1 <1>                0.0000
     13 O13         29.4734  37.8265  36.5131 O.2            1 <1>                0.0000
     14 H14         31.5436  35.3553  39.8148 H              1 <1>                0.0000
     15 H15         30.9474  34.6667  38.2855 H              1 <1>                0.0000
     16 H16         32.3854  35.7158  38.2885 H              1 <1>                0.0000
     17 H17         29.8802  35.3231  40.6844 H              1 <1>                0.0000
     18 H18         26.2075  37.8028  38.5121 H              1 <1>                0.0000
     19 H19         28.2634  34.5566  42.3102 H              1 <1>                0.0000
     20 H20         26.6447  35.0024  42.2502 H              1 <1>                0.0000
     21 H21         24.8035  36.3886  39.9674 H              1 <1>                0.0000
@<TRIPOS>BOND
    1    1    2 1     
    2    1   14 1     
    3    1   15 1     
    4    1   16 1     
    5    2    3 1     
    6    3    4 ar    
    7    3   10 ar    
    8    4    5 ar    
    9    4   17 1     
   10    5    6 1     
   11    5    7 ar    
   12    6   19 1     
   13    6   20 1     
   14    7    8 1     
   15    7    9 ar    
   16    8   21 1     
   17    9   10 ar    
   18    9   18 1     
   19   10   11 1     
   20   11   12 2     
   21   11   13 2     
@<TRIPOS>SUBSTRUCTURE
      1 ****           1
@<TRIPOS>SET
DONOR_HYDROGENS      STATIC     ATOMS    <user>   **** ""
3 19 20 21
ATOM$RED        STATIC     ATOMS    COLORGROUP SYSTEM
3 19 20 21
@<TRIPOS>COMMENT
> <Gold.Version>
2022.2.0

> <Gold.Id.Protein>
1qkm|1qkm_protein|mol2

> <Gold.Protein.RotatedTorsions>
[  496  491  490  487 ] final -166.68 input  -89.99 | X-H torsion

> <Gold.Protein.ActiveResidues>
 MET295  LEU298  THR299  LEU301  ALA302  GLU305  TRP335  MET336  LEU339  MET340 
 GLY342  LEU343  ARG346  PHE356  ILE373  ILE376  PHE377  LEU380  LYS471  GLY472 
 MET473  HIS475  LEU476  LEU477  ASN478  MET479  VAL484  VAL487 

> <Gold.Protein.RotatedAtoms>
   37.2964   33.6598   40.7769 H   0  0  0  0  0  0  0  0  0  0  0  0  # atno 496  bound_to 491 

> <Gold.Score>
     Score     S(PLP)   S(hbond)     S(cho)   S(metal)  DE(clash)   DE(tors)     intcor
     38.86     -37.12       0.78       0.00       0.00       0.00       0.69       0.79

> <Gold.PLP.Fitness>
38.8572

> <Gold.PLP.PLP>
-37.1246

> <Gold.PLP.part.hbond>
-1.3730

> <Gold.PLP.part.metal>
0.0000

> <Gold.PLP.part.buried>
-6.2515

> <Gold.PLP.part.nonpolar>
-29.4667

> <Gold.PLP.part.repulsive>
0.1235

> <Gold.PLP.ligand.clash>
0.0000

> <Gold.PLP.ligand.torsion>
0.6894

> <Gold.PLP.Chemscore.Hbond>
0.7753

> <Gold.PLP.Chemscore.CHOScore>
0.0000

> <Gold.PLP.Chemscore.Metal>
0.0000

> <Gold.Chemscore.Hbonds>
donor molecule, donor type, donor heavy atom, donor atom, acceptor molecule, acceptor atom, score
      L1  H     6    20       P1   582  0.64
      L1  H     8    21       P1  1131  0.14

> <Gold.PLP.Chemscore.Internal.Correction>
0.7856

