#       Name:                EN300-107373_i001
#       Creating user name   aseyller
#       Creation time:       Fri Apr 21 16:28:18 2023


#       File generated by GOLD software.
#

@<TRIPOS>MOLECULE
EN300-107373_i001|aminophenols|mol2|25|dock10
    21    21     1
SMALL
USER_CHARGES


@<TRIPOS>ATOM
      1 C1          34.1057  36.3290  35.1449 C.3            1 <1>                0.0000
      2 O2          32.7779  36.8526  35.2128 O.3            1 <1>                0.0000
      3 C3          32.0924  36.6488  36.3693 C.ar           1 <1>                0.0000
      4 C4          32.3717  35.5401  37.1542 C.ar           1 <1>                0.0000
      5 C5          31.6723  35.3335  38.3336 C.ar           1 <1>                0.0000
      6 N6          31.9522  34.2160  39.1280 N.pl3          1 <1>                0.0000
      7 C7          30.6908  36.2411  38.7267 C.ar           1 <1>                0.0000
      8 O8          30.0030  36.0416  39.8838 O.3            1 <1>                0.0000
      9 C9          30.4162  37.3461  37.9393 C.ar           1 <1>                0.0000
     10 C10         31.1186  37.5529  36.7659 C.ar           1 <1>                0.0000
     11 N11         30.8226  38.7354  35.9262 N.pl3          1 <1>                0.0000
     12 O12         30.1308  39.6365  36.3656 O.2            1 <1>                0.0000
     13 O13         31.2707  38.8075  34.7960 O.2            1 <1>                0.0000
     14 H14         34.7143  36.7790  35.9292 H              1 <1>                0.0000
     15 H15         34.0775  35.2479  35.2821 H              1 <1>                0.0000
     16 H16         34.5382  36.5604  34.1716 H              1 <1>                0.0000
     17 H17         33.1327  34.8381  36.8469 H              1 <1>                0.0000
     18 H18         29.6554  38.0497  38.2437 H              1 <1>                0.0000
     19 H19         32.6360  33.5849  38.8537 H              1 <1>                0.0000
     20 H20         31.4625  34.0722  39.9529 H              1 <1>                0.0000
     21 H21         30.5570  35.7723  40.6293 H              1 <1>                0.0000
@<TRIPOS>BOND
    1    1    2 1     
    2    1   14 1     
    3    1   15 1     
    4    1   16 1     
    5    2    3 1     
    6    3    4 ar    
    7    3   10 ar    
    8    4    5 ar    
    9    4   17 1     
   10    5    6 1     
   11    5    7 ar    
   12    6   19 1     
   13    6   20 1     
   14    7    8 1     
   15    7    9 ar    
   16    8   21 1     
   17    9   10 ar    
   18    9   18 1     
   19   10   11 1     
   20   11   12 2     
   21   11   13 2     
@<TRIPOS>SUBSTRUCTURE
      1 ****           1
@<TRIPOS>SET
DONOR_HYDROGENS      STATIC     ATOMS    <user>   **** ""
3 19 20 21
ATOM$RED        STATIC     ATOMS    COLORGROUP SYSTEM
3 19 20 21
@<TRIPOS>COMMENT
> <Gold.Version>
2022.2.0

> <Gold.Id.Protein>
1qkm|1qkm_protein|mol2

> <Gold.Protein.RotatedTorsions>
[  496  491  490  487 ] final   64.62 input  -89.99 | X-H torsion

> <Gold.Protein.ActiveResidues>
 MET295  LEU298  THR299  LEU301  ALA302  GLU305  TRP335  MET336  LEU339  MET340 
 GLY342  LEU343  ARG346  PHE356  ILE373  ILE376  PHE377  LEU380  LYS471  GLY472 
 MET473  HIS475  LEU476  LEU477  ASN478  MET479  VAL484  VAL487 

> <Gold.Protein.RotatedAtoms>
   36.5904   33.2619   42.2719 H   0  0  0  0  0  0  0  0  0  0  0  0  # atno 496  bound_to 491 

> <Gold.Score>
     Score     S(PLP)   S(hbond)     S(cho)   S(metal)  DE(clash)   DE(tors)     intcor
     34.81     -31.66       1.08       0.00       0.00       0.00       0.44       0.78

> <Gold.PLP.Fitness>
34.8125

> <Gold.PLP.PLP>
-31.6635

> <Gold.PLP.part.hbond>
-1.9109

> <Gold.PLP.part.metal>
0.0000

> <Gold.PLP.part.buried>
-4.6734

> <Gold.PLP.part.nonpolar>
-26.4026

> <Gold.PLP.part.repulsive>
0.2428

> <Gold.PLP.ligand.clash>
0.0000

> <Gold.PLP.ligand.torsion>
0.4364

> <Gold.PLP.Chemscore.Hbond>
1.0796

> <Gold.PLP.Chemscore.CHOScore>
0.0000

> <Gold.PLP.Chemscore.Metal>
0.0000

> <Gold.Chemscore.Hbonds>
donor molecule, donor type, donor heavy atom, donor atom, acceptor molecule, acceptor atom, score
      L1  H     6    20       P1   470  0.08
      L1  H     8    21       P1   470  1.00

> <Gold.PLP.Chemscore.Internal.Correction>
0.7832

