#       Name:                EN300-107373_i001
#       Creating user name   aseyller
#       Creation time:       Fri Apr 21 16:28:16 2023


#       File generated by GOLD software.
#

@<TRIPOS>MOLECULE
EN300-107373_i001|aminophenols|mol2|25|dock8
    21    21     1
SMALL
USER_CHARGES


@<TRIPOS>ATOM
      1 C1          29.6340  36.6309  39.5098 C.3            1 <1>                0.0000
      2 O2          29.8783  37.7570  38.6647 O.3            1 <1>                0.0000
      3 C3          30.6359  37.5437  37.5558 C.ar           1 <1>                0.0000
      4 C4          31.5312  36.4852  37.5213 C.ar           1 <1>                0.0000
      5 C5          32.3030  36.2684  36.3899 C.ar           1 <1>                0.0000
      6 N6          33.2070  35.2008  36.3519 N.pl3          1 <1>                0.0000
      7 C7          32.1762  37.1151  35.2906 C.ar           1 <1>                0.0000
      8 O8          32.9318  36.9049  34.1784 O.3            1 <1>                0.0000
      9 C9          31.2810  38.1702  35.3305 C.ar           1 <1>                0.0000
     10 C10         30.5084  38.3814  36.4581 C.ar           1 <1>                0.0000
     11 N11         29.5520  39.5105  36.4977 N.pl3          1 <1>                0.0000
     12 O12         29.8775  40.5998  36.0605 O.2            1 <1>                0.0000
     13 O13         28.4397  39.3503  36.9672 O.2            1 <1>                0.0000
     14 H14         29.1138  35.8580  38.9439 H              1 <1>                0.0000
     15 H15         30.5829  36.2376  39.8745 H              1 <1>                0.0000
     16 H16         29.0189  36.9380  40.3555 H              1 <1>                0.0000
     17 H17         31.6276  35.8307  38.3750 H              1 <1>                0.0000
     18 H18         31.1826  38.8267  34.4786 H              1 <1>                0.0000
     19 H19         33.2941  34.6117  37.1176 H              1 <1>                0.0000
     20 H20         33.7465  35.0500  35.5601 H              1 <1>                0.0000
     21 H21         32.5006  36.3579  33.5076 H              1 <1>                0.0000
@<TRIPOS>BOND
    1    1    2 1     
    2    1   14 1     
    3    1   15 1     
    4    1   16 1     
    5    2    3 1     
    6    3    4 ar    
    7    3   10 ar    
    8    4    5 ar    
    9    4   17 1     
   10    5    6 1     
   11    5    7 ar    
   12    6   19 1     
   13    6   20 1     
   14    7    8 1     
   15    7    9 ar    
   16    8   21 1     
   17    9   10 ar    
   18    9   18 1     
   19   10   11 1     
   20   11   12 2     
   21   11   13 2     
@<TRIPOS>SUBSTRUCTURE
      1 ****           1
@<TRIPOS>SET
DONOR_HYDROGENS      STATIC     ATOMS    <user>   **** ""
3 19 20 21
ATOM$RED        STATIC     ATOMS    COLORGROUP SYSTEM
3 19 20 21
@<TRIPOS>COMMENT
> <Gold.Version>
2022.2.0

> <Gold.Id.Protein>
1qkm|1qkm_protein|mol2

> <Gold.Protein.RotatedTorsions>
[  496  491  490  487 ] final    6.86 input  -89.99 | X-H torsion

> <Gold.Protein.ActiveResidues>
 MET295  LEU298  THR299  LEU301  ALA302  GLU305  TRP335  MET336  LEU339  MET340 
 GLY342  LEU343  ARG346  PHE356  ILE373  ILE376  PHE377  LEU380  LYS471  GLY472 
 MET473  HIS475  LEU476  LEU477  ASN478  MET479  VAL484  VAL487 

> <Gold.Protein.RotatedAtoms>
   36.2673   34.1136   42.2875 H   0  0  0  0  0  0  0  0  0  0  0  0  # atno 496  bound_to 491 

> <Gold.Score>
     Score     S(PLP)   S(hbond)     S(cho)   S(metal)  DE(clash)   DE(tors)     intcor
     34.66     -32.94       1.00       0.00       0.00       0.00       1.03       0.78

> <Gold.PLP.Fitness>
34.6600

> <Gold.PLP.PLP>
-32.9422

> <Gold.PLP.part.hbond>
-1.1943

> <Gold.PLP.part.metal>
0.0000

> <Gold.PLP.part.buried>
-5.0624

> <Gold.PLP.part.nonpolar>
-26.6666

> <Gold.PLP.part.repulsive>
0.0213

> <Gold.PLP.ligand.clash>
0.0000

> <Gold.PLP.ligand.torsion>
1.0327

> <Gold.PLP.Chemscore.Hbond>
1.0000

> <Gold.PLP.Chemscore.CHOScore>
0.0000

> <Gold.PLP.Chemscore.Metal>
0.0000

> <Gold.Chemscore.Hbonds>
donor molecule, donor type, donor heavy atom, donor atom, acceptor molecule, acceptor atom, score
      L1  H     8    21       P1  3187  1.00

> <Gold.PLP.Chemscore.Internal.Correction>
0.7832

