#       Name:                EN300-107373_i001
#       Creating user name   aseyller
#       Creation time:       Fri Apr 21 16:28:26 2023


#       File generated by GOLD software.
#

@<TRIPOS>MOLECULE
EN300-107373_i001|aminophenols|mol2|25|dock19
    21    21     1
SMALL
USER_CHARGES


@<TRIPOS>ATOM
      1 C1          32.0745  37.7333  34.9502 C.3            1 <1>                0.0000
      2 O2          31.1390  38.3635  35.8275 O.3            1 <1>                0.0000
      3 C3          30.7565  37.6627  36.9282 C.ar           1 <1>                0.0000
      4 C4          31.5879  36.6827  37.4494 C.ar           1 <1>                0.0000
      5 C5          31.1969  35.9690  38.5721 C.ar           1 <1>                0.0000
      6 N6          32.0339  34.9798  39.1005 N.pl3          1 <1>                0.0000
      7 C7          29.9694  36.2391  39.1735 C.ar           1 <1>                0.0000
      8 O8          29.5829  35.5408  40.2759 O.3            1 <1>                0.0000
      9 C9          29.1434  37.2184  38.6492 C.ar           1 <1>                0.0000
     10 C10         29.5378  37.9326  37.5323 C.ar           1 <1>                0.0000
     11 N11         28.6523  38.9792  36.9739 N.pl3          1 <1>                0.0000
     12 O12         29.0978  39.8004  36.1924 O.2            1 <1>                0.0000
     13 O13         27.4783  39.0192  37.2959 O.2            1 <1>                0.0000
     14 H14         32.9941  37.5172  35.4940 H              1 <1>                0.0000
     15 H15         31.6488  36.8036  34.5722 H              1 <1>                0.0000
     16 H16         32.2940  38.3982  34.1149 H              1 <1>                0.0000
     17 H17         32.5386  36.4752  36.9809 H              1 <1>                0.0000
     18 H18         28.1919  37.4279  39.1151 H              1 <1>                0.0000
     19 H19         32.8885  34.7928  38.6814 H              1 <1>                0.0000
     20 H20         31.7596  34.4810  39.8859 H              1 <1>                0.0000
     21 H21         30.2632  35.4781  40.9603 H              1 <1>                0.0000
@<TRIPOS>BOND
    1    1    2 1     
    2    1   14 1     
    3    1   15 1     
    4    1   16 1     
    5    2    3 1     
    6    3    4 ar    
    7    3   10 ar    
    8    4    5 ar    
    9    4   17 1     
   10    5    6 1     
   11    5    7 ar    
   12    6   19 1     
   13    6   20 1     
   14    7    8 1     
   15    7    9 ar    
   16    8   21 1     
   17    9   10 ar    
   18    9   18 1     
   19   10   11 1     
   20   11   12 2     
   21   11   13 2     
@<TRIPOS>SUBSTRUCTURE
      1 ****           1
@<TRIPOS>SET
DONOR_HYDROGENS      STATIC     ATOMS    <user>   **** ""
3 19 20 21
ATOM$RED        STATIC     ATOMS    COLORGROUP SYSTEM
3 19 20 21
@<TRIPOS>COMMENT
> <Gold.Version>
2022.2.0

> <Gold.Id.Protein>
1qkm|1qkm_protein|mol2

> <Gold.Protein.RotatedTorsions>
[  496  491  490  487 ] final  141.57 input  -89.99 | X-H torsion

> <Gold.Protein.ActiveResidues>
 MET295  LEU298  THR299  LEU301  ALA302  GLU305  TRP335  MET336  LEU339  MET340 
 GLY342  LEU343  ARG346  PHE356  ILE373  ILE376  PHE377  LEU380  LYS471  GLY472 
 MET473  HIS475  LEU476  LEU477  ASN478  MET479  VAL484  VAL487 

> <Gold.Protein.RotatedAtoms>
   37.2228   33.0361   41.3093 H   0  0  0  0  0  0  0  0  0  0  0  0  # atno 496  bound_to 491 

> <Gold.Score>
     Score     S(PLP)   S(hbond)     S(cho)   S(metal)  DE(clash)   DE(tors)     intcor
     35.67     -32.21       1.20       0.00       0.00       0.00       0.47       0.78

> <Gold.PLP.Fitness>
35.6666

> <Gold.PLP.PLP>
-32.2127

> <Gold.PLP.part.hbond>
-2.0000

> <Gold.PLP.part.metal>
0.0000

> <Gold.PLP.part.buried>
-1.9046

> <Gold.PLP.part.nonpolar>
-28.1814

> <Gold.PLP.part.repulsive>
0.0911

> <Gold.PLP.ligand.clash>
0.0000

> <Gold.PLP.ligand.torsion>
0.4679

> <Gold.PLP.Chemscore.Hbond>
1.2022

> <Gold.PLP.Chemscore.CHOScore>
0.0000

> <Gold.PLP.Chemscore.Metal>
0.0000

> <Gold.Chemscore.Hbonds>
donor molecule, donor type, donor heavy atom, donor atom, acceptor molecule, acceptor atom, score
      L1  H     6    20       P1   470  0.20
      L1  H     8    21       P1   470  1.00

> <Gold.PLP.Chemscore.Internal.Correction>
0.7832

