#       Name:                EN300-107373_i001
#       Creating user name   aseyller
#       Creation time:       Fri Apr 21 16:28:17 2023


#       File generated by GOLD software.
#

@<TRIPOS>MOLECULE
EN300-107373_i001|aminophenols|mol2|25|dock9
    21    21     1
SMALL
USER_CHARGES


@<TRIPOS>ATOM
      1 C1          27.9840  39.1055  37.0029 C.3            1 <1>                0.0000
      2 O2          28.7098  37.8977  37.2408 O.3            1 <1>                0.0000
      3 C3          28.3993  37.2028  38.3676 C.ar           1 <1>                0.0000
      4 C4          27.1123  37.2553  38.8816 C.ar           1 <1>                0.0000
      5 C5          26.7967  36.5459  40.0304 C.ar           1 <1>                0.0000
      6 N6          25.4989  36.5966  40.5513 N.pl3          1 <1>                0.0000
      7 C7          27.7742  35.7820  40.6650 C.ar           1 <1>                0.0000
      8 O8          27.4676  35.0842  41.7924 O.3            1 <1>                0.0000
      9 C9          29.0572  35.7332  40.1476 C.ar           1 <1>                0.0000
     10 C10         29.3684  36.4375  38.9985 C.ar           1 <1>                0.0000
     11 N11         30.7412  36.3832  38.4477 N.pl3          1 <1>                0.0000
     12 O12         31.5304  35.5521  38.8601 O.2            1 <1>                0.0000
     13 O13         31.0817  37.1696  37.5822 O.2            1 <1>                0.0000
     14 H14         26.9203  38.8808  36.9246 H              1 <1>                0.0000
     15 H15         28.1494  39.7975  37.8288 H              1 <1>                0.0000
     16 H16         28.3288  39.5596  36.0739 H              1 <1>                0.0000
     17 H17         26.3568  37.8485  38.3878 H              1 <1>                0.0000
     18 H18         29.8150  35.1413  40.6392 H              1 <1>                0.0000
     19 H19         24.8190  37.1283  40.1085 H              1 <1>                0.0000
     20 H20         25.2790  36.1000  41.3550 H              1 <1>                0.0000
     21 H21         26.8203  35.5220  42.3621 H              1 <1>                0.0000
@<TRIPOS>BOND
    1    1    2 1     
    2    1   14 1     
    3    1   15 1     
    4    1   16 1     
    5    2    3 1     
    6    3    4 ar    
    7    3   10 ar    
    8    4    5 ar    
    9    4   17 1     
   10    5    6 1     
   11    5    7 ar    
   12    6   19 1     
   13    6   20 1     
   14    7    8 1     
   15    7    9 ar    
   16    8   21 1     
   17    9   10 ar    
   18    9   18 1     
   19   10   11 1     
   20   11   12 2     
   21   11   13 2     
@<TRIPOS>SUBSTRUCTURE
      1 ****           1
@<TRIPOS>SET
DONOR_HYDROGENS      STATIC     ATOMS    <user>   **** ""
3 19 20 21
ATOM$RED        STATIC     ATOMS    COLORGROUP SYSTEM
3 19 20 21
@<TRIPOS>COMMENT
> <Gold.Version>
2022.2.0

> <Gold.Id.Protein>
1qkm|1qkm_protein|mol2

> <Gold.Protein.RotatedTorsions>
[  496  491  490  487 ] final   10.10 input  -89.99 | X-H torsion

> <Gold.Protein.ActiveResidues>
 MET295  LEU298  THR299  LEU301  ALA302  GLU305  TRP335  MET336  LEU339  MET340 
 GLY342  LEU343  ARG346  PHE356  ILE373  ILE376  PHE377  LEU380  LYS471  GLY472 
 MET473  HIS475  LEU476  LEU477  ASN478  MET479  VAL484  VAL487 

> <Gold.Protein.RotatedAtoms>
   36.2734   34.0648   42.3083 H   0  0  0  0  0  0  0  0  0  0  0  0  # atno 496  bound_to 491 

> <Gold.Score>
     Score     S(PLP)   S(hbond)     S(cho)   S(metal)  DE(clash)   DE(tors)     intcor
     37.56     -36.56       0.37       0.00       0.00       0.00       0.44       0.78

> <Gold.PLP.Fitness>
37.5636

> <Gold.PLP.PLP>
-36.5614

> <Gold.PLP.part.hbond>
-1.4732

> <Gold.PLP.part.metal>
0.0000

> <Gold.PLP.part.buried>
-6.3530

> <Gold.PLP.part.nonpolar>
-29.1314

> <Gold.PLP.part.repulsive>
0.2044

> <Gold.PLP.ligand.clash>
0.0000

> <Gold.PLP.ligand.torsion>
0.4425

> <Gold.PLP.Chemscore.Hbond>
0.3680

> <Gold.PLP.Chemscore.CHOScore>
0.0000

> <Gold.PLP.Chemscore.Metal>
0.0000

> <Gold.Chemscore.Hbonds>
donor molecule, donor type, donor heavy atom, donor atom, acceptor molecule, acceptor atom, score
      L1  H     8    21       P1   582  0.37

> <Gold.PLP.Chemscore.Internal.Correction>
0.7832

