#       Name:                plp ligand
#       Creating user name   aseyller
#       Creation time:       Fri Apr 21 16:28:09 2023


#       File generated by GOLD software.
#

@<TRIPOS>MOLECULE
plp ligand
    21    21     1
SMALL
USER_CHARGES


@<TRIPOS>ATOM
      1 C1           1.6325   2.5576   0.0268 NONPOLAR       1 <1>                0.0000
      2 O2           1.9068   1.1552   0.0324 ACCEPTOR       1 <1>                0.0000
      3 C3           0.8362   0.3169   0.0396 NONPOLAR       1 <1>                0.0000
      4 C4          -0.4500   0.8355   0.0411 NONPOLAR       1 <1>                0.0000
      5 C5          -1.5410  -0.0203   0.0480 NONPOLAR       1 <1>                0.0000
      6 N6          -2.8401   0.5000   0.0491 DONOR          1 <1>                0.0000
      7 C7          -1.3414  -1.3993   0.0532 NONPOLAR       1 <1>                0.0000
      8 O8          -2.4100  -2.2420   0.0595 DONACC         1 <1>                0.0000
      9 C9          -0.0554  -1.9115   0.0517 NONPOLAR       1 <1>                0.0000
     10 C10          1.0314  -1.0560   0.0395 NONPOLAR       1 <1>                0.0000
     11 N11          2.4053  -1.6068   0.0379 NONPOLAR       1 <1>                0.0000
     12 O12          2.5780  -2.8125   0.0472 ACCEPTOR       1 <1>                0.0000
     13 O13          3.3631  -0.8545   0.0272 ACCEPTOR       1 <1>                0.0000
     14 H14          1.0558   2.8115  -0.8626                1 <1>                0.0000
     15 H15          1.0612   2.8197   0.9174                1 <1>                0.0000
     16 H16          2.5713   3.1114   0.0214                1 <1>                0.0000
     17 H17         -0.6017   1.9048   0.0374                1 <1>                0.0000
     18 H18          0.0996  -2.9803   0.0558                1 <1>                0.0000
     19 H19         -2.9780   1.4602   0.0451                1 <1>                0.0000
     20 H20         -3.6027  -0.0994   0.0540                1 <1>                0.0000
     21 H21         -2.7211  -2.4893  -0.8221                1 <1>                0.0000
@<TRIPOS>BOND
    1    1    2 1     
    2    1   14 1     
    3    1   15 1     
    4    1   16 1     
    5    2    3 1     
    6    3    4 ar    
    7    3   10 ar    
    8    4    5 ar    
    9    4   17 1     
   10    5    6 1     
   11    5    7 ar    
   12    6   19 1     
   13    6   20 1     
   14    7    8 1     
   15    7    9 ar    
   16    8   21 1     
   17    9   10 ar    
   18    9   18 1     
   19   10   11 1     
   20   11   12 2     
   21   11   13 2     
@<TRIPOS>SUBSTRUCTURE
      1 ****           1
@<TRIPOS>SET
DONOR_HYDROGENS      STATIC     ATOMS    <user>   **** ""
3 19 20 21
ATOM$RED        STATIC     ATOMS    COLORGROUP SYSTEM
3 19 20 21
