#       Name:                EN300-245630_i001
#       Creating user name   aseyller
#       Creation time:       Fri Apr 21 17:35:49 2023


#       File generated by GOLD software.
#

@<TRIPOS>MOLECULE
EN300-245630_i001|Sulfonylchlorides|mol2|306|dock3
    22    22     1
SMALL
USER_CHARGES


@<TRIPOS>ATOM
      1 C1          30.8644  36.3351  38.6388 C.3            1 <1>                0.0000
      2 S2          29.4560  37.1727  37.8607 S.o2           1 <1>                0.0000
      3 O3          29.1296  36.6999  36.5610 O.2            1 <1>                0.0000
      4 N4          29.7703  38.6297  37.7654 N.pl3          1 <1>                0.0000
      5 S5          30.5680  39.2197  36.4395 S.o2           1 <1>                0.0000
      6 O6          29.8700  38.7327  35.3016 O.2            1 <1>                0.0000
      7 O7          30.7859  40.6024  36.6847 O.2            1 <1>                0.0000
      8 Cl8         32.3919  38.3523  36.4043 Cl             1 <1>                0.0000
      9 C9          28.0460  36.9645  38.8965 C.ar           1 <1>                0.0000
     10 C10         28.1674  36.3034  40.1046 C.ar           1 <1>                0.0000
     11 C11         27.0612  36.1399  40.9172 C.ar           1 <1>                0.0000
     12 C12         25.8337  36.6380  40.5221 C.ar           1 <1>                0.0000
     13 C13         25.7125  37.2998  39.3146 C.ar           1 <1>                0.0000
     14 C14         26.8196  37.4670  38.5039 C.ar           1 <1>                0.0000
     15 H15         31.7530  36.4692  38.0218 H              1 <1>                0.0000
     16 H16         31.0402  36.7613  39.6265 H              1 <1>                0.0000
     17 H17         30.6464  35.2715  38.7355 H              1 <1>                0.0000
     18 H18         29.1264  35.9143  40.4132 H              1 <1>                0.0000
     19 H19         27.1559  35.6228  41.8606 H              1 <1>                0.0000
     20 H20         24.9693  36.5096  41.1567 H              1 <1>                0.0000
     21 H21         24.7535  37.6886  39.0058 H              1 <1>                0.0000
     22 H22         26.7250  37.9841  37.5604 H              1 <1>                0.0000
@<TRIPOS>BOND
    1    1    2 1     
    2    1   15 1     
    3    1   16 1     
    4    1   17 1     
    5    2    3 2     
    6    2    4 1     
    7    2    9 1     
    8    4    5 1     
    9    5    6 2     
   10    5    7 2     
   11    5    8 1     
   12    9   10 ar    
   13    9   14 ar    
   14   10   11 ar    
   15   10   18 1     
   16   11   12 ar    
   17   11   19 1     
   18   12   13 ar    
   19   12   20 1     
   20   13   14 ar    
   21   13   21 1     
   22   14   22 1     
@<TRIPOS>SUBSTRUCTURE
      1 ****           1
@<TRIPOS>COMMENT
> <Gold.Version>
2022.2.0

> <Gold.Id.Protein>
1qkm|1qkm_protein|mol2

> <Gold.Protein.RotatedTorsions>
[  496  491  490  487 ] final   30.08 input  -89.99 | X-H torsion

> <Gold.Protein.ActiveResidues>
 MET295  LEU298  THR299  LEU301  ALA302  GLU305  TRP335  MET336  LEU339  MET340 
 GLY342  LEU343  ARG346  PHE356  ILE373  ILE376  PHE377  LEU380  LYS471  GLY472 
 MET473  HIS475  LEU476  LEU477  ASN478  MET479  VAL484  VAL487 

> <Gold.Protein.RotatedAtoms>
   36.3468   33.7541   42.3807 H   0  0  0  0  0  0  0  0  0  0  0  0  # atno 496  bound_to 491 

> <Gold.Score>
     Score     S(PLP)   S(hbond)     S(cho)   S(metal)  DE(clash)   DE(tors)     intcor
     36.90     -37.08       0.00       0.00       0.00       0.00       2.19       4.20

> <Gold.PLP.Fitness>
36.8997

> <Gold.PLP.PLP>
-37.0818

> <Gold.PLP.part.hbond>
0.0000

> <Gold.PLP.part.metal>
0.0000

> <Gold.PLP.part.buried>
-0.5821

> <Gold.PLP.part.nonpolar>
-37.8431

> <Gold.PLP.part.repulsive>
0.0000

> <Gold.PLP.ligand.clash>
0.0000

> <Gold.PLP.ligand.torsion>
2.1919

> <Gold.PLP.Chemscore.Hbond>
0.0000

> <Gold.PLP.Chemscore.CHOScore>
0.0000

> <Gold.PLP.Chemscore.Metal>
0.0000

> <Gold.PLP.Chemscore.Internal.Correction>
4.2017

