#       Name:                EN300-245630_i001
#       Creating user name   aseyller
#       Creation time:       Fri Apr 21 17:35:57 2023


#       File generated by GOLD software.
#

@<TRIPOS>MOLECULE
EN300-245630_i001|Sulfonylchlorides|mol2|306|dock14
    22    22     1
SMALL
USER_CHARGES


@<TRIPOS>ATOM
      1 C1          29.7039  39.4258  37.2918 C.3            1 <1>                0.0000
      2 S2          29.5838  37.6865  37.7925 S.o2           1 <1>                0.0000
      3 O3          28.4361  37.0067  37.3027 O.2            1 <1>                0.0000
      4 N4          29.5635  37.6276  39.2848 N.pl3          1 <1>                0.0000
      5 S5          28.6383  36.4911  40.0561 S.o2           1 <1>                0.0000
      6 O6          28.8584  35.2641  39.3739 O.2            1 <1>                0.0000
      7 O7          28.8728  36.6597  41.4474 O.2            1 <1>                0.0000
      8 Cl8         26.7041  36.9803  39.7402 Cl             1 <1>                0.0000
      9 C9          31.0175  36.8424  37.2123 C.ar           1 <1>                0.0000
     10 C10         31.5806  37.1903  35.9987 C.ar           1 <1>                0.0000
     11 C11         32.7053  36.5280  35.5434 C.ar           1 <1>                0.0000
     12 C12         33.2672  35.5182  36.3021 C.ar           1 <1>                0.0000
     13 C13         32.7047  35.1710  37.5161 C.ar           1 <1>                0.0000
     14 C14         31.5825  35.8362  37.9733 C.ar           1 <1>                0.0000
     15 H15         28.8340  39.9706  37.6590 H              1 <1>                0.0000
     16 H16         30.6100  39.8630  37.7115 H              1 <1>                0.0000
     17 H17         29.7399  39.4892  36.2043 H              1 <1>                0.0000
     18 H18         31.1415  37.9792  35.4061 H              1 <1>                0.0000
     19 H19         33.1448  36.7993  34.5950 H              1 <1>                0.0000
     20 H20         34.1456  35.0004  35.9461 H              1 <1>                0.0000
     21 H21         33.1435  34.3819  38.1085 H              1 <1>                0.0000
     22 H22         31.1429  35.5649  38.9218 H              1 <1>                0.0000
@<TRIPOS>BOND
    1    1    2 1     
    2    1   15 1     
    3    1   16 1     
    4    1   17 1     
    5    2    3 2     
    6    2    4 1     
    7    2    9 1     
    8    4    5 1     
    9    5    6 2     
   10    5    7 2     
   11    5    8 1     
   12    9   10 ar    
   13    9   14 ar    
   14   10   11 ar    
   15   10   18 1     
   16   11   12 ar    
   17   11   19 1     
   18   12   13 ar    
   19   12   20 1     
   20   13   14 ar    
   21   13   21 1     
   22   14   22 1     
@<TRIPOS>SUBSTRUCTURE
      1 ****           1
@<TRIPOS>COMMENT
> <Gold.Version>
2022.2.0

> <Gold.Id.Protein>
1qkm|1qkm_protein|mol2

> <Gold.Protein.RotatedTorsions>
[  496  491  490  487 ] final  159.58 input  -89.99 | X-H torsion

> <Gold.Protein.ActiveResidues>
 MET295  LEU298  THR299  LEU301  ALA302  GLU305  TRP335  MET336  LEU339  MET340 
 GLY342  LEU343  ARG346  PHE356  ILE373  ILE376  PHE377  LEU380  LYS471  GLY472 
 MET473  HIS475  LEU476  LEU477  ASN478  MET479  VAL484  VAL487 

> <Gold.Protein.RotatedAtoms>
   37.2956   33.2007   41.0752 H   0  0  0  0  0  0  0  0  0  0  0  0  # atno 496  bound_to 491 

> <Gold.Score>
     Score     S(PLP)   S(hbond)     S(cho)   S(metal)  DE(clash)   DE(tors)     intcor
     38.95     -39.16       0.00       0.00       0.00       0.00       2.21       4.20

> <Gold.PLP.Fitness>
38.9471

> <Gold.PLP.PLP>
-39.1587

> <Gold.PLP.part.hbond>
0.0000

> <Gold.PLP.part.metal>
0.0000

> <Gold.PLP.part.buried>
-3.5865

> <Gold.PLP.part.nonpolar>
-35.9551

> <Gold.PLP.part.repulsive>
0.2086

> <Gold.PLP.ligand.clash>
0.0000

> <Gold.PLP.ligand.torsion>
2.2066

> <Gold.PLP.Chemscore.Hbond>
0.0000

> <Gold.PLP.Chemscore.CHOScore>
0.0000

> <Gold.PLP.Chemscore.Metal>
0.0000

> <Gold.PLP.Chemscore.Internal.Correction>
4.2015

