#       Name:                EN300-245630_i001
#       Creating user name   aseyller
#       Creation time:       Fri Apr 21 17:35:54 2023


#       File generated by GOLD software.
#

@<TRIPOS>MOLECULE
EN300-245630_i001|Sulfonylchlorides|mol2|306|dock11
    22    22     1
SMALL
USER_CHARGES


@<TRIPOS>ATOM
      1 C1          29.9841  39.8330  36.9993 C.3            1 <1>                0.0000
      2 S2          29.9515  38.0515  37.3395 S.o2           1 <1>                0.0000
      3 O3          28.8092  37.3728  36.8357 O.2            1 <1>                0.0000
      4 N4          30.0001  37.8548  38.8192 N.pl3          1 <1>                0.0000
      5 S5          29.1847  36.5919  39.5139 S.o2           1 <1>                0.0000
      6 O6          27.8492  36.6640  39.0340 O.2            1 <1>                0.0000
      7 O7          30.0080  35.4451  39.3518 O.2            1 <1>                0.0000
      8 Cl8         29.0980  36.9558  41.4989 Cl             1 <1>                0.0000
      9 C9          31.3883  37.3243  36.6245 C.ar           1 <1>                0.0000
     10 C10         32.1028  36.3713  37.3262 C.ar           1 <1>                0.0000
     11 C11         33.2302  35.8009  36.7653 C.ar           1 <1>                0.0000
     12 C12         33.6427  36.1830  35.5025 C.ar           1 <1>                0.0000
     13 C13         32.9277  37.1352  34.8004 C.ar           1 <1>                0.0000
     14 C14         31.7979  37.7026  35.3596 C.ar           1 <1>                0.0000
     15 H15         29.1118  40.3052  37.4512 H              1 <1>                0.0000
     16 H16         30.8911  40.2667  37.4205 H              1 <1>                0.0000
     17 H17         29.9691  39.9975  35.9220 H              1 <1>                0.0000
     18 H18         31.7805  36.0729  38.3128 H              1 <1>                0.0000
     19 H19         33.7888  35.0570  37.3138 H              1 <1>                0.0000
     20 H20         34.5238  35.7378  35.0645 H              1 <1>                0.0000
     21 H21         33.2502  37.4340  33.8140 H              1 <1>                0.0000
     22 H22         31.2392  38.4465  34.8111 H              1 <1>                0.0000
@<TRIPOS>BOND
    1    1    2 1     
    2    1   15 1     
    3    1   16 1     
    4    1   17 1     
    5    2    3 2     
    6    2    4 1     
    7    2    9 1     
    8    4    5 1     
    9    5    6 2     
   10    5    7 2     
   11    5    8 1     
   12    9   10 ar    
   13    9   14 ar    
   14   10   11 ar    
   15   10   18 1     
   16   11   12 ar    
   17   11   19 1     
   18   12   13 ar    
   19   12   20 1     
   20   13   14 ar    
   21   13   21 1     
   22   14   22 1     
@<TRIPOS>SUBSTRUCTURE
      1 ****           1
@<TRIPOS>COMMENT
> <Gold.Version>
2022.2.0

> <Gold.Id.Protein>
1qkm|1qkm_protein|mol2

> <Gold.Protein.RotatedTorsions>
[  496  491  490  487 ] final   -4.97 input  -89.99 | X-H torsion

> <Gold.Protein.ActiveResidues>
 MET295  LEU298  THR299  LEU301  ALA302  GLU305  TRP335  MET336  LEU339  MET340 
 GLY342  LEU343  ARG346  PHE356  ILE373  ILE376  PHE377  LEU380  LYS471  GLY472 
 MET473  HIS475  LEU476  LEU477  ASN478  MET479  VAL484  VAL487 

> <Gold.Protein.RotatedAtoms>
   36.2590   34.2829   42.1925 H   0  0  0  0  0  0  0  0  0  0  0  0  # atno 496  bound_to 491 

> <Gold.Score>
     Score     S(PLP)   S(hbond)     S(cho)   S(metal)  DE(clash)   DE(tors)     intcor
     41.74     -42.19       0.00       0.00       0.00       0.00       2.32       4.20

> <Gold.PLP.Fitness>
41.7425

> <Gold.PLP.PLP>
-42.1908

> <Gold.PLP.part.hbond>
0.0000

> <Gold.PLP.part.metal>
0.0000

> <Gold.PLP.part.buried>
-3.9958

> <Gold.PLP.part.nonpolar>
-38.8021

> <Gold.PLP.part.repulsive>
0.1088

> <Gold.PLP.ligand.clash>
0.0000

> <Gold.PLP.ligand.torsion>
2.3250

> <Gold.PLP.Chemscore.Hbond>
0.0000

> <Gold.PLP.Chemscore.CHOScore>
0.0000

> <Gold.PLP.Chemscore.Metal>
0.0000

> <Gold.PLP.Chemscore.Internal.Correction>
4.2017

