#       Name:                EN300-245630_i001
#       Creating user name   aseyller
#       Creation time:       Fri Apr 21 17:35:54 2023


#       File generated by GOLD software.
#

@<TRIPOS>MOLECULE
EN300-245630_i001|Sulfonylchlorides|mol2|306|dock10
    22    22     1
SMALL
USER_CHARGES


@<TRIPOS>ATOM
      1 C1          30.7073  35.9942  38.8432 C.3            1 <1>                0.0000
      2 S2          29.5008  36.9823  37.9168 S.o2           1 <1>                0.0000
      3 O3          29.2581  36.5313  36.5913 O.2            1 <1>                0.0000
      4 N4          29.9976  38.3893  37.8508 N.pl3          1 <1>                0.0000
      5 S5          30.9418  38.8751  36.5800 S.o2           1 <1>                0.0000
      6 O6          30.8579  40.2930  36.5367 O.2            1 <1>                0.0000
      7 O7          32.1711  38.1727  36.7020 O.2            1 <1>                0.0000
      8 Cl8         30.0642  38.1999  34.8906 Cl             1 <1>                0.0000
      9 C9          27.9747  36.9619  38.7973 C.ar           1 <1>                0.0000
     10 C10         27.8714  36.2622  39.9851 C.ar           1 <1>                0.0000
     11 C11         26.6741  36.2460  40.6758 C.ar           1 <1>                0.0000
     12 C12         25.5803  36.9299  40.1790 C.ar           1 <1>                0.0000
     13 C13         25.6839  37.6303  38.9918 C.ar           1 <1>                0.0000
     14 C14         26.8824  37.6500  38.3033 C.ar           1 <1>                0.0000
     15 H15         31.6657  36.0105  38.3240 H              1 <1>                0.0000
     16 H16         30.8285  36.4121  39.8427 H              1 <1>                0.0000
     17 H17         30.3530  34.9663  38.9197 H              1 <1>                0.0000
     18 H18         28.7259  35.7278  40.3731 H              1 <1>                0.0000
     19 H19         26.5931  35.6987  41.6033 H              1 <1>                0.0000
     20 H20         24.6447  36.9167  40.7184 H              1 <1>                0.0000
     21 H21         24.8293  38.1643  38.6036 H              1 <1>                0.0000
     22 H22         26.9634  38.1973  37.3757 H              1 <1>                0.0000
@<TRIPOS>BOND
    1    1    2 1     
    2    1   15 1     
    3    1   16 1     
    4    1   17 1     
    5    2    3 2     
    6    2    4 1     
    7    2    9 1     
    8    4    5 1     
    9    5    6 2     
   10    5    7 2     
   11    5    8 1     
   12    9   10 ar    
   13    9   14 ar    
   14   10   11 ar    
   15   10   18 1     
   16   11   12 ar    
   17   11   19 1     
   18   12   13 ar    
   19   12   20 1     
   20   13   14 ar    
   21   13   21 1     
   22   14   22 1     
@<TRIPOS>SUBSTRUCTURE
      1 ****           1
@<TRIPOS>COMMENT
> <Gold.Version>
2022.2.0

> <Gold.Id.Protein>
1qkm|1qkm_protein|mol2

> <Gold.Protein.RotatedTorsions>
[  496  491  490  487 ] final -138.58 input  -89.99 | X-H torsion

> <Gold.Protein.ActiveResidues>
 MET295  LEU298  THR299  LEU301  ALA302  GLU305  TRP335  MET336  LEU339  MET340 
 GLY342  LEU343  ARG346  PHE356  ILE373  ILE376  PHE377  LEU380  LYS471  GLY472 
 MET473  HIS475  LEU476  LEU477  ASN478  MET479  VAL484  VAL487 

> <Gold.Protein.RotatedAtoms>
   37.1647   34.0953   40.7260 H   0  0  0  0  0  0  0  0  0  0  0  0  # atno 496  bound_to 491 

> <Gold.Score>
     Score     S(PLP)   S(hbond)     S(cho)   S(metal)  DE(clash)   DE(tors)     intcor
     35.75     -36.01       0.00       0.00       0.00       0.00       2.23       4.20

> <Gold.PLP.Fitness>
35.7489

> <Gold.PLP.PLP>
-36.0086

> <Gold.PLP.part.hbond>
0.0000

> <Gold.PLP.part.metal>
0.0000

> <Gold.PLP.part.buried>
-0.4007

> <Gold.PLP.part.nonpolar>
-37.4014

> <Gold.PLP.part.repulsive>
0.0000

> <Gold.PLP.ligand.clash>
0.0000

> <Gold.PLP.ligand.torsion>
2.2307

> <Gold.PLP.Chemscore.Hbond>
0.0000

> <Gold.PLP.Chemscore.CHOScore>
0.0000

> <Gold.PLP.Chemscore.Metal>
0.0000

> <Gold.PLP.Chemscore.Internal.Correction>
4.2017

