#       Name:                EN300-245630_i001
#       Creating user name   aseyller
#       Creation time:       Fri Apr 21 17:35:48 2023


#       File generated by GOLD software.
#

@<TRIPOS>MOLECULE
EN300-245630_i001|Sulfonylchlorides|mol2|306|dock2
    22    22     1
SMALL
USER_CHARGES


@<TRIPOS>ATOM
      1 C1          31.3677  36.0228  38.4595 C.3            1 <1>                0.0000
      2 S2          29.8961  36.9774  37.9969 S.o2           1 <1>                0.0000
      3 O3          29.3280  36.6208  36.7442 O.2            1 <1>                0.0000
      4 N4          30.2697  38.4226  37.9491 N.pl3          1 <1>                0.0000
      5 S5          29.7978  39.3577  36.6663 S.o2           1 <1>                0.0000
      6 O6          28.3776  39.3946  36.6976 O.2            1 <1>                0.0000
      7 O7          30.6066  40.5256  36.7021 O.2            1 <1>                0.0000
      8 Cl8         30.3055  38.3635  34.9829 Cl             1 <1>                0.0000
      9 C9          28.6732  36.7500  39.2448 C.ar           1 <1>                0.0000
     10 C10         29.0534  36.5926  40.5646 C.ar           1 <1>                0.0000
     11 C11         28.0939  36.4141  41.5436 C.ar           1 <1>                0.0000
     12 C12         26.7543  36.3936  41.2030 C.ar           1 <1>                0.0000
     13 C13         26.3742  36.5519  39.8834 C.ar           1 <1>                0.0000
     14 C14         27.3334  36.7346  38.9049 C.ar           1 <1>                0.0000
     15 H15         32.1447  36.1662  37.7085 H              1 <1>                0.0000
     16 H16         31.7319  36.3635  39.4287 H              1 <1>                0.0000
     17 H17         31.1108  34.9652  38.5191 H              1 <1>                0.0000
     18 H18         30.0999  36.6086  40.8307 H              1 <1>                0.0000
     19 H19         28.3909  36.2904  42.5745 H              1 <1>                0.0000
     20 H20         26.0048  36.2535  41.9678 H              1 <1>                0.0000
     21 H21         25.3277  36.5354  39.6173 H              1 <1>                0.0000
     22 H22         27.0364  36.8583  37.8740 H              1 <1>                0.0000
@<TRIPOS>BOND
    1    1    2 1     
    2    1   15 1     
    3    1   16 1     
    4    1   17 1     
    5    2    3 2     
    6    2    4 1     
    7    2    9 1     
    8    4    5 1     
    9    5    6 2     
   10    5    7 2     
   11    5    8 1     
   12    9   10 ar    
   13    9   14 ar    
   14   10   11 ar    
   15   10   18 1     
   16   11   12 ar    
   17   11   19 1     
   18   12   13 ar    
   19   12   20 1     
   20   13   14 ar    
   21   13   21 1     
   22   14   22 1     
@<TRIPOS>SUBSTRUCTURE
      1 ****           1
@<TRIPOS>COMMENT
> <Gold.Version>
2022.2.0

> <Gold.Id.Protein>
1qkm|1qkm_protein|mol2

> <Gold.Protein.RotatedTorsions>
[  496  491  490  487 ] final  -10.93 input  -89.99 | X-H torsion

> <Gold.Protein.ActiveResidues>
 MET295  LEU298  THR299  LEU301  ALA302  GLU305  TRP335  MET336  LEU339  MET340 
 GLY342  LEU343  ARG346  PHE356  ILE373  ILE376  PHE377  LEU380  LYS471  GLY472 
 MET473  HIS475  LEU476  LEU477  ASN478  MET479  VAL484  VAL487 

> <Gold.Protein.RotatedAtoms>
   36.2633   34.3614   42.1341 H   0  0  0  0  0  0  0  0  0  0  0  0  # atno 496  bound_to 491 

> <Gold.Score>
     Score     S(PLP)   S(hbond)     S(cho)   S(metal)  DE(clash)   DE(tors)     intcor
     39.96     -40.08       0.00       0.00       0.00       0.00       2.16       4.20

> <Gold.PLP.Fitness>
39.9554

> <Gold.PLP.PLP>
-40.0792

> <Gold.PLP.part.hbond>
0.0000

> <Gold.PLP.part.metal>
0.0000

> <Gold.PLP.part.buried>
0.1294

> <Gold.PLP.part.nonpolar>
-40.5114

> <Gold.PLP.part.repulsive>
0.0000

> <Gold.PLP.ligand.clash>
0.0000

> <Gold.PLP.ligand.torsion>
2.1638

> <Gold.PLP.Chemscore.Hbond>
0.0000

> <Gold.PLP.Chemscore.CHOScore>
0.0000

> <Gold.PLP.Chemscore.Metal>
0.0000

> <Gold.PLP.Chemscore.Internal.Correction>
4.2038

