#       Name:                EN300-245630_i001
#       Creating user name   aseyller
#       Creation time:       Fri Apr 21 17:35:55 2023


#       File generated by GOLD software.
#

@<TRIPOS>MOLECULE
EN300-245630_i001|Sulfonylchlorides|mol2|306|dock12
    22    22     1
SMALL
USER_CHARGES


@<TRIPOS>ATOM
      1 C1          31.3448  36.0879  38.5061 C.3            1 <1>                0.0000
      2 S2          30.1185  37.0598  37.5884 S.o2           1 <1>                0.0000
      3 O3          29.9782  36.6980  36.2214 O.2            1 <1>                0.0000
      4 N4          30.5137  38.4985  37.6554 N.pl3          1 <1>                0.0000
      5 S5          30.1993  39.5039  36.3776 S.o2           1 <1>                0.0000
      6 O6          28.8002  39.4274  36.1415 O.2            1 <1>                0.0000
      7 O7          30.8759  40.7233  36.6506 O.2            1 <1>                0.0000
      8 Cl8         31.0964  38.7050  34.7536 Cl             1 <1>                0.0000
      9 C9          28.5547  36.8652  38.3764 C.ar           1 <1>                0.0000
     10 C10         27.4765  37.6296  37.9711 C.ar           1 <1>                0.0000
     11 C11         26.2496  37.4770  38.5895 C.ar           1 <1>                0.0000
     12 C12         26.1008  36.5596  39.6128 C.ar           1 <1>                0.0000
     13 C13         27.1786  35.7946  40.0175 C.ar           1 <1>                0.0000
     14 C14         28.4044  35.9441  39.3962 C.ar           1 <1>                0.0000
     15 H15         32.3249  36.2110  38.0451 H              1 <1>                0.0000
     16 H16         31.3833  36.4338  39.5391 H              1 <1>                0.0000
     17 H17         31.0632  35.0352  38.4857 H              1 <1>                0.0000
     18 H18         27.5929  38.3464  37.1717 H              1 <1>                0.0000
     19 H19         25.4076  38.0748  38.2734 H              1 <1>                0.0000
     20 H20         25.1424  36.4409  40.0963 H              1 <1>                0.0000
     21 H21         27.0623  35.0781  40.8171 H              1 <1>                0.0000
     22 H22         29.2466  35.3464  39.7124 H              1 <1>                0.0000
@<TRIPOS>BOND
    1    1    2 1     
    2    1   15 1     
    3    1   16 1     
    4    1   17 1     
    5    2    3 2     
    6    2    4 1     
    7    2    9 1     
    8    4    5 1     
    9    5    6 2     
   10    5    7 2     
   11    5    8 1     
   12    9   10 ar    
   13    9   14 ar    
   14   10   11 ar    
   15   10   18 1     
   16   11   12 ar    
   17   11   19 1     
   18   12   13 ar    
   19   12   20 1     
   20   13   14 ar    
   21   13   21 1     
   22   14   22 1     
@<TRIPOS>SUBSTRUCTURE
      1 ****           1
@<TRIPOS>COMMENT
> <Gold.Version>
2022.2.0

> <Gold.Id.Protein>
1qkm|1qkm_protein|mol2

> <Gold.Protein.RotatedTorsions>
[  496  491  490  487 ] final  -49.51 input  -89.99 | X-H torsion

> <Gold.Protein.ActiveResidues>
 MET295  LEU298  THR299  LEU301  ALA302  GLU305  TRP335  MET336  LEU339  MET340 
 GLY342  LEU343  ARG346  PHE356  ILE373  ILE376  PHE377  LEU380  LYS471  GLY472 
 MET473  HIS475  LEU476  LEU477  ASN478  MET479  VAL484  VAL487 

> <Gold.Protein.RotatedAtoms>
   36.4214   34.7021   41.6367 H   0  0  0  0  0  0  0  0  0  0  0  0  # atno 496  bound_to 491 

> <Gold.Score>
     Score     S(PLP)   S(hbond)     S(cho)   S(metal)  DE(clash)   DE(tors)     intcor
     36.91     -37.06       0.00       0.00       0.00       0.00       2.18       4.20

> <Gold.PLP.Fitness>
36.9077

> <Gold.PLP.PLP>
-37.0606

> <Gold.PLP.part.hbond>
0.0000

> <Gold.PLP.part.metal>
0.0000

> <Gold.PLP.part.buried>
0.9281

> <Gold.PLP.part.nonpolar>
-37.8772

> <Gold.PLP.part.repulsive>
0.0028

> <Gold.PLP.ligand.clash>
0.0000

> <Gold.PLP.ligand.torsion>
2.1773

> <Gold.PLP.Chemscore.Hbond>
0.0000

> <Gold.PLP.Chemscore.CHOScore>
0.0000

> <Gold.PLP.Chemscore.Metal>
0.0000

> <Gold.PLP.Chemscore.Internal.Correction>
4.2017

