#       Name:                EN300-245630_i001
#       Creating user name   aseyller
#       Creation time:       Fri Apr 21 17:35:56 2023


#       File generated by GOLD software.
#

@<TRIPOS>MOLECULE
EN300-245630_i001|Sulfonylchlorides|mol2|306|dock13
    22    22     1
SMALL
USER_CHARGES


@<TRIPOS>ATOM
      1 C1          27.6895  36.1353  38.7819 C.3            1 <1>                0.0000
      2 S2          29.2538  36.8892  39.3065 S.o2           1 <1>                0.0000
      3 O3          29.4263  36.9776  40.7142 O.2            1 <1>                0.0000
      4 N4          29.3251  38.2680  38.7369 N.pl3          1 <1>                0.0000
      5 S5          29.0750  38.5088  37.1176 S.o2           1 <1>                0.0000
      6 O6          29.4295  37.2938  36.4717 O.2            1 <1>                0.0000
      7 O7          27.7929  39.1091  36.9946 O.2            1 <1>                0.0000
      8 Cl8         30.4136  39.8920  36.5052 Cl             1 <1>                0.0000
      9 C9          30.5785  35.9344  38.6447 C.ar           1 <1>                0.0000
     10 C10         31.6141  36.5595  37.9754 C.ar           1 <1>                0.0000
     11 C11         32.6533  35.8104  37.4561 C.ar           1 <1>                0.0000
     12 C12         32.6573  34.4363  37.6065 C.ar           1 <1>                0.0000
     13 C13         31.6223  33.8113  38.2765 C.ar           1 <1>                0.0000
     14 C14         30.5852  34.5608  38.7996 C.ar           1 <1>                0.0000
     15 H15         26.8559  36.7237  39.1655 H              1 <1>                0.0000
     16 H16         27.6455  36.1100  37.6930 H              1 <1>                0.0000
     17 H17         27.6270  35.1194  39.1718 H              1 <1>                0.0000
     18 H18         31.6108  37.6330  37.8578 H              1 <1>                0.0000
     19 H19         33.4619  36.2987  36.9326 H              1 <1>                0.0000
     20 H20         33.4690  33.8510  37.2002 H              1 <1>                0.0000
     21 H21         31.6253  32.7377  38.3937 H              1 <1>                0.0000
     22 H22         29.7765  34.0725  39.3231 H              1 <1>                0.0000
@<TRIPOS>BOND
    1    1    2 1     
    2    1   15 1     
    3    1   16 1     
    4    1   17 1     
    5    2    3 2     
    6    2    4 1     
    7    2    9 1     
    8    4    5 1     
    9    5    6 2     
   10    5    7 2     
   11    5    8 1     
   12    9   10 ar    
   13    9   14 ar    
   14   10   11 ar    
   15   10   18 1     
   16   11   12 ar    
   17   11   19 1     
   18   12   13 ar    
   19   12   20 1     
   20   13   14 ar    
   21   13   21 1     
   22   14   22 1     
@<TRIPOS>SUBSTRUCTURE
      1 ****           1
@<TRIPOS>COMMENT
> <Gold.Version>
2022.2.0

> <Gold.Id.Protein>
1qkm|1qkm_protein|mol2

> <Gold.Protein.RotatedTorsions>
[  496  491  490  487 ] final  -36.40 input  -89.99 | X-H torsion

> <Gold.Protein.ActiveResidues>
 MET295  LEU298  THR299  LEU301  ALA302  GLU305  TRP335  MET336  LEU339  MET340 
 GLY342  LEU343  ARG346  PHE356  ILE373  ILE376  PHE377  LEU380  LYS471  GLY472 
 MET473  HIS475  LEU476  LEU477  ASN478  MET479  VAL484  VAL487 

> <Gold.Protein.RotatedAtoms>
   36.3443   34.6243   41.8222 H   0  0  0  0  0  0  0  0  0  0  0  0  # atno 496  bound_to 491 

> <Gold.Score>
     Score     S(PLP)   S(hbond)     S(cho)   S(metal)  DE(clash)   DE(tors)     intcor
     38.92     -39.30       0.00       0.00       0.00       0.00       2.29       4.20

> <Gold.PLP.Fitness>
38.9153

> <Gold.PLP.PLP>
-39.2982

> <Gold.PLP.part.hbond>
0.0000

> <Gold.PLP.part.metal>
0.0000

> <Gold.PLP.part.buried>
-0.6191

> <Gold.PLP.part.nonpolar>
-39.0734

> <Gold.PLP.part.repulsive>
0.0897

> <Gold.PLP.ligand.clash>
0.0000

> <Gold.PLP.ligand.torsion>
2.2922

> <Gold.PLP.Chemscore.Hbond>
0.0000

> <Gold.PLP.Chemscore.CHOScore>
0.0000

> <Gold.PLP.Chemscore.Metal>
0.0000

> <Gold.PLP.Chemscore.Internal.Correction>
4.2015

