#       Name:                EN300-245630_i001
#       Creating user name   aseyller
#       Creation time:       Fri Apr 21 17:36:01 2023


#       File generated by GOLD software.
#

@<TRIPOS>MOLECULE
EN300-245630_i001|Sulfonylchlorides|mol2|306|dock20
    22    22     1
SMALL
USER_CHARGES


@<TRIPOS>ATOM
      1 C1          29.2516  37.0410  36.1814 C.3            1 <1>                0.0000
      2 S2          29.8180  37.4422  37.8573 S.o2           1 <1>                0.0000
      3 O3          30.0863  38.8201  38.0783 O.2            1 <1>                0.0000
      4 N4          31.0681  36.6710  38.1280 N.pl3          1 <1>                0.0000
      5 S5          32.3961  36.8809  37.1612 S.o2           1 <1>                0.0000
      6 O6          32.3179  38.2060  36.6540 O.2            1 <1>                0.0000
      7 O7          33.5098  36.3953  37.8982 O.2            1 <1>                0.0000
      8 Cl8         32.1813  35.6493  35.5746 Cl             1 <1>                0.0000
      9 C9          28.5781  36.9290  38.9991 C.ar           1 <1>                0.0000
     10 C10         28.9179  36.6519  40.3102 C.ar           1 <1>                0.0000
     11 C11         27.9451  36.2492  41.2060 C.ar           1 <1>                0.0000
     12 C12         26.6325  36.1240  40.7908 C.ar           1 <1>                0.0000
     13 C13         26.2926  36.4019  39.4801 C.ar           1 <1>                0.0000
     14 C14         27.2647  36.8088  38.5853 C.ar           1 <1>                0.0000
     15 H15         30.0149  37.3334  35.4602 H              1 <1>                0.0000
     16 H16         29.0720  35.9685  36.1056 H              1 <1>                0.0000
     17 H17         28.3278  37.5799  35.9713 H              1 <1>                0.0000
     18 H18         29.9434  36.7497  40.6344 H              1 <1>                0.0000
     19 H19         28.2107  36.0320  42.2300 H              1 <1>                0.0000
     20 H20         25.8727  35.8087  41.4905 H              1 <1>                0.0000
     21 H21         25.2672  36.3038  39.1557 H              1 <1>                0.0000
     22 H22         26.9991  37.0260  37.5612 H              1 <1>                0.0000
@<TRIPOS>BOND
    1    1    2 1     
    2    1   15 1     
    3    1   16 1     
    4    1   17 1     
    5    2    3 2     
    6    2    4 1     
    7    2    9 1     
    8    4    5 1     
    9    5    6 2     
   10    5    7 2     
   11    5    8 1     
   12    9   10 ar    
   13    9   14 ar    
   14   10   11 ar    
   15   10   18 1     
   16   11   12 ar    
   17   11   19 1     
   18   12   13 ar    
   19   12   20 1     
   20   13   14 ar    
   21   13   21 1     
   22   14   22 1     
@<TRIPOS>SUBSTRUCTURE
      1 ****           1
@<TRIPOS>COMMENT
> <Gold.Version>
2022.2.0

> <Gold.Id.Protein>
1qkm|1qkm_protein|mol2

> <Gold.Protein.RotatedTorsions>
[  496  491  490  487 ] final  -78.45 input  -89.99 | X-H torsion

> <Gold.Protein.ActiveResidues>
 MET295  LEU298  THR299  LEU301  ALA302  GLU305  TRP335  MET336  LEU339  MET340 
 GLY342  LEU343  ARG346  PHE356  ILE373  ILE376  PHE377  LEU380  LYS471  GLY472 
 MET473  HIS475  LEU476  LEU477  ASN478  MET479  VAL484  VAL487 

> <Gold.Protein.RotatedAtoms>
   36.6521   34.7121   41.2258 H   0  0  0  0  0  0  0  0  0  0  0  0  # atno 496  bound_to 491 

> <Gold.Score>
     Score     S(PLP)   S(hbond)     S(cho)   S(metal)  DE(clash)   DE(tors)     intcor
     35.85     -36.09       0.00       0.00       0.00       0.00       2.22       4.20

> <Gold.PLP.Fitness>
35.8461

> <Gold.PLP.PLP>
-36.0899

> <Gold.PLP.part.hbond>
0.0000

> <Gold.PLP.part.metal>
0.0000

> <Gold.PLP.part.buried>
0.2443

> <Gold.PLP.part.nonpolar>
-36.5983

> <Gold.PLP.part.repulsive>
0.0805

> <Gold.PLP.ligand.clash>
0.0000

> <Gold.PLP.ligand.torsion>
2.2226

> <Gold.PLP.Chemscore.Hbond>
0.0000

> <Gold.PLP.Chemscore.CHOScore>
0.0000

> <Gold.PLP.Chemscore.Metal>
0.0000

> <Gold.PLP.Chemscore.Internal.Correction>
4.2014

