#       Name:                EN300-245630_i001
#       Creating user name   aseyller
#       Creation time:       Fri Apr 21 17:35:59 2023


#       File generated by GOLD software.
#

@<TRIPOS>MOLECULE
EN300-245630_i001|Sulfonylchlorides|mol2|306|dock17
    22    22     1
SMALL
USER_CHARGES


@<TRIPOS>ATOM
      1 C1          29.9253  39.5285  37.2991 C.3            1 <1>                0.0000
      2 S2          29.5371  37.8072  37.7198 S.o2           1 <1>                0.0000
      3 O3          28.3478  37.3056  37.1253 O.2            1 <1>                0.0000
      4 N4          29.3996  37.7058  39.2035 N.pl3          1 <1>                0.0000
      5 S5          28.4186  36.5482  39.8669 S.o2           1 <1>                0.0000
      6 O6          27.0839  37.0002  39.6838 O.2            1 <1>                0.0000
      7 O7          28.8891  35.2978  39.3825 O.2            1 <1>                0.0000
      8 Cl8         28.7534  36.5507  41.8589 Cl             1 <1>                0.0000
      9 C9          30.8837  36.7938  37.2057 C.ar           1 <1>                0.0000
     10 C10         31.4729  37.0007  35.9724 C.ar           1 <1>                0.0000
     11 C11         32.5293  36.2055  35.5691 C.ar           1 <1>                0.0000
     12 C12         32.9968  35.2039  36.3992 C.ar           1 <1>                0.0000
     13 C13         32.4081  34.9976  37.6328 C.ar           1 <1>                0.0000
     14 C14         31.3545  35.7955  38.0379 C.ar           1 <1>                0.0000
     15 H15         29.1115  40.1752  37.6274 H              1 <1>                0.0000
     16 H16         30.8484  39.8249  37.7973 H              1 <1>                0.0000
     17 H17         30.0492  39.6197  36.2201 H              1 <1>                0.0000
     18 H18         31.1077  37.7832  35.3239 H              1 <1>                0.0000
     19 H19         32.9892  36.3667  34.6053 H              1 <1>                0.0000
     20 H20         33.8217  34.5823  36.0838 H              1 <1>                0.0000
     21 H21         32.7731  34.2149  38.2811 H              1 <1>                0.0000
     22 H22         30.8946  35.6344  39.0018 H              1 <1>                0.0000
@<TRIPOS>BOND
    1    1    2 1     
    2    1   15 1     
    3    1   16 1     
    4    1   17 1     
    5    2    3 2     
    6    2    4 1     
    7    2    9 1     
    8    4    5 1     
    9    5    6 2     
   10    5    7 2     
   11    5    8 1     
   12    9   10 ar    
   13    9   14 ar    
   14   10   11 ar    
   15   10   18 1     
   16   11   12 ar    
   17   11   19 1     
   18   12   13 ar    
   19   12   20 1     
   20   13   14 ar    
   21   13   21 1     
   22   14   22 1     
@<TRIPOS>SUBSTRUCTURE
      1 ****           1
@<TRIPOS>COMMENT
> <Gold.Version>
2022.2.0

> <Gold.Id.Protein>
1qkm|1qkm_protein|mol2

> <Gold.Protein.RotatedTorsions>
[  496  491  490  487 ] final   36.51 input  -89.99 | X-H torsion

> <Gold.Protein.ActiveResidues>
 MET295  LEU298  THR299  LEU301  ALA302  GLU305  TRP335  MET336  LEU339  MET340 
 GLY342  LEU343  ARG346  PHE356  ILE373  ILE376  PHE377  LEU380  LYS471  GLY472 
 MET473  HIS475  LEU476  LEU477  ASN478  MET479  VAL484  VAL487 

> <Gold.Protein.RotatedAtoms>
   36.3823   33.6545   42.3829 H   0  0  0  0  0  0  0  0  0  0  0  0  # atno 496  bound_to 491 

> <Gold.Score>
     Score     S(PLP)   S(hbond)     S(cho)   S(metal)  DE(clash)   DE(tors)     intcor
     37.76     -38.22       0.00       0.00       0.00       0.00       2.33       4.20

> <Gold.PLP.Fitness>
37.7650

> <Gold.PLP.PLP>
-38.2236

> <Gold.PLP.part.hbond>
0.0000

> <Gold.PLP.part.metal>
0.0000

> <Gold.PLP.part.buried>
-1.8706

> <Gold.PLP.part.nonpolar>
-36.8323

> <Gold.PLP.part.repulsive>
0.0905

> <Gold.PLP.ligand.clash>
0.0000

> <Gold.PLP.ligand.torsion>
2.3300

> <Gold.PLP.Chemscore.Hbond>
0.0000

> <Gold.PLP.Chemscore.CHOScore>
0.0000

> <Gold.PLP.Chemscore.Metal>
0.0000

> <Gold.PLP.Chemscore.Internal.Correction>
4.2015

