#       Name:                EN300-245630_i001
#       Creating user name   aseyller
#       Creation time:       Fri Apr 21 17:36:00 2023


#       File generated by GOLD software.
#

@<TRIPOS>MOLECULE
EN300-245630_i001|Sulfonylchlorides|mol2|306|dock18
    22    22     1
SMALL
USER_CHARGES


@<TRIPOS>ATOM
      1 C1          29.1142  39.2759  35.9537 C.3            1 <1>                0.0000
      2 S2          29.8661  38.0331  37.0403 S.o2           1 <1>                0.0000
      3 O3          30.9531  38.5092  37.8220 O.2            1 <1>                0.0000
      4 N4          30.3551  36.9036  36.1943 N.pl3          1 <1>                0.0000
      5 S5          31.9764  36.5787  36.1034 S.o2           1 <1>                0.0000
      6 O6          32.4545  36.5450  37.4412 O.2            1 <1>                0.0000
      7 O7          32.1176  35.4909  35.2000 O.2            1 <1>                0.0000
      8 Cl8         32.8565  38.1694  35.2231 Cl             1 <1>                0.0000
      9 C9          28.6229  37.4260  38.1313 C.ar           1 <1>                0.0000
     10 C10         28.9688  36.5893  39.1760 C.ar           1 <1>                0.0000
     11 C11         27.9934  36.1129  40.0320 C.ar           1 <1>                0.0000
     12 C12         26.6723  36.4735  39.8435 C.ar           1 <1>                0.0000
     13 C13         26.3266  37.3109  38.7994 C.ar           1 <1>                0.0000
     14 C14         27.3026  37.7907  37.9460 C.ar           1 <1>                0.0000
     15 H15         29.8640  39.6503  35.2566 H              1 <1>                0.0000
     16 H16         28.2942  38.8229  35.3965 H              1 <1>                0.0000
     17 H17         28.7328  40.1011  36.5549 H              1 <1>                0.0000
     18 H18         30.0009  36.3075  39.3232 H              1 <1>                0.0000
     19 H19         28.2635  35.4586  40.8476 H              1 <1>                0.0000
     20 H20         25.9102  36.1008  40.5118 H              1 <1>                0.0000
     21 H21         25.2945  37.5923  38.6520 H              1 <1>                0.0000
     22 H22         27.0325  38.4450  37.1302 H              1 <1>                0.0000
@<TRIPOS>BOND
    1    1    2 1     
    2    1   15 1     
    3    1   16 1     
    4    1   17 1     
    5    2    3 2     
    6    2    4 1     
    7    2    9 1     
    8    4    5 1     
    9    5    6 2     
   10    5    7 2     
   11    5    8 1     
   12    9   10 ar    
   13    9   14 ar    
   14   10   11 ar    
   15   10   18 1     
   16   11   12 ar    
   17   11   19 1     
   18   12   13 ar    
   19   12   20 1     
   20   13   14 ar    
   21   13   21 1     
   22   14   22 1     
@<TRIPOS>SUBSTRUCTURE
      1 ****           1
@<TRIPOS>COMMENT
> <Gold.Version>
2022.2.0

> <Gold.Id.Protein>
1qkm|1qkm_protein|mol2

> <Gold.Protein.RotatedTorsions>
[  496  491  490  487 ] final   60.88 input  -89.99 | X-H torsion

> <Gold.Protein.ActiveResidues>
 MET295  LEU298  THR299  LEU301  ALA302  GLU305  TRP335  MET336  LEU339  MET340 
 GLY342  LEU343  ARG346  PHE356  ILE373  ILE376  PHE377  LEU380  LYS471  GLY472 
 MET473  HIS475  LEU476  LEU477  ASN478  MET479  VAL484  VAL487 

> <Gold.Protein.RotatedAtoms>
   36.5588   33.3080   42.2975 H   0  0  0  0  0  0  0  0  0  0  0  0  # atno 496  bound_to 491 

> <Gold.Score>
     Score     S(PLP)   S(hbond)     S(cho)   S(metal)  DE(clash)   DE(tors)     intcor
     35.20     -35.32       0.00       0.00       0.00       0.00       2.16       4.20

> <Gold.PLP.Fitness>
35.2019

> <Gold.PLP.PLP>
-35.3153

> <Gold.PLP.part.hbond>
0.0000

> <Gold.PLP.part.metal>
0.0000

> <Gold.PLP.part.buried>
0.0056

> <Gold.PLP.part.nonpolar>
-35.1833

> <Gold.PLP.part.repulsive>
0.1059

> <Gold.PLP.ligand.clash>
0.0000

> <Gold.PLP.ligand.torsion>
2.1574

> <Gold.PLP.Chemscore.Hbond>
0.0000

> <Gold.PLP.Chemscore.CHOScore>
0.0000

> <Gold.PLP.Chemscore.Metal>
0.0000

> <Gold.PLP.Chemscore.Internal.Correction>
4.2015

