#       Name:                EN300-245630_i001
#       Creating user name   aseyller
#       Creation time:       Fri Apr 21 17:35:47 2023


#       File generated by GOLD software.
#

@<TRIPOS>MOLECULE
EN300-245630_i001|Sulfonylchlorides|mol2|306|dock1
    22    22     1
SMALL
USER_CHARGES


@<TRIPOS>ATOM
      1 C1          30.0032  37.8161  35.1264 C.3            1 <1>                0.0000
      2 S2          30.2533  38.3737  36.8343 S.o2           1 <1>                0.0000
      3 O3          29.9963  39.7544  37.0507 O.2            1 <1>                0.0000
      4 N4          31.6696  38.0938  37.2171 N.pl3          1 <1>                0.0000
      5 S5          32.3349  36.6105  36.9016 S.o2           1 <1>                0.0000
      6 O6          33.3380  36.4028  37.8865 O.2            1 <1>                0.0000
      7 O7          31.2478  35.7180  36.6992 O.2            1 <1>                0.0000
      8 Cl8         33.2954  36.7506  35.1301 Cl             1 <1>                0.0000
      9 C9          29.1887  37.4407  37.8834 C.ar           1 <1>                0.0000
     10 C10         27.8310  37.3963  37.6269 C.ar           1 <1>                0.0000
     11 C11         26.9957  36.6644  38.4501 C.ar           1 <1>                0.0000
     12 C12         27.5182  35.9766  39.5294 C.ar           1 <1>                0.0000
     13 C13         28.8759  36.0203  39.7853 C.ar           1 <1>                0.0000
     14 C14         29.7118  36.7487  38.9597 C.ar           1 <1>                0.0000
     15 H15         30.6684  38.3686  34.4627 H              1 <1>                0.0000
     16 H16         30.2227  36.7507  35.0561 H              1 <1>                0.0000
     17 H17         28.9684  37.9940  34.8340 H              1 <1>                0.0000
     18 H18         27.4229  37.9337  36.7838 H              1 <1>                0.0000
     19 H19         25.9350  36.6303  38.2502 H              1 <1>                0.0000
     20 H20         26.8655  35.4054  40.1729 H              1 <1>                0.0000
     21 H21         29.2840  35.4832  40.6287 H              1 <1>                0.0000
     22 H22         30.7726  36.7829  39.1596 H              1 <1>                0.0000
@<TRIPOS>BOND
    1    1    2 1     
    2    1   15 1     
    3    1   16 1     
    4    1   17 1     
    5    2    3 2     
    6    2    4 1     
    7    2    9 1     
    8    4    5 1     
    9    5    6 2     
   10    5    7 2     
   11    5    8 1     
   12    9   10 ar    
   13    9   14 ar    
   14   10   11 ar    
   15   10   18 1     
   16   11   12 ar    
   17   11   19 1     
   18   12   13 ar    
   19   12   20 1     
   20   13   14 ar    
   21   13   21 1     
   22   14   22 1     
@<TRIPOS>SUBSTRUCTURE
      1 ****           1
@<TRIPOS>COMMENT
> <Gold.Version>
2022.2.0

> <Gold.Id.Protein>
1qkm|1qkm_protein|mol2

> <Gold.Protein.RotatedTorsions>
[  496  491  490  487 ] final  123.10 input  -89.99 | X-H torsion

> <Gold.Protein.ActiveResidues>
 MET295  LEU298  THR299  LEU301  ALA302  GLU305  TRP335  MET336  LEU339  MET340 
 GLY342  LEU343  ARG346  PHE356  ILE373  ILE376  PHE377  LEU380  LYS471  GLY472 
 MET473  HIS475  LEU476  LEU477  ASN478  MET479  VAL484  VAL487 

> <Gold.Protein.RotatedAtoms>
   37.1041   32.9490   41.5739 H   0  0  0  0  0  0  0  0  0  0  0  0  # atno 496  bound_to 491 

> <Gold.Score>
     Score     S(PLP)   S(hbond)     S(cho)   S(metal)  DE(clash)   DE(tors)     intcor
     37.44     -37.67       0.00       0.00       0.00       0.00       2.21       4.20

> <Gold.PLP.Fitness>
37.4423

> <Gold.PLP.PLP>
-37.6668

> <Gold.PLP.part.hbond>
0.0000

> <Gold.PLP.part.metal>
0.0000

> <Gold.PLP.part.buried>
-1.0508

> <Gold.PLP.part.nonpolar>
-37.0501

> <Gold.PLP.part.repulsive>
0.0487

> <Gold.PLP.ligand.clash>
0.0000

> <Gold.PLP.ligand.torsion>
2.2146

> <Gold.PLP.Chemscore.Hbond>
0.0000

> <Gold.PLP.Chemscore.CHOScore>
0.0000

> <Gold.PLP.Chemscore.Metal>
0.0000

> <Gold.PLP.Chemscore.Internal.Correction>
4.2046

