#       Name:                EN300-245630_i001
#       Creating user name   aseyller
#       Creation time:       Fri Apr 21 17:35:58 2023


#       File generated by GOLD software.
#

@<TRIPOS>MOLECULE
EN300-245630_i001|Sulfonylchlorides|mol2|306|dock16
    22    22     1
SMALL
USER_CHARGES


@<TRIPOS>ATOM
      1 C1          29.9992  37.0207  35.3735 C.3            1 <1>                0.0000
      2 S2          30.1654  37.8855  36.9594 S.o2           1 <1>                0.0000
      3 O3          30.0040  39.2953  36.8854 O.2            1 <1>                0.0000
      4 N4          31.5225  37.5963  37.5121 N.pl3          1 <1>                0.0000
      5 S5          32.2418  36.1339  37.2182 S.o2           1 <1>                0.0000
      6 O6          31.3862  35.1463  37.7766 O.2            1 <1>                0.0000
      7 O7          32.6281  36.1444  35.8507 O.2            1 <1>                0.0000
      8 Cl8         33.9511  36.0816  38.2934 Cl             1 <1>                0.0000
      9 C9          28.9547  37.2465  38.0687 C.ar           1 <1>                0.0000
     10 C10         29.3495  36.5744  39.2104 C.ar           1 <1>                0.0000
     11 C11         28.3997  36.0730  40.0806 C.ar           1 <1>                0.0000
     12 C12         27.0550  36.2441  39.8093 C.ar           1 <1>                0.0000
     13 C13         26.6602  36.9170  38.6682 C.ar           1 <1>                0.0000
     14 C14         27.6101  37.4221  37.8002 C.ar           1 <1>                0.0000
     15 H15         30.7538  37.3885  34.6782 H              1 <1>                0.0000
     16 H16         30.1376  35.9504  35.5270 H              1 <1>                0.0000
     17 H17         29.0065  37.2034  34.9623 H              1 <1>                0.0000
     18 H18         30.4000  36.4407  39.4222 H              1 <1>                0.0000
     19 H19         28.7081  35.5473  40.9721 H              1 <1>                0.0000
     20 H20         26.3129  35.8518  40.4889 H              1 <1>                0.0000
     21 H21         25.6097  37.0503  38.4562 H              1 <1>                0.0000
     22 H22         27.3017  37.9478  36.9085 H              1 <1>                0.0000
@<TRIPOS>BOND
    1    1    2 1     
    2    1   15 1     
    3    1   16 1     
    4    1   17 1     
    5    2    3 2     
    6    2    4 1     
    7    2    9 1     
    8    4    5 1     
    9    5    6 2     
   10    5    7 2     
   11    5    8 1     
   12    9   10 ar    
   13    9   14 ar    
   14   10   11 ar    
   15   10   18 1     
   16   11   12 ar    
   17   11   19 1     
   18   12   13 ar    
   19   12   20 1     
   20   13   14 ar    
   21   13   21 1     
   22   14   22 1     
@<TRIPOS>SUBSTRUCTURE
      1 ****           1
@<TRIPOS>COMMENT
> <Gold.Version>
2022.2.0

> <Gold.Id.Protein>
1qkm|1qkm_protein|mol2

> <Gold.Protein.RotatedTorsions>
[  496  491  490  487 ] final   78.80 input  -89.99 | X-H torsion

> <Gold.Protein.ActiveResidues>
 MET295  LEU298  THR299  LEU301  ALA302  GLU305  TRP335  MET336  LEU339  MET340 
 GLY342  LEU343  ARG346  PHE356  ILE373  ILE376  PHE377  LEU380  LYS471  GLY472 
 MET473  HIS475  LEU476  LEU477  ASN478  MET479  VAL484  VAL487 

> <Gold.Protein.RotatedAtoms>
   36.7169   33.1105   42.1481 H   0  0  0  0  0  0  0  0  0  0  0  0  # atno 496  bound_to 491 

> <Gold.Score>
     Score     S(PLP)   S(hbond)     S(cho)   S(metal)  DE(clash)   DE(tors)     intcor
     35.08     -35.56       0.00       0.00       0.00       0.00       2.34       4.20

> <Gold.PLP.Fitness>
35.0755

> <Gold.PLP.PLP>
-35.5621

> <Gold.PLP.part.hbond>
0.0000

> <Gold.PLP.part.metal>
0.0000

> <Gold.PLP.part.buried>
-3.9188

> <Gold.PLP.part.nonpolar>
-31.9656

> <Gold.PLP.part.repulsive>
0.0920

> <Gold.PLP.ligand.clash>
0.0000

> <Gold.PLP.ligand.torsion>
2.3440

> <Gold.PLP.Chemscore.Hbond>
0.0000

> <Gold.PLP.Chemscore.CHOScore>
0.0000

> <Gold.PLP.Chemscore.Metal>
0.0000

> <Gold.PLP.Chemscore.Internal.Correction>
4.2015

