#       Name:                EN300-245630_i001
#       Creating user name   aseyller
#       Creation time:       Fri Apr 21 17:35:49 2023


#       File generated by GOLD software.
#

@<TRIPOS>MOLECULE
EN300-245630_i001|Sulfonylchlorides|mol2|306|dock4
    22    22     1
SMALL
USER_CHARGES


@<TRIPOS>ATOM
      1 C1          31.3231  36.0647  38.2420 C.3            1 <1>                0.0000
      2 S2          29.8319  37.0229  37.8563 S.o2           1 <1>                0.0000
      3 O3          29.2045  36.6748  36.6297 O.2            1 <1>                0.0000
      4 N4          30.2039  38.4684  37.8001 N.pl3          1 <1>                0.0000
      5 S5          30.9179  39.0873  36.4401 S.o2           1 <1>                0.0000
      6 O6          30.5983  40.4717  36.4137 O.2            1 <1>                0.0000
      7 O7          32.2516  38.5971  36.4287 O.2            1 <1>                0.0000
      8 Cl8         29.9916  38.2577  34.8482 Cl             1 <1>                0.0000
      9 C9          28.6696  36.7880  39.1595 C.ar           1 <1>                0.0000
     10 C10         29.1063  36.7053  40.4685 C.ar           1 <1>                0.0000
     11 C11         28.1944  36.5208  41.4909 C.ar           1 <1>                0.0000
     12 C12         26.8458  36.4196  41.2044 C.ar           1 <1>                0.0000
     13 C13         26.4091  36.5033  39.8955 C.ar           1 <1>                0.0000
     14 C14         27.3206  36.6920  38.8735 C.ar           1 <1>                0.0000
     15 H15         32.0635  36.2126  37.4558 H              1 <1>                0.0000
     16 H16         31.7333  36.3989  39.1950 H              1 <1>                0.0000
     17 H17         31.0685  35.0069  38.3069 H              1 <1>                0.0000
     18 H18         30.1598  36.7843  40.6923 H              1 <1>                0.0000
     19 H19         28.5356  36.4554  42.5135 H              1 <1>                0.0000
     20 H20         26.1335  36.2749  42.0031 H              1 <1>                0.0000
     21 H21         25.3556  36.4239  39.6717 H              1 <1>                0.0000
     22 H22         26.9794  36.7574  37.8509 H              1 <1>                0.0000
@<TRIPOS>BOND
    1    1    2 1     
    2    1   15 1     
    3    1   16 1     
    4    1   17 1     
    5    2    3 2     
    6    2    4 1     
    7    2    9 1     
    8    4    5 1     
    9    5    6 2     
   10    5    7 2     
   11    5    8 1     
   12    9   10 ar    
   13    9   14 ar    
   14   10   11 ar    
   15   10   18 1     
   16   11   12 ar    
   17   11   19 1     
   18   12   13 ar    
   19   12   20 1     
   20   13   14 ar    
   21   13   21 1     
   22   14   22 1     
@<TRIPOS>SUBSTRUCTURE
      1 ****           1
@<TRIPOS>COMMENT
> <Gold.Version>
2022.2.0

> <Gold.Id.Protein>
1qkm|1qkm_protein|mol2

> <Gold.Protein.RotatedTorsions>
[  496  491  490  487 ] final -110.72 input  -89.99 | X-H torsion

> <Gold.Protein.ActiveResidues>
 MET295  LEU298  THR299  LEU301  ALA302  GLU305  TRP335  MET336  LEU339  MET340 
 GLY342  LEU343  ARG346  PHE356  ILE373  ILE376  PHE377  LEU380  LYS471  GLY472 
 MET473  HIS475  LEU476  LEU477  ASN478  MET479  VAL484  VAL487 

> <Gold.Protein.RotatedAtoms>
   36.9465   34.4675   40.8677 H   0  0  0  0  0  0  0  0  0  0  0  0  # atno 496  bound_to 491 

> <Gold.Score>
     Score     S(PLP)   S(hbond)     S(cho)   S(metal)  DE(clash)   DE(tors)     intcor
     38.03     -38.30       0.00       0.00       0.00       0.00       2.23       4.20

> <Gold.PLP.Fitness>
38.0326

> <Gold.PLP.PLP>
-38.2951

> <Gold.PLP.part.hbond>
0.0000

> <Gold.PLP.part.metal>
0.0000

> <Gold.PLP.part.buried>
-0.2392

> <Gold.PLP.part.nonpolar>
-38.6321

> <Gold.PLP.part.repulsive>
0.0046

> <Gold.PLP.ligand.clash>
0.0000

> <Gold.PLP.ligand.torsion>
2.2321

> <Gold.PLP.Chemscore.Hbond>
0.0000

> <Gold.PLP.Chemscore.CHOScore>
0.0000

> <Gold.PLP.Chemscore.Metal>
0.0000

> <Gold.PLP.Chemscore.Internal.Correction>
4.2017

