#       Name:                EN300-245630_i001
#       Creating user name   aseyller
#       Creation time:       Fri Apr 21 17:35:51 2023


#       File generated by GOLD software.
#

@<TRIPOS>MOLECULE
EN300-245630_i001|Sulfonylchlorides|mol2|306|dock6
    22    22     1
SMALL
USER_CHARGES


@<TRIPOS>ATOM
      1 C1          28.5020  38.3712  36.4244 C.3            1 <1>                0.0000
      2 S2          29.4911  37.5798  37.7229 S.o2           1 <1>                0.0000
      3 O3          30.4308  38.4366  38.3572 O.2            1 <1>                0.0000
      4 N4          30.2341  36.4353  37.1156 N.pl3          1 <1>                0.0000
      5 S5          31.7665  36.6606  36.5295 S.o2           1 <1>                0.0000
      6 O6          32.5151  37.2544  37.5812 O.2            1 <1>                0.0000
      7 O7          32.1395  35.4412  35.9024 O.2            1 <1>                0.0000
      8 Cl8         31.6480  38.0437  35.0622 Cl             1 <1>                0.0000
      9 C9          28.3941  36.9542  38.9515 C.ar           1 <1>                0.0000
     10 C10         28.8957  36.4819  40.1500 C.ar           1 <1>                0.0000
     11 C11         28.0350  35.9910  41.1140 C.ar           1 <1>                0.0000
     12 C12         26.6727  35.9728  40.8795 C.ar           1 <1>                0.0000
     13 C13         26.1712  36.4459  39.6815 C.ar           1 <1>                0.0000
     14 C14         27.0315  36.9408  38.7193 C.ar           1 <1>                0.0000
     15 H15         29.1625  38.7482  35.6435 H              1 <1>                0.0000
     16 H16         27.8133  37.6422  35.9972 H              1 <1>                0.0000
     17 H17         27.9360  39.1986  36.8523 H              1 <1>                0.0000
     18 H18         29.9599  36.4961  40.3331 H              1 <1>                0.0000
     19 H19         28.4269  35.6213  42.0499 H              1 <1>                0.0000
     20 H20         26.0004  35.5887  41.6324 H              1 <1>                0.0000
     21 H21         25.1070  36.4314  39.4983 H              1 <1>                0.0000
     22 H22         26.6396  37.3105  37.7832 H              1 <1>                0.0000
@<TRIPOS>BOND
    1    1    2 1     
    2    1   15 1     
    3    1   16 1     
    4    1   17 1     
    5    2    3 2     
    6    2    4 1     
    7    2    9 1     
    8    4    5 1     
    9    5    6 2     
   10    5    7 2     
   11    5    8 1     
   12    9   10 ar    
   13    9   14 ar    
   14   10   11 ar    
   15   10   18 1     
   16   11   12 ar    
   17   11   19 1     
   18   12   13 ar    
   19   12   20 1     
   20   13   14 ar    
   21   13   21 1     
   22   14   22 1     
@<TRIPOS>SUBSTRUCTURE
      1 ****           1
@<TRIPOS>COMMENT
> <Gold.Version>
2022.2.0

> <Gold.Id.Protein>
1qkm|1qkm_protein|mol2

> <Gold.Protein.RotatedTorsions>
[  496  491  490  487 ] final  164.30 input  -89.99 | X-H torsion

> <Gold.Protein.ActiveResidues>
 MET295  LEU298  THR299  LEU301  ALA302  GLU305  TRP335  MET336  LEU339  MET340 
 GLY342  LEU343  ARG346  PHE356  ILE373  ILE376  PHE377  LEU380  LYS471  GLY472 
 MET473  HIS475  LEU476  LEU477  ASN478  MET479  VAL484  VAL487 

> <Gold.Protein.RotatedAtoms>
   37.3066   33.2550   41.0208 H   0  0  0  0  0  0  0  0  0  0  0  0  # atno 496  bound_to 491 

> <Gold.Score>
     Score     S(PLP)   S(hbond)     S(cho)   S(metal)  DE(clash)   DE(tors)     intcor
     35.55     -35.72       0.00       0.00       0.00       0.00       2.18       4.20

> <Gold.PLP.Fitness>
35.5536

> <Gold.PLP.PLP>
-35.7208

> <Gold.PLP.part.hbond>
0.0000

> <Gold.PLP.part.metal>
0.0000

> <Gold.PLP.part.buried>
0.4633

> <Gold.PLP.part.nonpolar>
-36.3276

> <Gold.PLP.part.repulsive>
0.0559

> <Gold.PLP.ligand.clash>
0.0000

> <Gold.PLP.ligand.torsion>
2.1844

> <Gold.PLP.Chemscore.Hbond>
0.0000

> <Gold.PLP.Chemscore.CHOScore>
0.0000

> <Gold.PLP.Chemscore.Metal>
0.0000

> <Gold.PLP.Chemscore.Internal.Correction>
4.2017

