#       Name:                EN300-245630_i001
#       Creating user name   aseyller
#       Creation time:       Fri Apr 21 17:36:01 2023


#       File generated by GOLD software.
#

@<TRIPOS>MOLECULE
EN300-245630_i001|Sulfonylchlorides|mol2|306|dock19
    22    22     1
SMALL
USER_CHARGES


@<TRIPOS>ATOM
      1 C1          28.7834  39.4609  36.2209 C.3            1 <1>                0.0000
      2 S2          29.5954  38.2455  37.2950 S.o2           1 <1>                0.0000
      3 O3          30.5431  38.7944  38.2006 O.2            1 <1>                0.0000
      4 N4          30.2945  37.2479  36.4309 N.pl3          1 <1>                0.0000
      5 S5          31.6301  37.6976  35.5611 S.o2           1 <1>                0.0000
      6 O6          31.1548  38.1463  34.2993 O.2            1 <1>                0.0000
      7 O7          32.4193  38.5032  36.4256 O.2            1 <1>                0.0000
      8 Cl8         32.7026  36.0236  35.2041 Cl             1 <1>                0.0000
      9 C9          28.3539  37.4139  38.2287 C.ar           1 <1>                0.0000
     10 C10         28.7031  36.3778  39.0745 C.ar           1 <1>                0.0000
     11 C11         27.7290  35.7253  39.8069 C.ar           1 <1>                0.0000
     12 C12         26.4059  36.1093  39.6938 C.ar           1 <1>                0.0000
     13 C13         26.0569  37.1460  38.8487 C.ar           1 <1>                0.0000
     14 C14         27.0315  37.8013  38.1195 C.ar           1 <1>                0.0000
     15 H15         29.5343  39.9734  35.6195 H              1 <1>                0.0000
     16 H16         28.0778  38.9517  35.5644 H              1 <1>                0.0000
     17 H17         28.2502  40.1881  36.8333 H              1 <1>                0.0000
     18 H18         29.7368  36.0778  39.1628 H              1 <1>                0.0000
     19 H19         28.0017  34.9153  40.4672 H              1 <1>                0.0000
     20 H20         25.6448  35.5991  40.2655 H              1 <1>                0.0000
     21 H21         25.0231  37.4457  38.7601 H              1 <1>                0.0000
     22 H22         26.7588  38.6113  37.4592 H              1 <1>                0.0000
@<TRIPOS>BOND
    1    1    2 1     
    2    1   15 1     
    3    1   16 1     
    4    1   17 1     
    5    2    3 2     
    6    2    4 1     
    7    2    9 1     
    8    4    5 1     
    9    5    6 2     
   10    5    7 2     
   11    5    8 1     
   12    9   10 ar    
   13    9   14 ar    
   14   10   11 ar    
   15   10   18 1     
   16   11   12 ar    
   17   11   19 1     
   18   12   13 ar    
   19   12   20 1     
   20   13   14 ar    
   21   13   21 1     
   22   14   22 1     
@<TRIPOS>SUBSTRUCTURE
      1 ****           1
@<TRIPOS>COMMENT
> <Gold.Version>
2022.2.0

> <Gold.Id.Protein>
1qkm|1qkm_protein|mol2

> <Gold.Protein.RotatedTorsions>
[  496  491  490  487 ] final  139.03 input  -89.99 | X-H torsion

> <Gold.Protein.ActiveResidues>
 MET295  LEU298  THR299  LEU301  ALA302  GLU305  TRP335  MET336  LEU339  MET340 
 GLY342  LEU343  ARG346  PHE356  ILE373  ILE376  PHE377  LEU380  LYS471  GLY472 
 MET473  HIS475  LEU476  LEU477  ASN478  MET479  VAL484  VAL487 

> <Gold.Protein.RotatedAtoms>
   37.2089   33.0189   41.3448 H   0  0  0  0  0  0  0  0  0  0  0  0  # atno 496  bound_to 491 

> <Gold.Score>
     Score     S(PLP)   S(hbond)     S(cho)   S(metal)  DE(clash)   DE(tors)     intcor
     35.54     -35.94       0.00       0.00       0.00       0.00       2.30       4.20

> <Gold.PLP.Fitness>
35.5429

> <Gold.PLP.PLP>
-35.9359

> <Gold.PLP.part.hbond>
0.0000

> <Gold.PLP.part.metal>
0.0000

> <Gold.PLP.part.buried>
1.1452

> <Gold.PLP.part.nonpolar>
-37.1904

> <Gold.PLP.part.repulsive>
0.0929

> <Gold.PLP.ligand.clash>
0.0000

> <Gold.PLP.ligand.torsion>
2.2973

> <Gold.PLP.Chemscore.Hbond>
0.0000

> <Gold.PLP.Chemscore.CHOScore>
0.0000

> <Gold.PLP.Chemscore.Metal>
0.0000

> <Gold.PLP.Chemscore.Internal.Correction>
4.2015

