#       Name:                EN300-245630_i001
#       Creating user name   aseyller
#       Creation time:       Fri Apr 21 17:35:58 2023


#       File generated by GOLD software.
#

@<TRIPOS>MOLECULE
EN300-245630_i001|Sulfonylchlorides|mol2|306|dock15
    22    22     1
SMALL
USER_CHARGES


@<TRIPOS>ATOM
      1 C1          31.7059  33.9970  38.6613 C.3            1 <1>                0.0000
      2 S2          30.9186  35.6019  38.3533 S.o2           1 <1>                0.0000
      3 O3          31.0753  36.5496  39.4006 O.2            1 <1>                0.0000
      4 N4          29.4580  35.3753  38.1394 N.pl3          1 <1>                0.0000
      5 S5          28.3531  36.4192  38.7968 S.o2           1 <1>                0.0000
      6 O6          28.5483  37.6695  38.1503 O.2            1 <1>                0.0000
      7 O7          27.1084  35.7338  38.8039 O.2            1 <1>                0.0000
      8 Cl8         28.8655  36.6915  40.7316 Cl             1 <1>                0.0000
      9 C9          31.6070  36.2836  36.8816 C.ar           1 <1>                0.0000
     10 C10         30.9059  37.2377  36.1681 C.ar           1 <1>                0.0000
     11 C11         31.4459  37.7724  35.0134 C.ar           1 <1>                0.0000
     12 C12         32.6872  37.3533  34.5724 C.ar           1 <1>                0.0000
     13 C13         33.3887  36.3999  35.2864 C.ar           1 <1>                0.0000
     14 C14         32.8506  35.8684  36.4435 C.ar           1 <1>                0.0000
     15 H15         31.2788  33.5490  39.5586 H              1 <1>                0.0000
     16 H16         31.5343  33.3387  37.8096 H              1 <1>                0.0000
     17 H17         32.7776  34.1388  38.8008 H              1 <1>                0.0000
     18 H18         29.9361  37.5650  36.5126 H              1 <1>                0.0000
     19 H19         30.8978  38.5172  34.4556 H              1 <1>                0.0000
     20 H20         33.1088  37.7706  33.6699 H              1 <1>                0.0000
     21 H21         34.3583  36.0723  34.9417 H              1 <1>                0.0000
     22 H22         33.3986  35.1234  37.0013 H              1 <1>                0.0000
@<TRIPOS>BOND
    1    1    2 1     
    2    1   15 1     
    3    1   16 1     
    4    1   17 1     
    5    2    3 2     
    6    2    4 1     
    7    2    9 1     
    8    4    5 1     
    9    5    6 2     
   10    5    7 2     
   11    5    8 1     
   12    9   10 ar    
   13    9   14 ar    
   14   10   11 ar    
   15   10   18 1     
   16   11   12 ar    
   17   11   19 1     
   18   12   13 ar    
   19   12   20 1     
   20   13   14 ar    
   21   13   21 1     
   22   14   22 1     
@<TRIPOS>SUBSTRUCTURE
      1 ****           1
@<TRIPOS>COMMENT
> <Gold.Version>
2022.2.0

> <Gold.Id.Protein>
1qkm|1qkm_protein|mol2

> <Gold.Protein.RotatedTorsions>
[  496  491  490  487 ] final  -26.14 input  -89.99 | X-H torsion

> <Gold.Protein.ActiveResidues>
 MET295  LEU298  THR299  LEU301  ALA302  GLU305  TRP335  MET336  LEU339  MET340 
 GLY342  LEU343  ARG346  PHE356  ILE373  ILE376  PHE377  LEU380  LYS471  GLY472 
 MET473  HIS475  LEU476  LEU477  ASN478  MET479  VAL484  VAL487 

> <Gold.Protein.RotatedAtoms>
   36.3000   34.5345   41.9579 H   0  0  0  0  0  0  0  0  0  0  0  0  # atno 496  bound_to 491 

> <Gold.Score>
     Score     S(PLP)   S(hbond)     S(cho)   S(metal)  DE(clash)   DE(tors)     intcor
     36.10     -36.35       0.00       0.00       0.00       0.00       2.23       4.20

> <Gold.PLP.Fitness>
36.0994

> <Gold.PLP.PLP>
-36.3535

> <Gold.PLP.part.hbond>
0.0000

> <Gold.PLP.part.metal>
0.0000

> <Gold.PLP.part.buried>
1.8996

> <Gold.PLP.part.nonpolar>
-38.3830

> <Gold.PLP.part.repulsive>
0.2609

> <Gold.PLP.ligand.clash>
0.0000

> <Gold.PLP.ligand.torsion>
2.2278

> <Gold.PLP.Chemscore.Hbond>
0.0000

> <Gold.PLP.Chemscore.CHOScore>
0.0000

> <Gold.PLP.Chemscore.Metal>
0.0000

> <Gold.PLP.Chemscore.Internal.Correction>
4.2015

