#       Name:                EN300-245630_i001
#       Creating user name   aseyller
#       Creation time:       Fri Apr 21 17:35:52 2023


#       File generated by GOLD software.
#

@<TRIPOS>MOLECULE
EN300-245630_i001|Sulfonylchlorides|mol2|306|dock8
    22    22     1
SMALL
USER_CHARGES


@<TRIPOS>ATOM
      1 C1          31.2134  35.7775  38.7996 C.3            1 <1>                0.0000
      2 S2          29.8251  36.7789  38.1992 S.o2           1 <1>                0.0000
      3 O3          29.3016  36.3729  36.9421 O.2            1 <1>                0.0000
      4 N4          30.2838  38.1954  38.0819 N.pl3          1 <1>                0.0000
      5 S5          29.7569  39.1348  36.8240 S.o2           1 <1>                0.0000
      6 O6          30.2850  40.4353  37.0457 O.2            1 <1>                0.0000
      7 O7          29.9980  38.3897  35.6383 O.2            1 <1>                0.0000
      8 Cl8         27.7509  39.2965  36.9981 Cl             1 <1>                0.0000
      9 C9          28.5293  36.7005  39.3906 C.ar           1 <1>                0.0000
     10 C10         27.2117  36.8088  38.9867 C.ar           1 <1>                0.0000
     11 C11         26.1950  36.7475  39.9214 C.ar           1 <1>                0.0000
     12 C12         26.4960  36.5773  41.2598 C.ar           1 <1>                0.0000
     13 C13         27.8136  36.4681  41.6635 C.ar           1 <1>                0.0000
     14 C14         28.8300  36.5251  40.7283 C.ar           1 <1>                0.0000
     15 H15         32.0345  35.8289  38.0845 H              1 <1>                0.0000
     16 H16         31.5472  36.1603  39.7641 H              1 <1>                0.0000
     17 H17         30.8929  34.7417  38.9109 H              1 <1>                0.0000
     18 H18         26.9766  36.9419  37.9411 H              1 <1>                0.0000
     19 H19         25.1657  36.8329  39.6060 H              1 <1>                0.0000
     20 H20         25.7018  36.5300  41.9901 H              1 <1>                0.0000
     21 H21         28.0487  36.3355  42.7092 H              1 <1>                0.0000
     22 H22         29.8594  36.4398  41.0437 H              1 <1>                0.0000
@<TRIPOS>BOND
    1    1    2 1     
    2    1   15 1     
    3    1   16 1     
    4    1   17 1     
    5    2    3 2     
    6    2    4 1     
    7    2    9 1     
    8    4    5 1     
    9    5    6 2     
   10    5    7 2     
   11    5    8 1     
   12    9   10 ar    
   13    9   14 ar    
   14   10   11 ar    
   15   10   18 1     
   16   11   12 ar    
   17   11   19 1     
   18   12   13 ar    
   19   12   20 1     
   20   13   14 ar    
   21   13   21 1     
   22   14   22 1     
@<TRIPOS>SUBSTRUCTURE
      1 ****           1
@<TRIPOS>COMMENT
> <Gold.Version>
2022.2.0

> <Gold.Id.Protein>
1qkm|1qkm_protein|mol2

> <Gold.Protein.RotatedTorsions>
[  496  491  490  487 ] final   56.29 input  -89.99 | X-H torsion

> <Gold.Protein.ActiveResidues>
 MET295  LEU298  THR299  LEU301  ALA302  GLU305  TRP335  MET336  LEU339  MET340 
 GLY342  LEU343  ARG346  PHE356  ILE373  ILE376  PHE377  LEU380  LYS471  GLY472 
 MET473  HIS475  LEU476  LEU477  ASN478  MET479  VAL484  VAL487 

> <Gold.Protein.RotatedAtoms>
   36.5213   33.3678   42.3245 H   0  0  0  0  0  0  0  0  0  0  0  0  # atno 496  bound_to 491 

> <Gold.Score>
     Score     S(PLP)   S(hbond)     S(cho)   S(metal)  DE(clash)   DE(tors)     intcor
     38.41     -38.47       0.00       0.00       0.00       0.00       2.13       4.20

> <Gold.PLP.Fitness>
38.4108

> <Gold.PLP.PLP>
-38.4723

> <Gold.PLP.part.hbond>
0.0000

> <Gold.PLP.part.metal>
0.0000

> <Gold.PLP.part.buried>
0.7209

> <Gold.PLP.part.nonpolar>
-39.6601

> <Gold.PLP.part.repulsive>
0.0000

> <Gold.PLP.ligand.clash>
0.0000

> <Gold.PLP.ligand.torsion>
2.1316

> <Gold.PLP.Chemscore.Hbond>
0.0000

> <Gold.PLP.Chemscore.CHOScore>
0.0000

> <Gold.PLP.Chemscore.Metal>
0.0000

> <Gold.PLP.Chemscore.Internal.Correction>
4.2017

