#       Name:                EN300-245630_i001
#       Creating user name   aseyller
#       Creation time:       Fri Apr 21 17:35:50 2023


#       File generated by GOLD software.
#

@<TRIPOS>MOLECULE
EN300-245630_i001|Sulfonylchlorides|mol2|306|dock5
    22    22     1
SMALL
USER_CHARGES


@<TRIPOS>ATOM
      1 C1          29.5904  39.8556  37.0107 C.3            1 <1>                0.0000
      2 S2          29.7426  38.0709  37.2974 S.o2           1 <1>                0.0000
      3 O3          28.6010  37.3112  36.9247 O.2            1 <1>                0.0000
      4 N4          30.0002  37.8491  38.7518 N.pl3          1 <1>                0.0000
      5 S5          29.3441  36.5357  39.5179 S.o2           1 <1>                0.0000
      6 O6          29.9971  35.3921  38.9840 O.2            1 <1>                0.0000
      7 O7          29.3298  36.8458  40.9046 O.2            1 <1>                0.0000
      8 Cl8         27.4123  36.4105  38.9413 Cl             1 <1>                0.0000
      9 C9          31.1259  37.4783  36.3810 C.ar           1 <1>                0.0000
     10 C10         31.6038  38.2028  35.3049 C.ar           1 <1>                0.0000
     11 C11         32.6890  37.7378  34.5858 C.ar           1 <1>                0.0000
     12 C12         33.2966  36.5486  34.9431 C.ar           1 <1>                0.0000
     13 C13         32.8193  35.8247  36.0196 C.ar           1 <1>                0.0000
     14 C14         31.7368  36.2918  36.7414 C.ar           1 <1>                0.0000
     15 H15         28.7505  40.2456  37.5857 H              1 <1>                0.0000
     16 H16         30.5079  40.3535  37.3244 H              1 <1>                0.0000
     17 H17         29.4213  40.0400  35.9498 H              1 <1>                0.0000
     18 H18         31.1290  39.1317  35.0258 H              1 <1>                0.0000
     19 H19         33.0618  38.3034  33.7448 H              1 <1>                0.0000
     20 H20         34.1440  36.1851  34.3809 H              1 <1>                0.0000
     21 H21         33.2938  34.8955  36.2985 H              1 <1>                0.0000
     22 H22         31.3639  35.7262  37.5825 H              1 <1>                0.0000
@<TRIPOS>BOND
    1    1    2 1     
    2    1   15 1     
    3    1   16 1     
    4    1   17 1     
    5    2    3 2     
    6    2    4 1     
    7    2    9 1     
    8    4    5 1     
    9    5    6 2     
   10    5    7 2     
   11    5    8 1     
   12    9   10 ar    
   13    9   14 ar    
   14   10   11 ar    
   15   10   18 1     
   16   11   12 ar    
   17   11   19 1     
   18   12   13 ar    
   19   12   20 1     
   20   13   14 ar    
   21   13   21 1     
   22   14   22 1     
@<TRIPOS>SUBSTRUCTURE
      1 ****           1
@<TRIPOS>COMMENT
> <Gold.Version>
2022.2.0

> <Gold.Id.Protein>
1qkm|1qkm_protein|mol2

> <Gold.Protein.RotatedTorsions>
[  496  491  490  487 ] final -126.89 input  -89.99 | X-H torsion

> <Gold.Protein.ActiveResidues>
 MET295  LEU298  THR299  LEU301  ALA302  GLU305  TRP335  MET336  LEU339  MET340 
 GLY342  LEU343  ARG346  PHE356  ILE373  ILE376  PHE377  LEU380  LYS471  GLY472 
 MET473  HIS475  LEU476  LEU477  ASN478  MET479  VAL484  VAL487 

> <Gold.Protein.RotatedAtoms>
   37.0812   34.2643   40.7630 H   0  0  0  0  0  0  0  0  0  0  0  0  # atno 496  bound_to 491 

> <Gold.Score>
     Score     S(PLP)   S(hbond)     S(cho)   S(metal)  DE(clash)   DE(tors)     intcor
     41.00     -41.26       0.00       0.00       0.00       0.00       2.23       4.20

> <Gold.PLP.Fitness>
40.9980

> <Gold.PLP.PLP>
-41.2572

> <Gold.PLP.part.hbond>
0.0000

> <Gold.PLP.part.metal>
0.0000

> <Gold.PLP.part.buried>
-4.3674

> <Gold.PLP.part.nonpolar>
-37.4681

> <Gold.PLP.part.repulsive>
0.1840

> <Gold.PLP.ligand.clash>
0.0000

> <Gold.PLP.ligand.torsion>
2.2304

> <Gold.PLP.Chemscore.Hbond>
0.0000

> <Gold.PLP.Chemscore.CHOScore>
0.0000

> <Gold.PLP.Chemscore.Metal>
0.0000

> <Gold.PLP.Chemscore.Internal.Correction>
4.2017

