#       Name:                EN300-245630_i001
#       Creating user name   aseyller
#       Creation time:       Fri Apr 21 17:35:52 2023


#       File generated by GOLD software.
#

@<TRIPOS>MOLECULE
EN300-245630_i001|Sulfonylchlorides|mol2|306|dock7
    22    22     1
SMALL
USER_CHARGES


@<TRIPOS>ATOM
      1 C1          28.8002  39.2030  36.3846 C.3            1 <1>                0.0000
      2 S2          29.7021  37.9767  37.3712 S.o2           1 <1>                0.0000
      3 O3          30.7708  38.5071  38.1431 O.2            1 <1>                0.0000
      4 N4          30.2584  36.9456  36.4448 N.pl3          1 <1>                0.0000
      5 S5          31.8941  36.8411  36.2084 S.o2           1 <1>                0.0000
      6 O6          32.0920  35.8585  35.2011 O.2            1 <1>                0.0000
      7 O7          32.3694  38.1756  36.0964 O.2            1 <1>                0.0000
      8 Cl8         32.6964  36.0902  37.9033 Cl             1 <1>                0.0000
      9 C9          28.5614  37.1981  38.4652 C.ar           1 <1>                0.0000
     10 C10         27.2025  37.2942  38.2299 C.ar           1 <1>                0.0000
     11 C11         26.3075  36.6834  39.0883 C.ar           1 <1>                0.0000
     12 C12         26.7714  35.9761  40.1817 C.ar           1 <1>                0.0000
     13 C13         28.1302  35.8793  40.4165 C.ar           1 <1>                0.0000
     14 C14         29.0254  36.4865  39.5557 C.ar           1 <1>                0.0000
     15 H15         29.4860  39.6830  35.6862 H              1 <1>                0.0000
     16 H16         28.0037  38.7077  35.8291 H              1 <1>                0.0000
     17 H17         28.3692  39.9550  37.0453 H              1 <1>                0.0000
     18 H18         26.8402  37.8468  37.3757 H              1 <1>                0.0000
     19 H19         25.2460  36.7590  38.9048 H              1 <1>                0.0000
     20 H20         26.0721  35.4995  40.8526 H              1 <1>                0.0000
     21 H21         28.4925  35.3270  41.2709 H              1 <1>                0.0000
     22 H22         30.0870  36.4108  39.7391 H              1 <1>                0.0000
@<TRIPOS>BOND
    1    1    2 1     
    2    1   15 1     
    3    1   16 1     
    4    1   17 1     
    5    2    3 2     
    6    2    4 1     
    7    2    9 1     
    8    4    5 1     
    9    5    6 2     
   10    5    7 2     
   11    5    8 1     
   12    9   10 ar    
   13    9   14 ar    
   14   10   11 ar    
   15   10   18 1     
   16   11   12 ar    
   17   11   19 1     
   18   12   13 ar    
   19   12   20 1     
   20   13   14 ar    
   21   13   21 1     
   22   14   22 1     
@<TRIPOS>SUBSTRUCTURE
      1 ****           1
@<TRIPOS>COMMENT
> <Gold.Version>
2022.2.0

> <Gold.Id.Protein>
1qkm|1qkm_protein|mol2

> <Gold.Protein.RotatedTorsions>
[  496  491  490  487 ] final  142.07 input  -89.99 | X-H torsion

> <Gold.Protein.ActiveResidues>
 MET295  LEU298  THR299  LEU301  ALA302  GLU305  TRP335  MET336  LEU339  MET340 
 GLY342  LEU343  ARG346  PHE356  ILE373  ILE376  PHE377  LEU380  LYS471  GLY472 
 MET473  HIS475  LEU476  LEU477  ASN478  MET479  VAL484  VAL487 

> <Gold.Protein.RotatedAtoms>
   37.2254   33.0396   41.3025 H   0  0  0  0  0  0  0  0  0  0  0  0  # atno 496  bound_to 491 

> <Gold.Score>
     Score     S(PLP)   S(hbond)     S(cho)   S(metal)  DE(clash)   DE(tors)     intcor
     37.38     -37.46       0.00       0.00       0.00       0.00       2.14       4.20

> <Gold.PLP.Fitness>
37.3757

> <Gold.PLP.PLP>
-37.4574

> <Gold.PLP.part.hbond>
0.0000

> <Gold.PLP.part.metal>
0.0000

> <Gold.PLP.part.buried>
0.5215

> <Gold.PLP.part.nonpolar>
-37.7826

> <Gold.PLP.part.repulsive>
0.1153

> <Gold.PLP.ligand.clash>
0.0000

> <Gold.PLP.ligand.torsion>
2.1417

> <Gold.PLP.Chemscore.Hbond>
0.0000

> <Gold.PLP.Chemscore.CHOScore>
0.0000

> <Gold.PLP.Chemscore.Metal>
0.0000

> <Gold.PLP.Chemscore.Internal.Correction>
4.2017

