#       Name:                EN300-245630_i001
#       Creating user name   aseyller
#       Creation time:       Fri Apr 21 17:35:53 2023


#       File generated by GOLD software.
#

@<TRIPOS>MOLECULE
EN300-245630_i001|Sulfonylchlorides|mol2|306|dock9
    22    22     1
SMALL
USER_CHARGES


@<TRIPOS>ATOM
      1 C1          30.9707  34.9997  38.4857 C.3            1 <1>                0.0000
      2 S2          30.2448  36.5661  37.9292 S.o2           1 <1>                0.0000
      3 O3          30.3006  37.6174  38.8837 O.2            1 <1>                0.0000
      4 N4          28.8128  36.3229  37.5814 N.pl3          1 <1>                0.0000
      5 S5          27.6428  36.4630  38.7450 S.o2           1 <1>                0.0000
      6 O6          26.9608  37.6819  38.4836 O.2            1 <1>                0.0000
      7 O7          26.9873  35.2038  38.8085 O.2            1 <1>                0.0000
      8 Cl8         28.5858  36.7051  40.5148 Cl             1 <1>                0.0000
      9 C9          31.0985  37.0883  36.4790 C.ar           1 <1>                0.0000
     10 C10         30.6444  38.1820  35.7658 C.ar           1 <1>                0.0000
     11 C11         31.3141  38.5917  34.6280 C.ar           1 <1>                0.0000
     12 C12         32.4382  37.9079  34.2038 C.ar           1 <1>                0.0000
     13 C13         32.8927  36.8149  34.9175 C.ar           1 <1>                0.0000
     14 C14         32.2255  36.4078  36.0577 C.ar           1 <1>                0.0000
     15 H15         30.4424  34.6491  39.3724 H              1 <1>                0.0000
     16 H16         30.8830  34.2566  37.6930 H              1 <1>                0.0000
     17 H17         32.0228  35.1519  38.7262 H              1 <1>                0.0000
     18 H18         29.7662  38.7161  36.0972 H              1 <1>                0.0000
     19 H19         30.9590  39.4456  34.0704 H              1 <1>                0.0000
     20 H20         32.9610  38.2276  33.3145 H              1 <1>                0.0000
     21 H21         33.7707  36.2806  34.5858 H              1 <1>                0.0000
     22 H22         32.5806  35.5538  36.6154 H              1 <1>                0.0000
@<TRIPOS>BOND
    1    1    2 1     
    2    1   15 1     
    3    1   16 1     
    4    1   17 1     
    5    2    3 2     
    6    2    4 1     
    7    2    9 1     
    8    4    5 1     
    9    5    6 2     
   10    5    7 2     
   11    5    8 1     
   12    9   10 ar    
   13    9   14 ar    
   14   10   11 ar    
   15   10   18 1     
   16   11   12 ar    
   17   11   19 1     
   18   12   13 ar    
   19   12   20 1     
   20   13   14 ar    
   21   13   21 1     
   22   14   22 1     
@<TRIPOS>SUBSTRUCTURE
      1 ****           1
@<TRIPOS>COMMENT
> <Gold.Version>
2022.2.0

> <Gold.Id.Protein>
1qkm|1qkm_protein|mol2

> <Gold.Protein.RotatedTorsions>
[  496  491  490  487 ] final -142.55 input  -89.99 | X-H torsion

> <Gold.Protein.ActiveResidues>
 MET295  LEU298  THR299  LEU301  ALA302  GLU305  TRP335  MET336  LEU339  MET340 
 GLY342  LEU343  ARG346  PHE356  ILE373  ILE376  PHE377  LEU380  LYS471  GLY472 
 MET473  HIS475  LEU476  LEU477  ASN478  MET479  VAL484  VAL487 

> <Gold.Protein.RotatedAtoms>
   37.1897   34.0351   40.7212 H   0  0  0  0  0  0  0  0  0  0  0  0  # atno 496  bound_to 491 

> <Gold.Score>
     Score     S(PLP)   S(hbond)     S(cho)   S(metal)  DE(clash)   DE(tors)     intcor
     35.27     -35.70       0.00       0.00       0.00       0.00       2.31       4.20

> <Gold.PLP.Fitness>
35.2741

> <Gold.PLP.PLP>
-35.6982

> <Gold.PLP.part.hbond>
0.0000

> <Gold.PLP.part.metal>
0.0000

> <Gold.PLP.part.buried>
0.5998

> <Gold.PLP.part.nonpolar>
-36.5604

> <Gold.PLP.part.repulsive>
0.0733

> <Gold.PLP.ligand.clash>
0.0000

> <Gold.PLP.ligand.torsion>
2.3129

> <Gold.PLP.Chemscore.Hbond>
0.0000

> <Gold.PLP.Chemscore.CHOScore>
0.0000

> <Gold.PLP.Chemscore.Metal>
0.0000

> <Gold.PLP.Chemscore.Internal.Correction>
4.2017

