#       Name:                plp ligand
#       Creating user name   aseyller
#       Creation time:       Fri Apr 21 17:35:47 2023


#       File generated by GOLD software.
#

@<TRIPOS>MOLECULE
plp ligand
    22    22     1
SMALL
USER_CHARGES


@<TRIPOS>ATOM
      1 C1           0.3121   2.5029  -1.2814 NONPOLAR       1 <1>                0.0000
      2 S2           0.7915   1.3367   0.0227 NONPOLAR       1 <1>                0.0000
      3 O3           0.9362   1.9162   1.3121 ACCEPTOR       1 <1>                0.0000
      4 N4           2.0931   0.7125  -0.3606 ACCEPTOR       1 <1>                0.0000
      5 S5           2.7696  -0.4507   0.6047 NONPOLAR       1 <1>                0.0000
      6 O6           3.1257   0.1937   1.8201 ACCEPTOR       1 <1>                0.0000
      7 O7           1.9024  -1.5749   0.5461 ACCEPTOR       1 <1>                0.0000
      8 Cl8          4.5004  -1.0193  -0.2678 NONPOLAR       1 <1>                0.0000
      9 C9          -0.4351   0.0753   0.1165 NONPOLAR       1 <1>                0.0000
     10 C10         -0.3103  -1.0685  -0.6498 NONPOLAR       1 <1>                0.0000
     11 C11         -1.2727  -2.0581  -0.5763 NONPOLAR       1 <1>                0.0000
     12 C12         -2.3596  -1.9041   0.2639 NONPOLAR       1 <1>                0.0000
     13 C13         -2.4839  -0.7608   1.0308 NONPOLAR       1 <1>                0.0000
     14 C14         -1.5193   0.2269   0.9605 NONPOLAR       1 <1>                0.0000
     15 H15          1.0697   3.2818  -1.3688                1 <1>                0.0000
     16 H16          0.2256   1.9722  -2.2296                1 <1>                0.0000
     17 H17         -0.6469   2.9555  -1.0295                1 <1>                0.0000
     18 H18          0.5388  -1.1887  -1.3062                1 <1>                0.0000
     19 H19         -1.1756  -2.9513  -1.1755                1 <1>                0.0000
     20 H20         -3.1118  -2.6770   0.3208                1 <1>                0.0000
     21 H21         -3.3332  -0.6404   1.6869                1 <1>                0.0000
     22 H22         -1.6164   1.1202   1.5597                1 <1>                0.0000
@<TRIPOS>BOND
    1    1    2 1     
    2    1   15 1     
    3    1   16 1     
    4    1   17 1     
    5    2    3 2     
    6    2    4 1     
    7    2    9 1     
    8    4    5 1     
    9    5    6 2     
   10    5    7 2     
   11    5    8 1     
   12    9   10 ar    
   13    9   14 ar    
   14   10   11 ar    
   15   10   18 1     
   16   11   12 ar    
   17   11   19 1     
   18   12   13 ar    
   19   12   20 1     
   20   13   14 ar    
   21   13   21 1     
   22   14   22 1     
@<TRIPOS>SUBSTRUCTURE
      1 ****           1
@<TRIPOS>SET
DONOR_HYDROGENS      STATIC     ATOMS    <user>   **** ""
0
ATOM$RED        STATIC     ATOMS    COLORGROUP SYSTEM
0
