#       Name:                EN300-315786_i001
#       Creating user name   fsindt
#       Creation time:       Tue Feb 28 19:15:01 2023


#       File generated by GOLD software.
#

@<TRIPOS>MOLECULE
EN300-315786_i001|acide_2|mol2|6664|dock10
    29    30     1
SMALL
USER_CHARGES


@<TRIPOS>ATOM
      1 O1           0.3816 -20.0236  13.0663 O.co2          1 <1>               -1.0000
      2 C2           0.5094 -18.9963  13.7168 C.2            1 <1>                0.0000
      3 O3           0.8368 -19.0545  14.8933 O.co2          1 <1>                0.0000
      4 C4           0.2742 -17.6840  13.0792 C.ar           1 <1>                0.0000
      5 C5           0.4158 -16.5104  13.8230 C.ar           1 <1>                0.0000
      6 C6           0.1963 -15.2870  13.2278 C.ar           1 <1>                0.0000
      7 C7          -0.1673 -15.2204  11.8823 C.ar           1 <1>                0.0000
      8 C8          -0.3089 -16.3926  11.1385 C.ar           1 <1>                0.0000
      9 C9          -0.0841 -17.6165  11.7310 C.ar           1 <1>                0.0000
     10 C10         -0.4035 -13.9054  11.2436 C.2            1 <1>                0.0000
     11 O11         -1.2907 -13.1823  11.6517 O.2            1 <1>                0.0000
     12 N12          0.3655 -13.5106  10.2096 N.am           1 <1>                0.0000
     13 C13          1.3908 -14.4021   9.6442 C.3            1 <1>                0.0000
     14 C14          1.1996 -14.4561   8.1243 C.3            1 <1>                0.0000
     15 O15          1.1616 -13.1240   7.6070 O.3            1 <1>                0.0000
     16 C16          0.0712 -12.3379   8.0938 C.3            1 <1>                0.0000
     17 C17          0.2007 -12.1775   9.6087 C.3            1 <1>                0.0000
     18 H18          0.6969 -16.5618  14.8646 H              1 <1>                0.0000
     19 H19          0.3054 -14.3793  13.8031 H              1 <1>                0.0000
     20 H20         -0.5908 -16.3404  10.0972 H              1 <1>                0.0000
     21 H21         -0.1935 -18.5236  11.1551 H              1 <1>                0.0000
     22 H22          2.3827 -14.0143   9.8760 H              1 <1>                0.0000
     23 H23          1.2797 -15.4019  10.0640 H              1 <1>                0.0000
     24 H24          2.0297 -14.9988   7.6719 H              1 <1>                0.0000
     25 H25          0.2629 -14.9633   7.8929 H              1 <1>                0.0000
     26 H26          0.0895 -11.3566   7.6197 H              1 <1>                0.0000
     27 H27         -0.8695 -12.8374   7.8624 H              1 <1>                0.0000
     28 H28         -0.6965 -11.7026  10.0057 H              1 <1>                0.0000
     29 H29          1.0732 -11.5663   9.8398 H              1 <1>                0.0000
@<TRIPOS>BOND
    1    1    2 ar    
    2    2    3 ar    
    3    2    4 1     
    4    4    5 ar    
    5    4    9 ar    
    6    5    6 ar    
    7    5   18 1     
    8    6    7 ar    
    9    6   19 1     
   10    7    8 ar    
   11    7   10 1     
   12    8    9 ar    
   13    8   20 1     
   14    9   21 1     
   15   10   11 2     
   16   10   12 am    
   17   12   13 1     
   18   12   17 1     
   19   13   14 1     
   20   13   22 1     
   21   13   23 1     
   22   14   15 1     
   23   14   24 1     
   24   14   25 1     
   25   15   16 1     
   26   16   17 1     
   27   16   26 1     
   28   16   27 1     
   29   17   28 1     
   30   17   29 1     
@<TRIPOS>SUBSTRUCTURE
      1 ****           1
@<TRIPOS>COMMENT
> <Gold.Version>
2022.2.0

> <Gold.Id.Protein>
3pbl|protein|mol2

> <Gold.Protein.RotatedTorsions>
[ 1303 1298 1297 1294 ] final -139.63 input  179.99 | X-H torsion
[ 2461 2456 2455 2452 ] final   88.27 input   30.03 | X-H torsion
[ 2515 2510 2509 2506 ] final -100.44 input  -89.99 | X-H torsion
[ 3721 3712 3711 3710 ] final   24.30 input -179.91 | X-H torsion
[ 3841 3832 3831 3830 ] final   95.34 input -179.91 | X-H torsion
[ 3767 3762 3761 3758 ] final   -4.41 input  -89.99 | X-H torsion
[ 2472 2467 2466 2463 ] final -111.69 input  -89.97 | X-H torsion

> <Gold.Protein.ActiveResidues>
 VAL82   VAL86   LEU89   PHE106  VAL107  ASP110  VAL111  MET112  CYS114  THR115 
 CYS181  SER182  ILE183  PHE188  VAL189  ILE190  SER192  SER193  SER196  TRP342 
 PHE345  PHE346  HIS349  VAL350  TYR365  THR369  GLY372  TYR373 

> <Gold.Protein.RotatedAtoms>
    4.4896   -8.5099    4.2854 H   0  0  0  0  0  0  0  0  0  0  0  0  # atno 1303 bound_to 1298
    2.1317   -8.2792    7.7021 H   0  0  0  0  0  0  0  0  0  0  0  0  # atno 2461 bound_to 2456
   -4.3670   -5.4236    9.4189 H   0  0  0  0  0  0  0  0  0  0  0  0  # atno 2472 bound_to 2467
    2.7949   -9.0497    4.7321 H   0  0  0  0  0  0  0  0  0  0  0  0  # atno 2515 bound_to 2510
   -2.4743  -18.0339   13.8863 H   0  0  0  0  0  0  0  0  0  0  0  0  # atno 3721 bound_to 3712
   -5.3610  -22.6622   10.1767 H   0  0  0  0  0  0  0  0  0  0  0  0  # atno 3767 bound_to 3762
    2.8971  -20.8985    9.2087 H   0  0  0  0  0  0  0  0  0  0  0  0  # atno 3841 bound_to 3832
    4.5424  -10.0189    4.9070 LP  0  0  0  0  0  0  0  0  0  0  0  0  # atno 4297 bound_to 1298
    3.3301   -9.5929    3.8992 LP  0  0  0  0  0  0  0  0  0  0  0  0  # atno 4298 bound_to 1298
    0.6025   -8.2407    7.1297 LP  0  0  0  0  0  0  0  0  0  0  0  0  # atno 4299 bound_to 2456
    1.0039   -9.2882    8.3163 LP  0  0  0  0  0  0  0  0  0  0  0  0  # atno 4300 bound_to 2456
    2.0973   -8.4803    6.0940 LP  0  0  0  0  0  0  0  0  0  0  0  0  # atno 4301 bound_to 2510
    2.4043   -7.4688    4.8494 LP  0  0  0  0  0  0  0  0  0  0  0  0  # atno 4302 bound_to 2510
   -3.2772  -16.9284   14.7296 LP  0  0  0  0  0  0  0  0  0  0  0  0  # atno 4306 bound_to 3712
   -3.3939  -16.9774   13.1015 LP  0  0  0  0  0  0  0  0  0  0  0  0  # atno 4307 bound_to 3712
    1.4115  -20.2946    9.2762 LP  0  0  0  0  0  0  0  0  0  0  0  0  # atno 4314 bound_to 3832
    2.4712  -19.7698    8.1500 LP  0  0  0  0  0  0  0  0  0  0  0  0  # atno 4315 bound_to 3832
   -4.7878  -21.9919   11.5511 LP  0  0  0  0  0  0  0  0  0  0  0  0  # atno 4318 bound_to 3762
   -3.9787  -23.2209   10.8430 LP  0  0  0  0  0  0  0  0  0  0  0  0  # atno 4319 bound_to 3762
   -5.4674   -5.1228    8.2505 LP  0  0  0  0  0  0  0  0  0  0  0  0  # atno 4320 bound_to 2467
   -3.8825   -4.8473    7.9699 LP  0  0  0  0  0  0  0  0  0  0  0  0  # atno 4321 bound_to 2467

> <Gold.Score>
     Score     S(PLP)   S(hbond)     S(cho)   S(metal)  DE(clash)   DE(tors)     intcor
     41.25     -41.46       0.00       0.00       0.00       0.00       1.17       2.13

> <Gold.PLP.Fitness>
41.2452

> <Gold.PLP.PLP>
-41.4558

> <Gold.PLP.part.hbond>
-0.3939

> <Gold.PLP.part.metal>
0.0000

> <Gold.PLP.part.buried>
-6.3880

> <Gold.PLP.part.nonpolar>
-35.6049

> <Gold.PLP.part.repulsive>
0.2114

> <Gold.PLP.ligand.clash>
0.0000

> <Gold.PLP.ligand.torsion>
1.1687

> <Gold.PLP.Chemscore.Hbond>
0.0000

> <Gold.PLP.Chemscore.CHOScore>
0.0000

> <Gold.PLP.Chemscore.Metal>
0.0000

> <Gold.PLP.Chemscore.Internal.Correction>
2.1267

