#       Name:                EN300-315786_i001
#       Creating user name   fsindt
#       Creation time:       Tue Feb 28 19:15:09 2023


#       File generated by GOLD software.
#

@<TRIPOS>MOLECULE
EN300-315786_i001|acide_2|mol2|6664|dock19
    29    30     1
SMALL
USER_CHARGES


@<TRIPOS>ATOM
      1 O1          -1.0124 -19.1497  13.1372 O.co2          1 <1>               -1.0000
      2 C2          -0.0498 -18.3968  13.1731 C.2            1 <1>                0.0000
      3 O3           0.9575 -18.7212  13.7854 O.co2          1 <1>                0.0000
      4 C4          -0.1015 -17.0974  12.4710 C.ar           1 <1>                0.0000
      5 C5           0.1455 -15.9146  13.1713 C.ar           1 <1>                0.0000
      6 C6           0.0972 -14.7032  12.5159 C.ar           1 <1>                0.0000
      7 C7          -0.1986 -14.6582  11.1530 C.ar           1 <1>                0.0000
      8 C8          -0.4456 -15.8396  10.4527 C.ar           1 <1>                0.0000
      9 C9          -0.3919 -17.0522  11.1056 C.ar           1 <1>                0.0000
     10 C10         -0.2510 -13.3560  10.4496 C.2            1 <1>                0.0000
     11 O11         -1.0511 -12.5098  10.7965 O.2            1 <1>                0.0000
     12 N12          0.5888 -13.1095   9.4247 N.am           1 <1>                0.0000
     13 C13          1.5089 -14.1473   8.9328 C.3            1 <1>                0.0000
     14 C14          1.3531 -14.2496   7.4112 C.3            1 <1>                0.0000
     15 O15          1.4962 -12.9493   6.8348 O.3            1 <1>                0.0000
     16 C16          0.5004 -12.0118   7.2509 C.3            1 <1>                0.0000
     17 C17          0.6085 -11.7965   8.7606 C.3            1 <1>                0.0000
     18 H18          0.3741 -15.9492  14.2263 H              1 <1>                0.0000
     19 H19          0.2878 -13.7883  13.0575 H              1 <1>                0.0000
     20 H20         -0.6748 -15.8040   9.3979 H              1 <1>                0.0000
     21 H21         -0.5827 -17.9665  10.5634 H              1 <1>                0.0000
     22 H22          2.5351 -13.8748   9.1792 H              1 <1>                0.0000
     23 H23          1.2622 -15.1043   9.3924 H              1 <1>                0.0000
     24 H24          2.1203 -14.9121   7.0104 H              1 <1>                0.0000
     25 H25          0.3667 -14.6473   7.1722 H              1 <1>                0.0000
     26 H26          0.6542 -11.0641   6.7348 H              1 <1>                0.0000
     27 H27         -0.4890 -12.4013   7.0113 H              1 <1>                0.0000
     28 H28         -0.2324 -11.1956   9.1069 H              1 <1>                0.0000
     29 H29          1.5442 -11.2878   8.9927 H              1 <1>                0.0000
@<TRIPOS>BOND
    1    1    2 ar    
    2    2    3 ar    
    3    2    4 1     
    4    4    5 ar    
    5    4    9 ar    
    6    5    6 ar    
    7    5   18 1     
    8    6    7 ar    
    9    6   19 1     
   10    7    8 ar    
   11    7   10 1     
   12    8    9 ar    
   13    8   20 1     
   14    9   21 1     
   15   10   11 2     
   16   10   12 am    
   17   12   13 1     
   18   12   17 1     
   19   13   14 1     
   20   13   22 1     
   21   13   23 1     
   22   14   15 1     
   23   14   24 1     
   24   14   25 1     
   25   15   16 1     
   26   16   17 1     
   27   16   26 1     
   28   16   27 1     
   29   17   28 1     
   30   17   29 1     
@<TRIPOS>SUBSTRUCTURE
      1 ****           1
@<TRIPOS>COMMENT
> <Gold.Version>
2022.2.0

> <Gold.Id.Protein>
3pbl|protein|mol2

> <Gold.Protein.RotatedTorsions>
[ 1303 1298 1297 1294 ] final  123.29 input  179.99 | X-H torsion
[ 2461 2456 2455 2452 ] final -124.90 input   30.03 | X-H torsion
[ 2515 2510 2509 2506 ] final  -20.52 input  -89.99 | X-H torsion
[ 3721 3712 3711 3710 ] final   45.64 input -179.91 | X-H torsion
[ 3841 3832 3831 3830 ] final -116.42 input -179.91 | X-H torsion
[ 3767 3762 3761 3758 ] final  176.45 input  -89.99 | X-H torsion
[ 2472 2467 2466 2463 ] final -133.02 input  -89.97 | X-H torsion

> <Gold.Protein.ActiveResidues>
 VAL82   VAL86   LEU89   PHE106  VAL107  ASP110  VAL111  MET112  CYS114  THR115 
 CYS181  SER182  ILE183  PHE188  VAL189  ILE190  SER192  SER193  SER196  TRP342 
 PHE345  PHE346  HIS349  VAL350  TYR365  THR369  GLY372  TYR373 

> <Gold.Protein.RotatedAtoms>
    4.7695   -9.7242    4.9511 H   0  0  0  0  0  0  0  0  0  0  0  0  # atno 1303 bound_to 1298
    0.6313   -9.2045    8.1027 H   0  0  0  0  0  0  0  0  0  0  0  0  # atno 2461 bound_to 2456
   -4.7139   -5.4614    9.4180 H   0  0  0  0  0  0  0  0  0  0  0  0  # atno 2472 bound_to 2467
    2.6703   -7.8838    4.4315 H   0  0  0  0  0  0  0  0  0  0  0  0  # atno 2515 bound_to 2510
   -2.5263  -17.9918   13.5726 H   0  0  0  0  0  0  0  0  0  0  0  0  # atno 3721 bound_to 3712
   -4.0638  -22.5765   11.5429 H   0  0  0  0  0  0  0  0  0  0  0  0  # atno 3767 bound_to 3762
    2.1755  -19.5862    8.4805 H   0  0  0  0  0  0  0  0  0  0  0  0  # atno 3841 bound_to 3832
    3.4043   -9.9148    4.0757 LP  0  0  0  0  0  0  0  0  0  0  0  0  # atno 4297 bound_to 1298
    4.1881   -8.4822    4.0645 LP  0  0  0  0  0  0  0  0  0  0  0  0  # atno 4298 bound_to 1298
    2.1407   -8.5871    8.0128 LP  0  0  0  0  0  0  0  0  0  0  0  0  # atno 4299 bound_to 2456
    0.9656   -8.0167    7.0328 LP  0  0  0  0  0  0  0  0  0  0  0  0  # atno 4300 bound_to 2456
    2.5955   -9.2577    5.3105 LP  0  0  0  0  0  0  0  0  0  0  0  0  # atno 4301 bound_to 2510
    2.0308   -7.8578    5.9336 LP  0  0  0  0  0  0  0  0  0  0  0  0  # atno 4302 bound_to 2510
   -3.1036  -17.2123   14.8520 LP  0  0  0  0  0  0  0  0  0  0  0  0  # atno 4306 bound_to 3712
   -3.5074  -16.7421   13.3412 LP  0  0  0  0  0  0  0  0  0  0  0  0  # atno 4307 bound_to 3712
    3.0816  -20.8799    8.7660 LP  0  0  0  0  0  0  0  0  0  0  0  0  # atno 4314 bound_to 3832
    1.6346  -20.7004    9.5013 LP  0  0  0  0  0  0  0  0  0  0  0  0  # atno 4315 bound_to 3832
   -4.6186  -23.2632   10.1691 LP  0  0  0  0  0  0  0  0  0  0  0  0  # atno 4318 bound_to 3762
   -5.4447  -22.0353   10.8594 LP  0  0  0  0  0  0  0  0  0  0  0  0  # atno 4319 bound_to 3762
   -5.3043   -5.0024    7.9664 LP  0  0  0  0  0  0  0  0  0  0  0  0  # atno 4320 bound_to 2467
   -3.6987   -4.9297    8.2549 LP  0  0  0  0  0  0  0  0  0  0  0  0  # atno 4321 bound_to 2467

> <Gold.Score>
     Score     S(PLP)   S(hbond)     S(cho)   S(metal)  DE(clash)   DE(tors)     intcor
     40.38     -39.62       1.00       0.00       0.00       0.03       2.17       2.13

> <Gold.PLP.Fitness>
40.3756

> <Gold.PLP.PLP>
-39.6210

> <Gold.PLP.part.hbond>
-1.0000

> <Gold.PLP.part.metal>
0.0000

> <Gold.PLP.part.buried>
-6.6959

> <Gold.PLP.part.nonpolar>
-32.7810

> <Gold.PLP.part.repulsive>
0.1699

> <Gold.PLP.ligand.clash>
0.0331

> <Gold.PLP.ligand.torsion>
2.1695

> <Gold.PLP.Chemscore.Hbond>
1.0000

> <Gold.PLP.Chemscore.CHOScore>
0.0000

> <Gold.PLP.Chemscore.Metal>
0.0000

> <Gold.Chemscore.Hbonds>
donor molecule, donor type, donor heavy atom, donor atom, acceptor molecule, acceptor atom, score
      P1  H  3712  3721       L1     1  1.00

> <Gold.PLP.Chemscore.Internal.Correction>
2.1267

