#       Name:                EN300-315786_i001
#       Creating user name   fsindt
#       Creation time:       Tue Feb 28 19:14:56 2023


#       File generated by GOLD software.
#

@<TRIPOS>MOLECULE
EN300-315786_i001|acide_2|mol2|6664|dock2
    29    30     1
SMALL
USER_CHARGES


@<TRIPOS>ATOM
      1 O1          -0.2099 -10.9334   8.9963 O.co2          1 <1>               -1.0000
      2 C2           0.1335 -12.0865   8.7793 C.2            1 <1>                0.0000
      3 O3           0.4740 -12.4215   7.6538 O.co2          1 <1>                0.0000
      4 C4           0.1428 -13.0740   9.8787 C.ar           1 <1>                0.0000
      5 C5           1.0242 -14.1566   9.8380 C.ar           1 <1>                0.0000
      6 C6           1.0324 -15.0772  10.8637 C.ar           1 <1>                0.0000
      7 C7           0.1603 -14.9278  11.9426 C.ar           1 <1>                0.0000
      8 C8          -0.7206 -13.8465  11.9840 C.ar           1 <1>                0.0000
      9 C9          -0.7259 -12.9220  10.9618 C.ar           1 <1>                0.0000
     10 C10          0.1693 -15.9177  13.0441 C.2            1 <1>                0.0000
     11 O11          0.5896 -15.6034  14.1401 O.2            1 <1>                0.0000
     12 N12         -0.2888 -17.1672  12.8310 N.am           1 <1>                0.0000
     13 C13         -0.7252 -17.5961  11.4927 C.3            1 <1>                0.0000
     14 C14         -0.0260 -18.9182  11.1568 C.3            1 <1>                0.0000
     15 O15         -0.2391 -19.8474  12.2221 O.3            1 <1>                0.0000
     16 C16          0.3150 -19.4386  13.4750 C.3            1 <1>                0.0000
     17 C17         -0.3615 -18.1448  13.9285 C.3            1 <1>                0.0000
     18 H18          1.6990 -14.2726   9.0028 H              1 <1>                0.0000
     19 H19          1.7138 -15.9146  10.8321 H              1 <1>                0.0000
     20 H20         -1.3956 -13.7317  12.8192 H              1 <1>                0.0000
     21 H21         -1.4075 -12.0849  10.9940 H              1 <1>                0.0000
     22 H22         -1.8056 -17.7405  11.4876 H              1 <1>                0.0000
     23 H23         -0.4521 -16.8392  10.7574 H              1 <1>                0.0000
     24 H24         -0.4378 -19.3234  10.2325 H              1 <1>                0.0000
     25 H25          1.0430 -18.7439  11.0342 H              1 <1>                0.0000
     26 H26          0.1483 -20.2179  14.2185 H              1 <1>                0.0000
     27 H27          1.3851 -19.2661  13.3608 H              1 <1>                0.0000
     28 H28          0.1500 -17.7513  14.8070 H              1 <1>                0.0000
     29 H29         -1.4064 -18.3415  14.1688 H              1 <1>                0.0000
@<TRIPOS>BOND
    1    1    2 ar    
    2    2    3 ar    
    3    2    4 1     
    4    4    5 ar    
    5    4    9 ar    
    6    5    6 ar    
    7    5   18 1     
    8    6    7 ar    
    9    6   19 1     
   10    7    8 ar    
   11    7   10 1     
   12    8    9 ar    
   13    8   20 1     
   14    9   21 1     
   15   10   11 2     
   16   10   12 am    
   17   12   13 1     
   18   12   17 1     
   19   13   14 1     
   20   13   22 1     
   21   13   23 1     
   22   14   15 1     
   23   14   24 1     
   24   14   25 1     
   25   15   16 1     
   26   16   17 1     
   27   16   26 1     
   28   16   27 1     
   29   17   28 1     
   30   17   29 1     
@<TRIPOS>SUBSTRUCTURE
      1 ****           1
@<TRIPOS>COMMENT
> <Gold.Version>
2022.2.0

> <Gold.Id.Protein>
3pbl|protein|mol2

> <Gold.Protein.RotatedTorsions>
[ 1303 1298 1297 1294 ] final  118.77 input  179.99 | X-H torsion
[ 2461 2456 2455 2452 ] final -134.40 input   30.03 | X-H torsion
[ 2515 2510 2509 2506 ] final  162.50 input  -89.99 | X-H torsion
[ 3721 3712 3711 3710 ] final  158.08 input -179.91 | X-H torsion
[ 3841 3832 3831 3830 ] final -116.03 input -179.91 | X-H torsion
[ 3767 3762 3761 3758 ] final   -5.54 input  -89.99 | X-H torsion
[ 2472 2467 2466 2463 ] final  148.16 input  -89.97 | X-H torsion

> <Gold.Protein.ActiveResidues>
 VAL82   VAL86   LEU89   PHE106  VAL107  ASP110  VAL111  MET112  CYS114  THR115 
 CYS181  SER182  ILE183  PHE188  VAL189  ILE190  SER192  SER193  SER196  TRP342 
 PHE345  PHE346  HIS349  VAL350  TYR365  THR369  GLY372  TYR373 

> <Gold.Protein.RotatedAtoms>
    4.7318   -9.7883    4.9498 H   0  0  0  0  0  0  0  0  0  0  0  0  # atno 1303 bound_to 1298
    0.7517   -9.2506    8.1908 H   0  0  0  0  0  0  0  0  0  0  0  0  # atno 2461 bound_to 2456
   -5.5092   -5.2367    8.5518 H   0  0  0  0  0  0  0  0  0  0  0  0  # atno 2472 bound_to 2467
    2.2119   -8.8242    5.9987 H   0  0  0  0  0  0  0  0  0  0  0  0  # atno 2515 bound_to 2510
   -3.2466  -16.7806   13.2767 H   0  0  0  0  0  0  0  0  0  0  0  0  # atno 3721 bound_to 3712
   -5.3701  -22.6482   10.1849 H   0  0  0  0  0  0  0  0  0  0  0  0  # atno 3767 bound_to 3762
    2.1703  -19.5856    8.4832 H   0  0  0  0  0  0  0  0  0  0  0  0  # atno 3841 bound_to 3832
    3.3801   -9.8565    4.0363 LP  0  0  0  0  0  0  0  0  0  0  0  0  # atno 4297 bound_to 1298
    4.2501   -8.4764    4.1053 LP  0  0  0  0  0  0  0  0  0  0  0  0  # atno 4298 bound_to 1298
    2.1602   -8.4742    7.9068 LP  0  0  0  0  0  0  0  0  0  0  0  0  # atno 4299 bound_to 2456
    0.8256   -8.0836    7.0507 LP  0  0  0  0  0  0  0  0  0  0  0  0  # atno 4300 bound_to 2456
    2.2496   -7.4089    5.1854 LP  0  0  0  0  0  0  0  0  0  0  0  0  # atno 4301 bound_to 2510
    2.8353   -8.7658    4.4908 LP  0  0  0  0  0  0  0  0  0  0  0  0  # atno 4302 bound_to 2510
   -2.6374  -18.2050   13.6986 LP  0  0  0  0  0  0  0  0  0  0  0  0  # atno 4306 bound_to 3712
   -3.1420  -17.1478   14.8363 LP  0  0  0  0  0  0  0  0  0  0  0  0  # atno 4307 bound_to 3712
    3.0835  -20.8759    8.7613 LP  0  0  0  0  0  0  0  0  0  0  0  0  # atno 4314 bound_to 3832
    1.6388  -20.7051    9.5030 LP  0  0  0  0  0  0  0  0  0  0  0  0  # atno 4315 bound_to 3832
   -4.7721  -21.9984   11.5586 LP  0  0  0  0  0  0  0  0  0  0  0  0  # atno 4318 bound_to 3762
   -3.9854  -23.2284   10.8274 LP  0  0  0  0  0  0  0  0  0  0  0  0  # atno 4319 bound_to 3762
   -4.1392   -4.8053    7.7750 LP  0  0  0  0  0  0  0  0  0  0  0  0  # atno 4320 bound_to 2467
   -4.0687   -5.3515    9.3123 LP  0  0  0  0  0  0  0  0  0  0  0  0  # atno 4321 bound_to 2467

> <Gold.Score>
     Score     S(PLP)   S(hbond)     S(cho)   S(metal)  DE(clash)   DE(tors)     intcor
     44.58     -39.74       2.00       0.00       0.00       0.00       1.65       2.13

> <Gold.PLP.Fitness>
44.5778

> <Gold.PLP.PLP>
-39.7395

> <Gold.PLP.part.hbond>
-2.0000

> <Gold.PLP.part.metal>
0.0000

> <Gold.PLP.part.buried>
-2.5793

> <Gold.PLP.part.nonpolar>
-36.2551

> <Gold.PLP.part.repulsive>
0.0608

> <Gold.PLP.ligand.clash>
0.0000

> <Gold.PLP.ligand.torsion>
1.6473

> <Gold.PLP.Chemscore.Hbond>
2.0000

> <Gold.PLP.Chemscore.CHOScore>
0.0000

> <Gold.PLP.Chemscore.Metal>
0.0000

> <Gold.Chemscore.Hbonds>
donor molecule, donor type, donor heavy atom, donor atom, acceptor molecule, acceptor atom, score
      P1  H  2456  2461       L1     1  1.00
      P1  H  2305  2313       L1    11  1.00

> <Gold.PLP.Chemscore.Internal.Correction>
2.1329

