#       Name:                EN300-315786_i001
#       Creating user name   fsindt
#       Creation time:       Tue Feb 28 19:14:59 2023


#       File generated by GOLD software.
#

@<TRIPOS>MOLECULE
EN300-315786_i001|acide_2|mol2|6664|dock8
    29    30     1
SMALL
USER_CHARGES


@<TRIPOS>ATOM
      1 O1           0.0938 -24.8971  14.9621 O.co2          1 <1>               -1.0000
      2 C2          -0.8527 -24.2052  14.6153 C.2            1 <1>                0.0000
      3 O3          -1.9959 -24.5784  14.8357 O.co2          1 <1>                0.0000
      4 C4          -0.6147 -22.9150  13.9351 C.ar           1 <1>                0.0000
      5 C5           0.6601 -22.6010  13.4588 C.ar           1 <1>                0.0000
      6 C6           0.8813 -21.3975  12.8246 C.ar           1 <1>                0.0000
      7 C7          -0.1680 -20.4928  12.6583 C.ar           1 <1>                0.0000
      8 C8          -1.4419 -20.8059  13.1340 C.ar           1 <1>                0.0000
      9 C9          -1.6658 -22.0115  13.7633 C.ar           1 <1>                0.0000
     10 C10          0.0706 -19.1996  11.9772 C.2            1 <1>                0.0000
     11 O11          0.2743 -19.1722  10.7795 O.2            1 <1>                0.0000
     12 N12          0.0618 -18.0532  12.6857 N.am           1 <1>                0.0000
     13 C13         -0.0998 -18.0677  14.1483 C.3            1 <1>                0.0000
     14 C14          1.0157 -17.2171  14.7664 C.3            1 <1>                0.0000
     15 O15          1.0283 -15.9313  14.1418 O.3            1 <1>                0.0000
     16 C16          1.3143 -15.9635  12.7415 C.3            1 <1>                0.0000
     17 C17          0.2197 -16.7502  12.0202 C.3            1 <1>                0.0000
     18 H18          1.4724 -23.3009  13.5877 H              1 <1>                0.0000
     19 H19          1.8672 -21.1544  12.4565 H              1 <1>                0.0000
     20 H20         -2.2535 -20.1051  13.0053 H              1 <1>                0.0000
     21 H21         -2.6519 -22.2538  14.1311 H              1 <1>                0.0000
     22 H22         -1.0706 -17.6496  14.4145 H              1 <1>                0.0000
     23 H23         -0.0273 -19.0914  14.5155 H              1 <1>                0.0000
     24 H24          0.8353 -17.1010  15.8351 H              1 <1>                0.0000
     25 H25          1.9766 -17.7073  14.6098 H              1 <1>                0.0000
     26 H26          1.3486 -14.9456  12.3533 H              1 <1>                0.0000
     27 H27          2.2762 -16.4492  12.5775 H              1 <1>                0.0000
     28 H28          0.5016 -16.9005  10.9780 H              1 <1>                0.0000
     29 H29         -0.7209 -16.2018  12.0713 H              1 <1>                0.0000
@<TRIPOS>BOND
    1    1    2 ar    
    2    2    3 ar    
    3    2    4 1     
    4    4    5 ar    
    5    4    9 ar    
    6    5    6 ar    
    7    5   18 1     
    8    6    7 ar    
    9    6   19 1     
   10    7    8 ar    
   11    7   10 1     
   12    8    9 ar    
   13    8   20 1     
   14    9   21 1     
   15   10   11 2     
   16   10   12 am    
   17   12   13 1     
   18   12   17 1     
   19   13   14 1     
   20   13   22 1     
   21   13   23 1     
   22   14   15 1     
   23   14   24 1     
   24   14   25 1     
   25   15   16 1     
   26   16   17 1     
   27   16   26 1     
   28   16   27 1     
   29   17   28 1     
   30   17   29 1     
@<TRIPOS>SUBSTRUCTURE
      1 ****           1
@<TRIPOS>COMMENT
> <Gold.Version>
2022.2.0

> <Gold.Id.Protein>
3pbl|protein|mol2

> <Gold.Protein.RotatedTorsions>
[ 1303 1298 1297 1294 ] final   -7.95 input  179.99 | X-H torsion
[ 2461 2456 2455 2452 ] final    0.11 input   30.03 | X-H torsion
[ 2515 2510 2509 2506 ] final -111.74 input  -89.99 | X-H torsion
[ 3721 3712 3711 3710 ] final    9.83 input -179.91 | X-H torsion
[ 3841 3832 3831 3830 ] final  -36.70 input -179.91 | X-H torsion
[ 3767 3762 3761 3758 ] final  130.95 input  -89.99 | X-H torsion
[ 2472 2467 2466 2463 ] final  132.43 input  -89.97 | X-H torsion

> <Gold.Protein.ActiveResidues>
 VAL82   VAL86   LEU89   PHE106  VAL107  ASP110  VAL111  MET112  CYS114  THR115 
 CYS181  SER182  ILE183  PHE188  VAL189  ILE190  SER192  SER193  SER196  TRP342 
 PHE345  PHE346  HIS349  VAL350  TYR365  THR369  GLY372  TYR373 

> <Gold.Protein.RotatedAtoms>
    3.3525   -9.7645    3.9821 H   0  0  0  0  0  0  0  0  0  0  0  0  # atno 1303 bound_to 1298
    1.0426   -7.9876    7.0307 H   0  0  0  0  0  0  0  0  0  0  0  0  # atno 2461 bound_to 2456
   -5.4851   -5.1473    8.3111 H   0  0  0  0  0  0  0  0  0  0  0  0  # atno 2472 bound_to 2467
    2.7531   -9.1502    4.8824 H   0  0  0  0  0  0  0  0  0  0  0  0  # atno 2515 bound_to 2510
   -2.4725  -18.0036   14.1023 H   0  0  0  0  0  0  0  0  0  0  0  0  # atno 3721 bound_to 3712
   -3.9165  -23.0966   11.0533 H   0  0  0  0  0  0  0  0  0  0  0  0  # atno 3767 bound_to 3762
    1.5619  -20.0530    9.2785 H   0  0  0  0  0  0  0  0  0  0  0  0  # atno 3841 bound_to 3832
    4.3406   -8.4779    4.1688 LP  0  0  0  0  0  0  0  0  0  0  0  0  # atno 4297 bound_to 1298
    4.6694   -9.8788    4.9409 LP  0  0  0  0  0  0  0  0  0  0  0  0  # atno 4298 bound_to 1298
    0.5747   -9.1733    8.0517 LP  0  0  0  0  0  0  0  0  0  0  0  0  # atno 4299 bound_to 2456
    2.1204   -8.6470    8.0655 LP  0  0  0  0  0  0  0  0  0  0  0  0  # atno 4300 bound_to 2456
    2.0596   -8.2985    6.0905 LP  0  0  0  0  0  0  0  0  0  0  0  0  # atno 4301 bound_to 2510
    2.4838   -7.5500    4.7025 LP  0  0  0  0  0  0  0  0  0  0  0  0  # atno 4302 bound_to 2510
   -3.3813  -16.7697   14.5810 LP  0  0  0  0  0  0  0  0  0  0  0  0  # atno 4306 bound_to 3712
   -3.2918  -17.1711   13.0007 LP  0  0  0  0  0  0  0  0  0  0  0  0  # atno 4307 bound_to 3712
    2.6823  -19.9034    8.1390 LP  0  0  0  0  0  0  0  0  0  0  0  0  # atno 4314 bound_to 3832
    2.7428  -21.1376    9.2066 LP  0  0  0  0  0  0  0  0  0  0  0  0  # atno 4315 bound_to 3832
   -5.2142  -22.8494   10.0932 LP  0  0  0  0  0  0  0  0  0  0  0  0  # atno 4318 bound_to 3762
   -4.9964  -21.9292   11.4246 LP  0  0  0  0  0  0  0  0  0  0  0  0  # atno 4319 bound_to 3762
   -3.9300   -4.8355    7.9228 LP  0  0  0  0  0  0  0  0  0  0  0  0  # atno 4320 bound_to 2467
   -4.3019   -5.4107    9.4052 LP  0  0  0  0  0  0  0  0  0  0  0  0  # atno 4321 bound_to 2467

> <Gold.Score>
     Score     S(PLP)   S(hbond)     S(cho)   S(metal)  DE(clash)   DE(tors)     intcor
     38.91     -34.62       1.66       0.00       0.00       0.00       1.41       2.13

> <Gold.PLP.Fitness>
38.9133

> <Gold.PLP.PLP>
-34.6222

> <Gold.PLP.part.hbond>
-1.7269

> <Gold.PLP.part.metal>
0.0000

> <Gold.PLP.part.buried>
-5.6732

> <Gold.PLP.part.nonpolar>
-28.7099

> <Gold.PLP.part.repulsive>
0.6897

> <Gold.PLP.ligand.clash>
0.0000

> <Gold.PLP.ligand.torsion>
1.4126

> <Gold.PLP.Chemscore.Hbond>
1.6632

> <Gold.PLP.Chemscore.CHOScore>
0.0000

> <Gold.PLP.Chemscore.Metal>
0.0000

> <Gold.Chemscore.Hbonds>
donor molecule, donor type, donor heavy atom, donor atom, acceptor molecule, acceptor atom, score
      P1  H  2305  2313       L1    15  0.82
      P1  H  3832  3841       L1    11  0.84

> <Gold.PLP.Chemscore.Internal.Correction>
2.1267

