#       Name:                EN300-315786_i001
#       Creating user name   fsindt
#       Creation time:       Tue Feb 28 19:14:57 2023


#       File generated by GOLD software.
#

@<TRIPOS>MOLECULE
EN300-315786_i001|acide_2|mol2|6664|dock3
    29    30     1
SMALL
USER_CHARGES


@<TRIPOS>ATOM
      1 O1          -0.5844 -10.5952   8.7427 O.co2          1 <1>               -1.0000
      2 C2           0.1786 -11.5502   8.7191 C.2            1 <1>                0.0000
      3 O3           1.0697 -11.6003   7.8835 O.co2          1 <1>                0.0000
      4 C4           0.0277 -12.6410   9.7047 C.ar           1 <1>                0.0000
      5 C5          -0.8605 -12.4993  10.7731 C.ar           1 <1>                0.0000
      6 C6          -1.0008 -13.5170  11.6918 C.ar           1 <1>                0.0000
      7 C7          -0.2557 -14.6888  11.5548 C.ar           1 <1>                0.0000
      8 C8           0.6319 -14.8310  10.4875 C.ar           1 <1>                0.0000
      9 C9           0.7690 -13.8164   9.5648 C.ar           1 <1>                0.0000
     10 C10         -0.4066 -15.7817  12.5427 C.2            1 <1>                0.0000
     11 O11         -1.4997 -16.2735  12.7425 O.2            1 <1>                0.0000
     12 N12          0.6684 -16.2309  13.2202 N.am           1 <1>                0.0000
     13 C13          0.5592 -17.3703  14.1451 C.3            1 <1>                0.0000
     14 C14          1.6598 -18.3800  13.8004 C.3            1 <1>                0.0000
     15 O15          2.9213 -17.7082  13.7669 O.3            1 <1>                0.0000
     16 C16          3.0173 -16.6931  12.7648 C.3            1 <1>                0.0000
     17 C17          1.9874 -15.6004  13.0522 C.3            1 <1>                0.0000
     18 H18         -1.4370 -11.5923  10.8796 H              1 <1>                0.0000
     19 H19         -1.6874 -13.4074  12.5184 H              1 <1>                0.0000
     20 H20          1.2086 -15.7381  10.3822 H              1 <1>                0.0000
     21 H21          1.4557 -13.9268   8.7387 H              1 <1>                0.0000
     22 H22          0.6867 -17.0240  15.1707 H              1 <1>                0.0000
     23 H23         -0.4180 -17.8403  14.0346 H              1 <1>                0.0000
     24 H24          1.6848 -19.1639  14.5574 H              1 <1>                0.0000
     25 H25          1.4564 -18.8214  12.8247 H              1 <1>                0.0000
     26 H26          4.0189 -16.2632  12.7769 H              1 <1>                0.0000
     27 H27          2.8188 -17.1283  11.7855 H              1 <1>                0.0000
     28 H28          1.9564 -14.8970  12.2201 H              1 <1>                0.0000
     29 H29          2.2560 -15.0745  13.9684 H              1 <1>                0.0000
@<TRIPOS>BOND
    1    1    2 ar    
    2    2    3 ar    
    3    2    4 1     
    4    4    5 ar    
    5    4    9 ar    
    6    5    6 ar    
    7    5   18 1     
    8    6    7 ar    
    9    6   19 1     
   10    7    8 ar    
   11    7   10 1     
   12    8    9 ar    
   13    8   20 1     
   14    9   21 1     
   15   10   11 2     
   16   10   12 am    
   17   12   13 1     
   18   12   17 1     
   19   13   14 1     
   20   13   22 1     
   21   13   23 1     
   22   14   15 1     
   23   14   24 1     
   24   14   25 1     
   25   15   16 1     
   26   16   17 1     
   27   16   26 1     
   28   16   27 1     
   29   17   28 1     
   30   17   29 1     
@<TRIPOS>SUBSTRUCTURE
      1 ****           1
@<TRIPOS>COMMENT
> <Gold.Version>
2022.2.0

> <Gold.Id.Protein>
3pbl|protein|mol2

> <Gold.Protein.RotatedTorsions>
[ 1303 1298 1297 1294 ] final -131.44 input  179.99 | X-H torsion
[ 2461 2456 2455 2452 ] final -110.60 input   30.03 | X-H torsion
[ 2515 2510 2509 2506 ] final -151.32 input  -89.99 | X-H torsion
[ 3721 3712 3711 3710 ] final  122.14 input -179.91 | X-H torsion
[ 3841 3832 3831 3830 ] final    7.93 input -179.91 | X-H torsion
[ 3767 3762 3761 3758 ] final  116.98 input  -89.99 | X-H torsion
[ 2472 2467 2466 2463 ] final   -1.18 input  -89.97 | X-H torsion

> <Gold.Protein.ActiveResidues>
 VAL82   VAL86   LEU89   PHE106  VAL107  ASP110  VAL111  MET112  CYS114  THR115 
 CYS181  SER182  ILE183  PHE188  VAL189  ILE190  SER192  SER193  SER196  TRP342 
 PHE345  PHE346  HIS349  VAL350  TYR365  THR369  GLY372  TYR373 

> <Gold.Protein.RotatedAtoms>
    4.3861   -8.4837    4.2033 H   0  0  0  0  0  0  0  0  0  0  0  0  # atno 1303 bound_to 1298
    0.4827   -9.1044    7.9509 H   0  0  0  0  0  0  0  0  0  0  0  0  # atno 2461 bound_to 2456
   -3.7871   -4.8804    8.0887 H   0  0  0  0  0  0  0  0  0  0  0  0  # atno 2472 bound_to 2467
    2.5236   -9.2381    5.4714 H   0  0  0  0  0  0  0  0  0  0  0  0  # atno 2515 bound_to 2510
   -3.0244  -17.2052   13.0402 H   0  0  0  0  0  0  0  0  0  0  0  0  # atno 3721 bound_to 3712
   -3.9703  -23.2110   10.8619 H   0  0  0  0  0  0  0  0  0  0  0  0  # atno 3767 bound_to 3762
    1.8109  -20.5748    9.5914 H   0  0  0  0  0  0  0  0  0  0  0  0  # atno 3841 bound_to 3832
    4.6335   -9.9232    4.9332 LP  0  0  0  0  0  0  0  0  0  0  0  0  # atno 4297 bound_to 1298
    3.3425   -9.7148    3.9552 LP  0  0  0  0  0  0  0  0  0  0  0  0  # atno 4298 bound_to 1298
    2.0653   -8.7570    8.1562 LP  0  0  0  0  0  0  0  0  0  0  0  0  # atno 4299 bound_to 2456
    1.1896   -7.9468    7.0411 LP  0  0  0  0  0  0  0  0  0  0  0  0  # atno 4300 bound_to 2456
    2.0460   -7.7176    5.8259 LP  0  0  0  0  0  0  0  0  0  0  0  0  # atno 4301 bound_to 2510
    2.7271   -8.0429    4.3778 LP  0  0  0  0  0  0  0  0  0  0  0  0  # atno 4302 bound_to 2510
   -2.6243  -18.1367   14.2851 LP  0  0  0  0  0  0  0  0  0  0  0  0  # atno 4306 bound_to 3712
   -3.4116  -16.7259   14.5228 LP  0  0  0  0  0  0  0  0  0  0  0  0  # atno 4307 bound_to 3712
    2.0267  -19.6373    8.3067 LP  0  0  0  0  0  0  0  0  0  0  0  0  # atno 4314 bound_to 3832
    3.1107  -20.8010    8.6774 LP  0  0  0  0  0  0  0  0  0  0  0  0  # atno 4315 bound_to 3832
   -5.3497  -22.6799   10.1675 LP  0  0  0  0  0  0  0  0  0  0  0  0  # atno 4318 bound_to 3762
   -4.8070  -21.9843   11.5417 LP  0  0  0  0  0  0  0  0  0  0  0  0  # atno 4319 bound_to 3762
   -4.5207   -5.4451    9.4338 LP  0  0  0  0  0  0  0  0  0  0  0  0  # atno 4320 bound_to 2467
   -5.4090   -5.0680    8.1165 LP  0  0  0  0  0  0  0  0  0  0  0  0  # atno 4321 bound_to 2467

> <Gold.Score>
     Score     S(PLP)   S(hbond)     S(cho)   S(metal)  DE(clash)   DE(tors)     intcor
     44.84     -40.38       1.51       0.00       0.00       0.00       1.10       2.13

> <Gold.PLP.Fitness>
44.8362

> <Gold.PLP.PLP>
-40.3811

> <Gold.PLP.part.hbond>
-2.3199

> <Gold.PLP.part.metal>
0.0000

> <Gold.PLP.part.buried>
-0.6708

> <Gold.PLP.part.nonpolar>
-39.0198

> <Gold.PLP.part.repulsive>
0.5164

> <Gold.PLP.ligand.clash>
0.0000

> <Gold.PLP.ligand.torsion>
1.1038

> <Gold.PLP.Chemscore.Hbond>
1.5120

> <Gold.PLP.Chemscore.CHOScore>
0.0000

> <Gold.PLP.Chemscore.Metal>
0.0000

> <Gold.Chemscore.Hbonds>
donor molecule, donor type, donor heavy atom, donor atom, acceptor molecule, acceptor atom, score
      P1  H  2456  2461       L1     1  1.00
      P1  H  3712  3721       L1    11  0.51

> <Gold.PLP.Chemscore.Internal.Correction>
2.1267

