#       Name:                EN300-315786_i001
#       Creating user name   fsindt
#       Creation time:       Tue Feb 28 19:14:58 2023


#       File generated by GOLD software.
#

@<TRIPOS>MOLECULE
EN300-315786_i001|acide_2|mol2|6664|dock5
    29    30     1
SMALL
USER_CHARGES


@<TRIPOS>ATOM
      1 O1          -2.2649 -24.3603  14.7727 O.co2          1 <1>               -1.0000
      2 C2          -1.0443 -24.2996  14.8061 C.2            1 <1>                0.0000
      3 O3          -0.4001 -25.2134  15.3008 O.co2          1 <1>                0.0000
      4 C4          -0.3473 -23.1244  14.2428 C.ar           1 <1>                0.0000
      5 C5          -1.0703 -22.1449  13.5586 C.ar           1 <1>                0.0000
      6 C6          -0.4197 -21.0492  13.0336 C.ar           1 <1>                0.0000
      7 C7           0.9612 -20.9184  13.1855 C.ar           1 <1>                0.0000
      8 C8           1.6843 -21.8967  13.8690 C.ar           1 <1>                0.0000
      9 C9           1.0341 -22.9901  14.3995 C.ar           1 <1>                0.0000
     10 C10          1.6597 -19.7411  12.6206 C.2            1 <1>                0.0000
     11 O11          2.1303 -19.7930  11.5014 O.2            1 <1>                0.0000
     12 N12          1.7735 -18.6120  13.3477 N.am           1 <1>                0.0000
     13 C13          2.3894 -17.4030  12.7781 C.3            1 <1>                0.0000
     14 C14          1.4448 -16.2200  13.0189 C.3            1 <1>                0.0000
     15 O15          1.1031 -16.1651  14.4060 O.3            1 <1>                0.0000
     16 C16          0.3944 -17.3126  14.8800 C.3            1 <1>                0.0000
     17 C17          1.2801 -18.5500  14.7327 C.3            1 <1>                0.0000
     18 H18         -2.1391 -22.2461  13.4406 H              1 <1>                0.0000
     19 H19         -0.9787 -20.2918  12.5041 H              1 <1>                0.0000
     20 H20          2.7531 -21.7951  13.9859 H              1 <1>                0.0000
     21 H21          1.5938 -23.7470  14.9288 H              1 <1>                0.0000
     22 H22          3.3460 -17.2140  13.2652 H              1 <1>                0.0000
     23 H23          2.5425 -17.5386  11.7075 H              1 <1>                0.0000
     24 H24          1.9405 -15.2934  12.7292 H              1 <1>                0.0000
     25 H25          0.5395 -16.3503  12.4259 H              1 <1>                0.0000
     26 H26          0.1344 -17.1723  15.9292 H              1 <1>                0.0000
     27 H27         -0.5146 -17.4469  14.2937 H              1 <1>                0.0000
     28 H28          0.7006 -19.4453  14.9579 H              1 <1>                0.0000
     29 H29          2.1269 -18.4787  15.4154 H              1 <1>                0.0000
@<TRIPOS>BOND
    1    1    2 ar    
    2    2    3 ar    
    3    2    4 1     
    4    4    5 ar    
    5    4    9 ar    
    6    5    6 ar    
    7    5   18 1     
    8    6    7 ar    
    9    6   19 1     
   10    7    8 ar    
   11    7   10 1     
   12    8    9 ar    
   13    8   20 1     
   14    9   21 1     
   15   10   11 2     
   16   10   12 am    
   17   12   13 1     
   18   12   17 1     
   19   13   14 1     
   20   13   22 1     
   21   13   23 1     
   22   14   15 1     
   23   14   24 1     
   24   14   25 1     
   25   15   16 1     
   26   16   17 1     
   27   16   26 1     
   28   16   27 1     
   29   17   28 1     
   30   17   29 1     
@<TRIPOS>SUBSTRUCTURE
      1 ****           1
@<TRIPOS>COMMENT
> <Gold.Version>
2022.2.0

> <Gold.Id.Protein>
3pbl|protein|mol2

> <Gold.Protein.RotatedTorsions>
[ 1303 1298 1297 1294 ] final  -37.58 input  179.99 | X-H torsion
[ 2461 2456 2455 2452 ] final -153.80 input   30.03 | X-H torsion
[ 2515 2510 2509 2506 ] final  -34.75 input  -89.99 | X-H torsion
[ 3721 3712 3711 3710 ] final   77.60 input -179.91 | X-H torsion
[ 3841 3832 3831 3830 ] final    0.09 input -179.91 | X-H torsion
[ 3767 3762 3761 3758 ] final   -6.71 input  -89.99 | X-H torsion
[ 2472 2467 2466 2463 ] final -113.90 input  -89.97 | X-H torsion

> <Gold.Protein.ActiveResidues>
 VAL82   VAL86   LEU89   PHE106  VAL107  ASP110  VAL111  MET112  CYS114  THR115 
 CYS181  SER182  ILE183  PHE188  VAL189  ILE190  SER192  SER193  SER196  TRP342 
 PHE345  PHE346  HIS349  VAL350  TYR365  THR369  GLY372  TYR373 

> <Gold.Protein.RotatedAtoms>
    3.3592   -9.3135    3.8117 H   0  0  0  0  0  0  0  0  0  0  0  0  # atno 1303 bound_to 1298
    1.0358   -9.2888    8.3281 H   0  0  0  0  0  0  0  0  0  0  0  0  # atno 2461 bound_to 2456
   -4.4025   -5.4295    9.4245 H   0  0  0  0  0  0  0  0  0  0  0  0  # atno 2472 bound_to 2467
    2.7431   -8.0961    4.3675 H   0  0  0  0  0  0  0  0  0  0  0  0  # atno 2515 bound_to 2510
   -2.6970  -17.7522   13.1972 H   0  0  0  0  0  0  0  0  0  0  0  0  # atno 3721 bound_to 3712
   -5.3793  -22.6337   10.1937 H   0  0  0  0  0  0  0  0  0  0  0  0  # atno 3767 bound_to 3762
    1.7375  -20.4877    9.5589 H   0  0  0  0  0  0  0  0  0  0  0  0  # atno 3841 bound_to 3832
    4.6877   -8.6277    4.4681 LP  0  0  0  0  0  0  0  0  0  0  0  0  # atno 4297 bound_to 1298
    4.3156  -10.1801    4.8120 LP  0  0  0  0  0  0  0  0  0  0  0  0  # atno 4298 bound_to 1298
    2.1225   -8.2577    7.6773 LP  0  0  0  0  0  0  0  0  0  0  0  0  # atno 4299 bound_to 2456
    0.5794   -8.2619    7.1429 LP  0  0  0  0  0  0  0  0  0  0  0  0  # atno 4300 bound_to 2456
    2.4998   -9.2257    5.5211 LP  0  0  0  0  0  0  0  0  0  0  0  0  # atno 4301 bound_to 2510
    2.0537   -7.6775    5.7871 LP  0  0  0  0  0  0  0  0  0  0  0  0  # atno 4302 bound_to 2510
   -2.8471  -17.6691   14.7936 LP  0  0  0  0  0  0  0  0  0  0  0  0  # atno 4306 bound_to 3712
   -3.5669  -16.5619   13.8330 LP  0  0  0  0  0  0  0  0  0  0  0  0  # atno 4307 bound_to 3712
    2.1433  -19.6536    8.2491 LP  0  0  0  0  0  0  0  0  0  0  0  0  # atno 4314 bound_to 3832
    3.0790  -20.8853    8.7725 LP  0  0  0  0  0  0  0  0  0  0  0  0  # atno 4315 bound_to 3832
   -4.7557  -22.0054   11.5660 LP  0  0  0  0  0  0  0  0  0  0  0  0  # atno 4318 bound_to 3762
   -3.9926  -23.2360   10.8111 LP  0  0  0  0  0  0  0  0  0  0  0  0  # atno 4319 bound_to 3762
   -5.4559   -5.1099    8.2184 LP  0  0  0  0  0  0  0  0  0  0  0  0  # atno 4320 bound_to 2467
   -3.8584   -4.8542    7.9964 LP  0  0  0  0  0  0  0  0  0  0  0  0  # atno 4321 bound_to 2467

> <Gold.Score>
     Score     S(PLP)   S(hbond)     S(cho)   S(metal)  DE(clash)   DE(tors)     intcor
     43.82     -39.17       1.86       0.00       0.00       0.00       1.52       2.13

> <Gold.PLP.Fitness>
43.8208

> <Gold.PLP.PLP>
-39.1733

> <Gold.PLP.part.hbond>
-2.0000

> <Gold.PLP.part.metal>
0.0000

> <Gold.PLP.part.buried>
-4.6548

> <Gold.PLP.part.nonpolar>
-34.0097

> <Gold.PLP.part.repulsive>
1.6258

> <Gold.PLP.ligand.clash>
0.0000

> <Gold.PLP.ligand.torsion>
1.5225

> <Gold.PLP.Chemscore.Hbond>
1.8553

> <Gold.PLP.Chemscore.CHOScore>
0.0000

> <Gold.PLP.Chemscore.Metal>
0.0000

> <Gold.Chemscore.Hbonds>
donor molecule, donor type, donor heavy atom, donor atom, acceptor molecule, acceptor atom, score
      P1  H  2305  2313       L1    15  0.99
      P1  H  3832  3841       L1    11  0.86

> <Gold.PLP.Chemscore.Internal.Correction>
2.1267

