#       Name:                EN300-315786_i001
#       Creating user name   fsindt
#       Creation time:       Tue Feb 28 19:14:59 2023


#       File generated by GOLD software.
#

@<TRIPOS>MOLECULE
EN300-315786_i001|acide_2|mol2|6664|dock7
    29    30     1
SMALL
USER_CHARGES


@<TRIPOS>ATOM
      1 O1           1.3500 -12.9541   6.7816 O.co2          1 <1>               -1.0000
      2 C2           0.8585 -12.5198   7.8134 C.2            1 <1>                0.0000
      3 O3           0.6390 -11.3227   7.9293 O.co2          1 <1>                0.0000
      4 C4           0.5242 -13.4428   8.9181 C.ar           1 <1>                0.0000
      5 C5           0.7711 -14.8109   8.7844 C.ar           1 <1>                0.0000
      6 C6           0.4590 -15.6710   9.8151 C.ar           1 <1>                0.0000
      7 C7          -0.1035 -15.1754  10.9919 C.ar           1 <1>                0.0000
      8 C8          -0.3504 -13.8086  11.1261 C.ar           1 <1>                0.0000
      9 C9          -0.0335 -12.9465  10.0985 C.ar           1 <1>                0.0000
     10 C10         -0.4390 -16.1003  12.0987 C.2            1 <1>                0.0000
     11 O11         -1.5350 -16.6234  12.1423 O.2            1 <1>                0.0000
     12 N12          0.4712 -16.3621  13.0576 N.am           1 <1>                0.0000
     13 C13          0.1915 -17.3404  14.1207 C.3            1 <1>                0.0000
     14 C14          1.3690 -18.3187  14.1994 C.3            1 <1>                0.0000
     15 O15          2.5872 -17.5805  14.3205 O.3            1 <1>                0.0000
     16 C16          2.8746 -16.7379  13.2018 C.3            1 <1>                0.0000
     17 C17          1.7764 -15.6826  13.0688 C.3            1 <1>                0.0000
     18 H18          1.2061 -15.1947   7.8735 H              1 <1>                0.0000
     19 H19          0.6496 -16.7291   9.7116 H              1 <1>                0.0000
     20 H20         -0.7861 -13.4257  12.0371 H              1 <1>                0.0000
     21 H21         -0.2244 -11.8886  10.2026 H              1 <1>                0.0000
     22 H22          0.0787 -16.8242  15.0741 H              1 <1>                0.0000
     23 H23         -0.7233 -17.8849  13.8871 H              1 <1>                0.0000
     24 H24          1.2475 -18.9656  15.0683 H              1 <1>                0.0000
     25 H25          1.3994 -18.9254  13.2943 H              1 <1>                0.0000
     26 H26          3.8361 -16.2474  13.3530 H              1 <1>                0.0000
     27 H27          2.9104 -17.3388  12.2932 H              1 <1>                0.0000
     28 H28          1.9110 -15.1277  12.1404 H              1 <1>                0.0000
     29 H29          1.8205 -14.9982  13.9160 H              1 <1>                0.0000
@<TRIPOS>BOND
    1    1    2 ar    
    2    2    3 ar    
    3    2    4 1     
    4    4    5 ar    
    5    4    9 ar    
    6    5    6 ar    
    7    5   18 1     
    8    6    7 ar    
    9    6   19 1     
   10    7    8 ar    
   11    7   10 1     
   12    8    9 ar    
   13    8   20 1     
   14    9   21 1     
   15   10   11 2     
   16   10   12 am    
   17   12   13 1     
   18   12   17 1     
   19   13   14 1     
   20   13   22 1     
   21   13   23 1     
   22   14   15 1     
   23   14   24 1     
   24   14   25 1     
   25   15   16 1     
   26   16   17 1     
   27   16   26 1     
   28   16   27 1     
   29   17   28 1     
   30   17   29 1     
@<TRIPOS>SUBSTRUCTURE
      1 ****           1
@<TRIPOS>COMMENT
> <Gold.Version>
2022.2.0

> <Gold.Id.Protein>
3pbl|protein|mol2

> <Gold.Protein.RotatedTorsions>
[ 1303 1298 1297 1294 ] final   68.88 input  179.99 | X-H torsion
[ 2461 2456 2455 2452 ] final -141.17 input   30.03 | X-H torsion
[ 2515 2510 2509 2506 ] final   44.83 input  -89.99 | X-H torsion
[ 3721 3712 3711 3710 ] final  111.16 input -179.91 | X-H torsion
[ 3841 3832 3831 3830 ] final  -68.90 input -179.91 | X-H torsion
[ 3767 3762 3761 3758 ] final -108.44 input  -89.99 | X-H torsion
[ 2472 2467 2466 2463 ] final  -40.82 input  -89.97 | X-H torsion

> <Gold.Protein.ActiveResidues>
 VAL82   VAL86   LEU89   PHE106  VAL107  ASP110  VAL111  MET112  CYS114  THR115 
 CYS181  SER182  ILE183  PHE188  VAL189  ILE190  SER192  SER193  SER196  TRP342 
 PHE345  PHE346  HIS349  VAL350  TYR365  THR369  GLY372  TYR373 

> <Gold.Protein.RotatedAtoms>
    4.1302  -10.2501    4.7110 H   0  0  0  0  0  0  0  0  0  0  0  0  # atno 1303 bound_to 1298
    0.8461   -9.2727    8.2458 H   0  0  0  0  0  0  0  0  0  0  0  0  # atno 2461 bound_to 2456
   -3.6405   -5.0770    8.6791 H   0  0  0  0  0  0  0  0  0  0  0  0  # atno 2472 bound_to 2467
    2.2353   -7.4114    5.2210 H   0  0  0  0  0  0  0  0  0  0  0  0  # atno 2515 bound_to 2510
   -2.9427  -17.3491   13.0318 H   0  0  0  0  0  0  0  0  0  0  0  0  # atno 3721 bound_to 3712
   -5.0041  -21.9271   11.4183 H   0  0  0  0  0  0  0  0  0  0  0  0  # atno 3767 bound_to 3762
    1.6656  -19.7375    8.9318 H   0  0  0  0  0  0  0  0  0  0  0  0  # atno 3841 bound_to 3832
    3.4308   -9.1054    3.7800 LP  0  0  0  0  0  0  0  0  0  0  0  0  # atno 4297 bound_to 1298
    4.8012   -8.7655    4.6005 LP  0  0  0  0  0  0  0  0  0  0  0  0  # atno 4298 bound_to 1298
    2.1589   -8.3956    7.8278 LP  0  0  0  0  0  0  0  0  0  0  0  0  # atno 4299 bound_to 2456
    0.7327   -8.1400    7.0747 LP  0  0  0  0  0  0  0  0  0  0  0  0  # atno 4300 bound_to 2456
    2.8358   -8.7322    4.4723 LP  0  0  0  0  0  0  0  0  0  0  0  0  # atno 4301 bound_to 2510
    2.2256   -8.8559    5.9819 LP  0  0  0  0  0  0  0  0  0  0  0  0  # atno 4302 bound_to 2510
   -2.6572  -18.0545   14.4456 LP  0  0  0  0  0  0  0  0  0  0  0  0  # atno 4306 bound_to 3712
   -3.4731  -16.6419   14.3721 LP  0  0  0  0  0  0  0  0  0  0  0  0  # atno 4307 bound_to 3712
    3.0218  -20.2888    8.2738 LP  0  0  0  0  0  0  0  0  0  0  0  0  # atno 4314 bound_to 3832
    2.2836  -21.1167    9.4722 LP  0  0  0  0  0  0  0  0  0  0  0  0  # atno 4315 bound_to 3832
   -3.9158  -23.0913   11.0619 LP  0  0  0  0  0  0  0  0  0  0  0  0  # atno 4318 bound_to 3762
   -5.2076  -22.8564   10.0910 LP  0  0  0  0  0  0  0  0  0  0  0  0  # atno 4319 bound_to 3762
   -5.1299   -5.4422    9.2400 LP  0  0  0  0  0  0  0  0  0  0  0  0  # atno 4320 bound_to 2467
   -4.9464   -4.8743    7.7200 LP  0  0  0  0  0  0  0  0  0  0  0  0  # atno 4321 bound_to 2467

> <Gold.Score>
     Score     S(PLP)   S(hbond)     S(cho)   S(metal)  DE(clash)   DE(tors)     intcor
     41.11     -36.30       1.90       0.00       0.00       0.00       1.51       2.13

> <Gold.PLP.Fitness>
41.1052

> <Gold.PLP.PLP>
-36.3024

> <Gold.PLP.part.hbond>
-2.0000

> <Gold.PLP.part.metal>
0.0000

> <Gold.PLP.part.buried>
1.2001

> <Gold.PLP.part.nonpolar>
-37.1155

> <Gold.PLP.part.repulsive>
0.2528

> <Gold.PLP.ligand.clash>
0.0000

> <Gold.PLP.ligand.torsion>
1.5059

> <Gold.PLP.Chemscore.Hbond>
1.8960

> <Gold.PLP.Chemscore.CHOScore>
0.0000

> <Gold.PLP.Chemscore.Metal>
0.0000

> <Gold.Chemscore.Hbonds>
donor molecule, donor type, donor heavy atom, donor atom, acceptor molecule, acceptor atom, score
      P1  H  2456  2461       L1     3  1.00
      P1  H  3712  3721       L1    11  0.90

> <Gold.PLP.Chemscore.Internal.Correction>
2.1267

