#       Name:                EN300-315786_i001
#       Creating user name   fsindt
#       Creation time:       Tue Feb 28 19:15:00 2023


#       File generated by GOLD software.
#

@<TRIPOS>MOLECULE
EN300-315786_i001|acide_2|mol2|6664|dock9
    29    30     1
SMALL
USER_CHARGES


@<TRIPOS>ATOM
      1 O1          -1.2528 -10.4076   9.3317 O.co2          1 <1>               -1.0000
      2 C2          -0.4700 -11.2791   8.9817 C.2            1 <1>                0.0000
      3 O3           0.1827 -11.1392   7.9574 O.co2          1 <1>                0.0000
      4 C4          -0.3083 -12.4990   9.8001 C.ar           1 <1>                0.0000
      5 C5           0.5399 -13.5217   9.3698 C.ar           1 <1>                0.0000
      6 C6           0.6903 -14.6590  10.1335 C.ar           1 <1>                0.0000
      7 C7          -0.0048 -14.7891  11.3364 C.ar           1 <1>                0.0000
      8 C8          -0.8525 -13.7677  11.7669 C.ar           1 <1>                0.0000
      9 C9          -0.9993 -12.6273  11.0071 C.ar           1 <1>                0.0000
     10 C10          0.1568 -16.0117  12.1562 C.2            1 <1>                0.0000
     11 O11          0.7018 -15.9486  13.2405 O.2            1 <1>                0.0000
     12 N12         -0.3005 -17.1945  11.6997 N.am           1 <1>                0.0000
     13 C13         -0.8888 -17.3116  10.3560 C.3            1 <1>                0.0000
     14 C14         -0.2114 -18.4806   9.6318 C.3            1 <1>                0.0000
     15 O15         -0.2757 -19.6463  10.4568 O.3            1 <1>                0.0000
     16 C16          0.4193 -19.5226  11.7000 C.3            1 <1>                0.0000
     17 C17         -0.2207 -18.4082  12.5280 C.3            1 <1>                0.0000
     18 H18          1.0777 -13.4213   8.4385 H              1 <1>                0.0000
     19 H19          1.3459 -15.4501   9.8005 H              1 <1>                0.0000
     20 H20         -1.3905 -13.8691  12.6979 H              1 <1>                0.0000
     21 H21         -1.6552 -11.8367  11.3406 H              1 <1>                0.0000
     22 H22         -1.9589 -17.5018  10.4390 H              1 <1>                0.0000
     23 H23         -0.7216 -16.3889   9.8003 H              1 <1>                0.0000
     24 H24         -0.7253 -18.6724   8.6899 H              1 <1>                0.0000
     25 H25          0.8313 -18.2315   9.4344 H              1 <1>                0.0000
     26 H26          0.3591 -20.4640  12.2461 H              1 <1>                0.0000
     27 H27          1.4642 -19.2772  11.5100 H              1 <1>                0.0000
     28 H28          0.3867 -18.2121  13.4116 H              1 <1>                0.0000
     29 H29         -1.2246 -18.7060  12.8307 H              1 <1>                0.0000
@<TRIPOS>BOND
    1    1    2 ar    
    2    2    3 ar    
    3    2    4 1     
    4    4    5 ar    
    5    4    9 ar    
    6    5    6 ar    
    7    5   18 1     
    8    6    7 ar    
    9    6   19 1     
   10    7    8 ar    
   11    7   10 1     
   12    8    9 ar    
   13    8   20 1     
   14    9   21 1     
   15   10   11 2     
   16   10   12 am    
   17   12   13 1     
   18   12   17 1     
   19   13   14 1     
   20   13   22 1     
   21   13   23 1     
   22   14   15 1     
   23   14   24 1     
   24   14   25 1     
   25   15   16 1     
   26   16   17 1     
   27   16   26 1     
   28   16   27 1     
   29   17   28 1     
   30   17   29 1     
@<TRIPOS>SUBSTRUCTURE
      1 ****           1
@<TRIPOS>COMMENT
> <Gold.Version>
2022.2.0

> <Gold.Id.Protein>
3pbl|protein|mol2

> <Gold.Protein.RotatedTorsions>
[ 1303 1298 1297 1294 ] final  -71.87 input  179.99 | X-H torsion
[ 2461 2456 2455 2452 ] final -123.55 input   30.03 | X-H torsion
[ 2515 2510 2509 2506 ] final    1.58 input  -89.99 | X-H torsion
[ 3721 3712 3711 3710 ] final -173.14 input -179.91 | X-H torsion
[ 3841 3832 3831 3830 ] final  -16.31 input -179.91 | X-H torsion
[ 3767 3762 3761 3758 ] final  111.45 input  -89.99 | X-H torsion
[ 2472 2467 2466 2463 ] final   61.14 input  -89.97 | X-H torsion

> <Gold.Protein.ActiveResidues>
 VAL82   VAL86   LEU89   PHE106  VAL107  ASP110  VAL111  MET112  CYS114  THR115 
 CYS181  SER182  ILE183  PHE188  VAL189  ILE190  SER192  SER193  SER196  TRP342 
 PHE345  PHE346  HIS349  VAL350  TYR365  THR369  GLY372  TYR373 

> <Gold.Protein.RotatedAtoms>
    3.6125   -8.8192    3.7959 H   0  0  0  0  0  0  0  0  0  0  0  0  # atno 1303 bound_to 1298
    0.6155   -9.1966    8.0893 H   0  0  0  0  0  0  0  0  0  0  0  0  # atno 2461 bound_to 2456
   -4.6616   -4.8221    7.6601 H   0  0  0  0  0  0  0  0  0  0  0  0  # atno 2472 bound_to 2467
    2.5302   -7.6128    4.6251 H   0  0  0  0  0  0  0  0  0  0  0  0  # atno 2515 bound_to 2510
   -3.3332  -16.5726   13.6437 H   0  0  0  0  0  0  0  0  0  0  0  0  # atno 3721 bound_to 3712
   -4.0040  -23.2470   10.7854 H   0  0  0  0  0  0  0  0  0  0  0  0  # atno 3767 bound_to 3762
    1.6223  -20.2945    9.4573 H   0  0  0  0  0  0  0  0  0  0  0  0  # atno 3841 bound_to 3832
    4.9002   -9.0392    4.7755 LP  0  0  0  0  0  0  0  0  0  0  0  0  # atno 4297 bound_to 1298
    3.8497  -10.2632    4.5204 LP  0  0  0  0  0  0  0  0  0  0  0  0  # atno 4298 bound_to 1298
    2.1359   -8.6032    8.0272 LP  0  0  0  0  0  0  0  0  0  0  0  0  # atno 4299 bound_to 2456
    0.9861   -8.0085    7.0317 LP  0  0  0  0  0  0  0  0  0  0  0  0  # atno 4300 bound_to 2456
    2.7224   -9.1954    4.9779 LP  0  0  0  0  0  0  0  0  0  0  0  0  # atno 4301 bound_to 2510
    2.0441   -8.1913    6.0725 LP  0  0  0  0  0  0  0  0  0  0  0  0  # atno 4302 bound_to 2510
   -2.7739  -18.0322   13.2766 LP  0  0  0  0  0  0  0  0  0  0  0  0  # atno 4306 bound_to 3712
   -2.9055  -17.5608   14.8346 LP  0  0  0  0  0  0  0  0  0  0  0  0  # atno 4307 bound_to 3712
    2.3911  -19.7318    8.1657 LP  0  0  0  0  0  0  0  0  0  0  0  0  # atno 4314 bound_to 3832
    2.9642  -21.0302    8.9734 LP  0  0  0  0  0  0  0  0  0  0  0  0  # atno 4315 bound_to 3832
   -5.3933  -22.6114   10.2085 LP  0  0  0  0  0  0  0  0  0  0  0  0  # atno 4318 bound_to 3762
   -4.7299  -22.0169   11.5771 LP  0  0  0  0  0  0  0  0  0  0  0  0  # atno 4319 bound_to 3762
   -3.7192   -5.1806    8.9446 LP  0  0  0  0  0  0  0  0  0  0  0  0  # atno 4320 bound_to 2467
   -5.3361   -5.3908    9.0342 LP  0  0  0  0  0  0  0  0  0  0  0  0  # atno 4321 bound_to 2467

> <Gold.Score>
     Score     S(PLP)   S(hbond)     S(cho)   S(metal)  DE(clash)   DE(tors)     intcor
     40.70     -37.80       1.11       0.00       0.00       0.00       1.28       2.13

> <Gold.PLP.Fitness>
40.6998

> <Gold.PLP.PLP>
-37.7983

> <Gold.PLP.part.hbond>
-1.8154

> <Gold.PLP.part.metal>
0.0000

> <Gold.PLP.part.buried>
-3.7961

> <Gold.PLP.part.nonpolar>
-33.1842

> <Gold.PLP.part.repulsive>
0.1423

> <Gold.PLP.ligand.clash>
0.0000

> <Gold.PLP.ligand.torsion>
1.2832

> <Gold.PLP.Chemscore.Hbond>
1.1138

> <Gold.PLP.Chemscore.CHOScore>
0.0000

> <Gold.PLP.Chemscore.Metal>
0.0000

> <Gold.Chemscore.Hbonds>
donor molecule, donor type, donor heavy atom, donor atom, acceptor molecule, acceptor atom, score
      P1  H  2456  2461       L1     3  1.00
      P1  H  3832  3841       L1    15  0.11

> <Gold.PLP.Chemscore.Internal.Correction>
2.1267

