#       Name:                EN300-315786_i001
#       Creating user name   fsindt
#       Creation time:       Tue Feb 28 19:15:02 2023


#       File generated by GOLD software.
#

@<TRIPOS>MOLECULE
EN300-315786_i001|acide_2|mol2|6664|dock11
    29    30     1
SMALL
USER_CHARGES


@<TRIPOS>ATOM
      1 O1          -0.9210 -18.0450  15.3254 O.co2          1 <1>               -1.0000
      2 C2          -0.1772 -18.2308  14.3730 C.2            1 <1>                0.0000
      3 O3           0.4703 -19.2650  14.2957 O.co2          1 <1>                0.0000
      4 C4          -0.0657 -17.2081  13.3121 C.ar           1 <1>                0.0000
      5 C5           0.3181 -15.9048  13.6356 C.ar           1 <1>                0.0000
      6 C6           0.4220 -14.9515  12.6457 C.ar           1 <1>                0.0000
      7 C7           0.1437 -15.2882  11.3204 C.ar           1 <1>                0.0000
      8 C8          -0.2398 -16.5901  10.9965 C.ar           1 <1>                0.0000
      9 C9          -0.3385 -17.5459  11.9846 C.ar           1 <1>                0.0000
     10 C10          0.2550 -14.2631  10.2574 C.2            1 <1>                0.0000
     11 O11          1.0724 -14.3963   9.3681 O.2            1 <1>                0.0000
     12 N12         -0.5503 -13.1826  10.2761 N.am           1 <1>                0.0000
     13 C13         -1.4898 -12.9572  11.3861 C.3            1 <1>                0.0000
     14 C14         -1.2987 -11.5250  11.8980 C.3            1 <1>                0.0000
     15 O15         -1.3861 -10.6163  10.7979 O.3            1 <1>                0.0000
     16 C16         -0.3720 -10.7980   9.8067 C.3            1 <1>                0.0000
     17 C17         -0.5116 -12.1901   9.1903 C.3            1 <1>                0.0000
     18 H18          0.5332 -15.6439  14.6613 H              1 <1>                0.0000
     19 H19          0.7184 -13.9435  12.8958 H              1 <1>                0.0000
     20 H20         -0.4554 -16.8499   9.9706 H              1 <1>                0.0000
     21 H21         -0.6350 -18.5536  11.7337 H              1 <1>                0.0000
     22 H22         -2.5129 -13.0876  11.0332 H              1 <1>                0.0000
     23 H23         -1.2852 -13.6647  12.1896 H              1 <1>                0.0000
     24 H24         -2.0761 -11.2917  12.6256 H              1 <1>                0.0000
     25 H25         -0.3196 -11.4341  12.3684 H              1 <1>                0.0000
     26 H26         -0.4827 -10.0418   9.0296 H              1 <1>                0.0000
     27 H27          0.6104 -10.7046  10.2695 H              1 <1>                0.0000
     28 H28          0.3387 -12.3900   8.5384 H              1 <1>                0.0000
     29 H29         -1.4364 -12.2463   8.6161 H              1 <1>                0.0000
@<TRIPOS>BOND
    1    1    2 ar    
    2    2    3 ar    
    3    2    4 1     
    4    4    5 ar    
    5    4    9 ar    
    6    5    6 ar    
    7    5   18 1     
    8    6    7 ar    
    9    6   19 1     
   10    7    8 ar    
   11    7   10 1     
   12    8    9 ar    
   13    8   20 1     
   14    9   21 1     
   15   10   11 2     
   16   10   12 am    
   17   12   13 1     
   18   12   17 1     
   19   13   14 1     
   20   13   22 1     
   21   13   23 1     
   22   14   15 1     
   23   14   24 1     
   24   14   25 1     
   25   15   16 1     
   26   16   17 1     
   27   16   26 1     
   28   16   27 1     
   29   17   28 1     
   30   17   29 1     
@<TRIPOS>SUBSTRUCTURE
      1 ****           1
@<TRIPOS>COMMENT
> <Gold.Version>
2022.2.0

> <Gold.Id.Protein>
3pbl|protein|mol2

> <Gold.Protein.RotatedTorsions>
[ 1303 1298 1297 1294 ] final  -88.10 input  179.99 | X-H torsion
[ 2461 2456 2455 2452 ] final -126.83 input   30.03 | X-H torsion
[ 2515 2510 2509 2506 ] final  134.37 input  -89.99 | X-H torsion
[ 3721 3712 3711 3710 ] final  -33.18 input -179.91 | X-H torsion
[ 3841 3832 3831 3830 ] final   54.02 input -179.91 | X-H torsion
[ 3767 3762 3761 3758 ] final  -43.22 input  -89.99 | X-H torsion
[ 2472 2467 2466 2463 ] final   75.87 input  -89.97 | X-H torsion

> <Gold.Protein.ActiveResidues>
 VAL82   VAL86   LEU89   PHE106  VAL107  ASP110  VAL111  MET112  CYS114  THR115 
 CYS181  SER182  ILE183  PHE188  VAL189  ILE190  SER192  SER193  SER196  TRP342 
 PHE345  PHE346  HIS349  VAL350  TYR365  THR369  GLY372  TYR373 

> <Gold.Protein.RotatedAtoms>
    3.8022   -8.6438    3.8597 H   0  0  0  0  0  0  0  0  0  0  0  0  # atno 1303 bound_to 1298
    0.6546   -9.2153    8.1216 H   0  0  0  0  0  0  0  0  0  0  0  0  # atno 2461 bound_to 2456
   -4.8961   -4.8632    7.7025 H   0  0  0  0  0  0  0  0  0  0  0  0  # atno 2472 bound_to 2467
    2.0786   -8.3971    6.0963 H   0  0  0  0  0  0  0  0  0  0  0  0  # atno 2515 bound_to 2510
   -2.6209  -17.6645   14.6182 H   0  0  0  0  0  0  0  0  0  0  0  0  # atno 3721 bound_to 3712
   -5.5099  -22.2091   10.5831 H   0  0  0  0  0  0  0  0  0  0  0  0  # atno 3767 bound_to 3762
    2.3893  -20.9253    9.5472 H   0  0  0  0  0  0  0  0  0  0  0  0  # atno 3841 bound_to 3832
    4.9074   -9.2856    4.8761 LP  0  0  0  0  0  0  0  0  0  0  0  0  # atno 4297 bound_to 1298
    3.6527  -10.1922    4.3560 LP  0  0  0  0  0  0  0  0  0  0  0  0  # atno 4298 bound_to 1298
    2.1467   -8.5640    7.9918 LP  0  0  0  0  0  0  0  0  0  0  0  0  # atno 4299 bound_to 2456
    0.9364   -8.0291    7.0349 LP  0  0  0  0  0  0  0  0  0  0  0  0  # atno 4300 bound_to 2456
    2.4409   -7.5021    4.7797 LP  0  0  0  0  0  0  0  0  0  0  0  0  # atno 4301 bound_to 2510
    2.7774   -9.0999    4.7988 LP  0  0  0  0  0  0  0  0  0  0  0  0  # atno 4302 bound_to 2510
   -3.5613  -16.5555   13.9373 LP  0  0  0  0  0  0  0  0  0  0  0  0  # atno 4306 bound_to 3712
   -2.9405  -17.7769   13.0488 LP  0  0  0  0  0  0  0  0  0  0  0  0  # atno 4307 bound_to 3712
    1.4943  -19.8214    8.8011 LP  0  0  0  0  0  0  0  0  0  0  0  0  # atno 4314 bound_to 3832
    2.9750  -20.2120    8.2341 LP  0  0  0  0  0  0  0  0  0  0  0  0  # atno 4315 bound_to 3832
   -4.2702  -22.3337   11.6389 LP  0  0  0  0  0  0  0  0  0  0  0  0  # atno 4318 bound_to 3762
   -4.3476  -23.3321   10.3490 LP  0  0  0  0  0  0  0  0  0  0  0  0  # atno 4319 bound_to 3762
   -3.6482   -5.0953    8.7297 LP  0  0  0  0  0  0  0  0  0  0  0  0  # atno 4320 bound_to 2467
   -5.1726   -5.4350    9.2068 LP  0  0  0  0  0  0  0  0  0  0  0  0  # atno 4321 bound_to 2467

> <Gold.Score>
     Score     S(PLP)   S(hbond)     S(cho)   S(metal)  DE(clash)   DE(tors)     intcor
     40.43     -39.82       1.00       0.00       0.00       0.00       2.26       2.13

> <Gold.PLP.Fitness>
40.4345

> <Gold.PLP.PLP>
-39.8206

> <Gold.PLP.part.hbond>
-1.0000

> <Gold.PLP.part.metal>
0.0000

> <Gold.PLP.part.buried>
-4.6954

> <Gold.PLP.part.nonpolar>
-35.3538

> <Gold.PLP.part.repulsive>
0.1844

> <Gold.PLP.ligand.clash>
0.0000

> <Gold.PLP.ligand.torsion>
2.2564

> <Gold.PLP.Chemscore.Hbond>
1.0000

> <Gold.PLP.Chemscore.CHOScore>
0.0000

> <Gold.PLP.Chemscore.Metal>
0.0000

> <Gold.Chemscore.Hbonds>
donor molecule, donor type, donor heavy atom, donor atom, acceptor molecule, acceptor atom, score
      P1  H  3712  3721       L1     1  1.00

> <Gold.PLP.Chemscore.Internal.Correction>
2.1267

