#       Name:                EN300-315786_i001
#       Creating user name   fsindt
#       Creation time:       Tue Feb 28 19:14:57 2023


#       File generated by GOLD software.
#

@<TRIPOS>MOLECULE
EN300-315786_i001|acide_2|mol2|6664|dock4
    29    30     1
SMALL
USER_CHARGES


@<TRIPOS>ATOM
      1 O1          -3.0485 -24.1382  12.7371 O.co2          1 <1>               -1.0000
      2 C2          -2.1123 -23.9450  13.4993 C.2            1 <1>                0.0000
      3 O3          -1.9739 -24.6499  14.4886 O.co2          1 <1>                0.0000
      4 C4          -1.1443 -22.8634  13.2215 C.ar           1 <1>                0.0000
      5 C5          -0.0850 -22.6307  14.1014 C.ar           1 <1>                0.0000
      6 C6           0.8173 -21.6218  13.8417 C.ar           1 <1>                0.0000
      7 C7           0.6727 -20.8328  12.6999 C.ar           1 <1>                0.0000
      8 C8          -0.3855 -21.0647  11.8203 C.ar           1 <1>                0.0000
      9 C9          -1.2852 -22.0770  12.0758 C.ar           1 <1>                0.0000
     10 C10          1.6423 -19.7486  12.4218 C.2            1 <1>                0.0000
     11 O11          2.3130 -19.7783  11.4089 O.2            1 <1>                0.0000
     12 N12          1.7810 -18.7289  13.2921 N.am           1 <1>                0.0000
     13 C13          2.6764 -17.5987  12.9983 C.3            1 <1>                0.0000
     14 C14          1.8960 -16.2962  13.2089 C.3            1 <1>                0.0000
     15 O15          1.2971 -16.3108  14.5069 O.3            1 <1>                0.0000
     16 C16          0.3403 -17.3557  14.6982 C.3            1 <1>                0.0000
     17 C17          1.0367 -18.7098  14.5614 C.3            1 <1>                0.0000
     18 H18          0.0268 -23.2410  14.9854 H              1 <1>                0.0000
     19 H19          1.6363 -21.4415  14.5224 H              1 <1>                0.0000
     20 H20         -0.4970 -20.4535  10.9370 H              1 <1>                0.0000
     21 H21         -2.1039 -22.2567  11.3948 H              1 <1>                0.0000
     22 H22          3.5341 -17.6255  13.6704 H              1 <1>                0.0000
     23 H23          3.0173 -17.6594  11.9647 H              1 <1>                0.0000
     24 H24          2.5759 -15.4477  13.1312 H              1 <1>                0.0000
     25 H25          1.1182 -16.2110  12.4500 H              1 <1>                0.0000
     26 H26         -0.0989 -17.2697  15.6920 H              1 <1>                0.0000
     27 H27         -0.4431 -17.2744  13.9447 H              1 <1>                0.0000
     28 H28          0.2934 -19.5070  14.5648 H              1 <1>                0.0000
     29 H29          1.7310 -18.8509  15.3898 H              1 <1>                0.0000
@<TRIPOS>BOND
    1    1    2 ar    
    2    2    3 ar    
    3    2    4 1     
    4    4    5 ar    
    5    4    9 ar    
    6    5    6 ar    
    7    5   18 1     
    8    6    7 ar    
    9    6   19 1     
   10    7    8 ar    
   11    7   10 1     
   12    8    9 ar    
   13    8   20 1     
   14    9   21 1     
   15   10   11 2     
   16   10   12 am    
   17   12   13 1     
   18   12   17 1     
   19   13   14 1     
   20   13   22 1     
   21   13   23 1     
   22   14   15 1     
   23   14   24 1     
   24   14   25 1     
   25   15   16 1     
   26   16   17 1     
   27   16   26 1     
   28   16   27 1     
   29   17   28 1     
   30   17   29 1     
@<TRIPOS>SUBSTRUCTURE
      1 ****           1
@<TRIPOS>COMMENT
> <Gold.Version>
2022.2.0

> <Gold.Id.Protein>
3pbl|protein|mol2

> <Gold.Protein.RotatedTorsions>
[ 1303 1298 1297 1294 ] final -115.95 input  179.99 | X-H torsion
[ 2461 2456 2455 2452 ] final  121.62 input   30.03 | X-H torsion
[ 2515 2510 2509 2506 ] final  117.56 input  -89.99 | X-H torsion
[ 3721 3712 3711 3710 ] final  -71.46 input -179.91 | X-H torsion
[ 3841 3832 3831 3830 ] final   17.06 input -179.91 | X-H torsion
[ 3767 3762 3761 3758 ] final  154.26 input  -89.99 | X-H torsion
[ 2472 2467 2466 2463 ] final  174.02 input  -89.97 | X-H torsion

> <Gold.Protein.ActiveResidues>
 VAL82   VAL86   LEU89   PHE106  VAL107  ASP110  VAL111  MET112  CYS114  THR115 
 CYS181  SER182  ILE183  PHE188  VAL189  ILE190  SER192  SER193  SER196  TRP342 
 PHE345  PHE346  HIS349  VAL350  TYR365  THR369  GLY372  TYR373 

> <Gold.Protein.RotatedAtoms>
    4.1775   -8.4838    4.0584 H   0  0  0  0  0  0  0  0  0  0  0  0  # atno 1303 bound_to 1298
    2.1132   -8.6651    8.0811 H   0  0  0  0  0  0  0  0  0  0  0  0  # atno 2461 bound_to 2456
   -5.3976   -5.3638    8.9384 H   0  0  0  0  0  0  0  0  0  0  0  0  # atno 2472 bound_to 2467
    2.0376   -8.1277    6.0559 H   0  0  0  0  0  0  0  0  0  0  0  0  # atno 2515 bound_to 2510
   -2.8859  -17.1808   14.7546 H   0  0  0  0  0  0  0  0  0  0  0  0  # atno 3721 bound_to 3712
   -3.9314  -22.8478   11.3415 H   0  0  0  0  0  0  0  0  0  0  0  0  # atno 3767 bound_to 3762
    1.9089  -20.6688    9.6149 H   0  0  0  0  0  0  0  0  0  0  0  0  # atno 3841 bound_to 3832
    4.7758   -9.7135    4.9507 LP  0  0  0  0  0  0  0  0  0  0  0  0  # atno 4297 bound_to 1298
    3.4089   -9.9243    4.0826 LP  0  0  0  0  0  0  0  0  0  0  0  0  # atno 4298 bound_to 1298
    1.0663   -7.9800    7.0313 LP  0  0  0  0  0  0  0  0  0  0  0  0  # atno 4299 bound_to 2456
    0.5585   -9.1631    8.0358 LP  0  0  0  0  0  0  0  0  0  0  0  0  # atno 4300 bound_to 2456
    2.5573   -7.6550    4.5820 LP  0  0  0  0  0  0  0  0  0  0  0  0  # atno 4301 bound_to 2510
    2.7021   -9.2166    5.0369 LP  0  0  0  0  0  0  0  0  0  0  0  0  # atno 4302 bound_to 2510
   -3.5071  -16.7427   13.3403 LP  0  0  0  0  0  0  0  0  0  0  0  0  # atno 4306 bound_to 3712
   -2.6887  -18.1481   13.4883 LP  0  0  0  0  0  0  0  0  0  0  0  0  # atno 4307 bound_to 3712
    1.8968  -19.6362    8.3862 LP  0  0  0  0  0  0  0  0  0  0  0  0  # atno 4314 bound_to 3832
    3.1275  -20.6935    8.5707 LP  0  0  0  0  0  0  0  0  0  0  0  0  # atno 4315 bound_to 3832
   -4.9263  -23.0979   10.0709 LP  0  0  0  0  0  0  0  0  0  0  0  0  # atno 4318 bound_to 3762
   -5.2693  -21.9294   11.1588 LP  0  0  0  0  0  0  0  0  0  0  0  0  # atno 4319 bound_to 3762
   -4.5453   -4.8088    7.6609 LP  0  0  0  0  0  0  0  0  0  0  0  0  # atno 4320 bound_to 2467
   -3.7741   -5.2210    9.0400 LP  0  0  0  0  0  0  0  0  0  0  0  0  # atno 4321 bound_to 2467

> <Gold.Score>
     Score     S(PLP)   S(hbond)     S(cho)   S(metal)  DE(clash)   DE(tors)     intcor
     46.76     -39.01       2.65       0.00       0.00       0.00       1.16       2.13

> <Gold.PLP.Fitness>
46.7577

> <Gold.PLP.PLP>
-39.0122

> <Gold.PLP.part.hbond>
-3.0000

> <Gold.PLP.part.metal>
0.0000

> <Gold.PLP.part.buried>
-6.2290

> <Gold.PLP.part.nonpolar>
-33.0586

> <Gold.PLP.part.repulsive>
2.2129

> <Gold.PLP.ligand.clash>
0.0000

> <Gold.PLP.ligand.torsion>
1.1581

> <Gold.PLP.Chemscore.Hbond>
2.6450

> <Gold.PLP.Chemscore.CHOScore>
0.0000

> <Gold.PLP.Chemscore.Metal>
0.0000

> <Gold.Chemscore.Hbonds>
donor molecule, donor type, donor heavy atom, donor atom, acceptor molecule, acceptor atom, score
      P1  H  2305  2313       L1    15  0.84
      P1  H  3832  3841       L1    11  0.80
      P1  H  3762  3767       L1     1  1.00

> <Gold.PLP.Chemscore.Internal.Correction>
2.1267

