#       Name:                EN300-315786_i001
#       Creating user name   fsindt
#       Creation time:       Tue Feb 28 19:15:04 2023


#       File generated by GOLD software.
#

@<TRIPOS>MOLECULE
EN300-315786_i001|acide_2|mol2|6664|dock14
    29    30     1
SMALL
USER_CHARGES


@<TRIPOS>ATOM
      1 O1           1.8577 -16.0142  12.5813 O.co2          1 <1>               -1.0000
      2 C2           1.3079 -16.5088  13.5550 C.2            1 <1>                0.0000
      3 O3           0.7972 -15.7881  14.4003 O.co2          1 <1>                0.0000
      4 C4           1.2554 -17.9778  13.7069 C.ar           1 <1>                0.0000
      5 C5           1.0099 -18.5422  14.9607 C.ar           1 <1>                0.0000
      6 C6           0.9611 -19.9123  15.1016 C.ar           1 <1>                0.0000
      7 C7           1.1568 -20.7356  13.9922 C.ar           1 <1>                0.0000
      8 C8           1.4022 -20.1724  12.7393 C.ar           1 <1>                0.0000
      9 C9           1.4456 -18.8024  12.5958 C.ar           1 <1>                0.0000
     10 C10          1.1047 -22.2078  14.1446 C.2            1 <1>                0.0000
     11 O11          2.1317 -22.8399  14.2944 O.2            1 <1>                0.0000
     12 N12         -0.0817 -22.8465  14.1172 N.am           1 <1>                0.0000
     13 C13         -0.1665 -24.2973  14.3492 C.3            1 <1>                0.0000
     14 C14         -1.2356 -24.5543  15.4173 C.3            1 <1>                0.0000
     15 O15         -2.4484 -23.9004  15.0366 O.3            1 <1>                0.0000
     16 C16         -2.3429 -22.4774  14.9473 C.3            1 <1>                0.0000
     17 C17         -1.3313 -22.1129  13.8605 C.3            1 <1>                0.0000
     18 H18          0.8587 -17.9051  15.8195 H              1 <1>                0.0000
     19 H19          0.7716 -20.3489  16.0712 H              1 <1>                0.0000
     20 H20          1.5540 -20.8103  11.8811 H              1 <1>                0.0000
     21 H21          1.6351 -18.3666  11.6260 H              1 <1>                0.0000
     22 H22         -0.4438 -24.8014  13.4234 H              1 <1>                0.0000
     23 H23          0.7968 -24.6704  14.6966 H              1 <1>                0.0000
     24 H24         -1.4121 -25.6264  15.5052 H              1 <1>                0.0000
     25 H25         -0.8951 -24.1610  16.3753 H              1 <1>                0.0000
     26 H26         -3.3161 -22.0552  14.6967 H              1 <1>                0.0000
     27 H27         -2.0065 -22.0766  15.9034 H              1 <1>                0.0000
     28 H28         -1.1398 -21.0401  13.8820 H              1 <1>                0.0000
     29 H29         -1.7232 -22.3970  12.8839 H              1 <1>                0.0000
@<TRIPOS>BOND
    1    1    2 ar    
    2    2    3 ar    
    3    2    4 1     
    4    4    5 ar    
    5    4    9 ar    
    6    5    6 ar    
    7    5   18 1     
    8    6    7 ar    
    9    6   19 1     
   10    7    8 ar    
   11    7   10 1     
   12    8    9 ar    
   13    8   20 1     
   14    9   21 1     
   15   10   11 2     
   16   10   12 am    
   17   12   13 1     
   18   12   17 1     
   19   13   14 1     
   20   13   22 1     
   21   13   23 1     
   22   14   15 1     
   23   14   24 1     
   24   14   25 1     
   25   15   16 1     
   26   16   17 1     
   27   16   26 1     
   28   16   27 1     
   29   17   28 1     
   30   17   29 1     
@<TRIPOS>SUBSTRUCTURE
      1 ****           1
@<TRIPOS>COMMENT
> <Gold.Version>
2022.2.0

> <Gold.Id.Protein>
3pbl|protein|mol2

> <Gold.Protein.RotatedTorsions>
[ 1303 1298 1297 1294 ] final -162.16 input  179.99 | X-H torsion
[ 2461 2456 2455 2452 ] final   72.03 input   30.03 | X-H torsion
[ 2515 2510 2509 2506 ] final   65.96 input  -89.99 | X-H torsion
[ 3721 3712 3711 3710 ] final  -63.54 input -179.91 | X-H torsion
[ 3841 3832 3831 3830 ] final    0.35 input -179.91 | X-H torsion
[ 3767 3762 3761 3758 ] final  175.85 input  -89.99 | X-H torsion
[ 2472 2467 2466 2463 ] final  -33.67 input  -89.97 | X-H torsion

> <Gold.Protein.ActiveResidues>
 VAL82   VAL86   LEU89   PHE106  VAL107  ASP110  VAL111  MET112  CYS114  THR115 
 CYS181  SER182  ILE183  PHE188  VAL189  ILE190  SER192  SER193  SER196  TRP342 
 PHE345  PHE346  HIS349  VAL350  TYR365  THR369  GLY372  TYR373 

> <Gold.Protein.RotatedAtoms>
    4.7295   -8.6700    4.5142 H   0  0  0  0  0  0  0  0  0  0  0  0  # atno 1303 bound_to 1298
    2.0315   -8.1229    7.5110 H   0  0  0  0  0  0  0  0  0  0  0  0  # atno 2461 bound_to 2456
   -3.6345   -5.0366    8.5689 H   0  0  0  0  0  0  0  0  0  0  0  0  # atno 2472 bound_to 2467
    2.1217   -7.4991    5.5353 H   0  0  0  0  0  0  0  0  0  0  0  0  # atno 2515 bound_to 2510
   -2.8263  -17.2845   14.7572 H   0  0  0  0  0  0  0  0  0  0  0  0  # atno 3721 bound_to 3712
   -4.0589  -22.5839   11.5387 H   0  0  0  0  0  0  0  0  0  0  0  0  # atno 3767 bound_to 3762
    1.7398  -20.4907    9.5602 H   0  0  0  0  0  0  0  0  0  0  0  0  # atno 3841 bound_to 3832
    4.2537  -10.2092    4.7802 LP  0  0  0  0  0  0  0  0  0  0  0  0  # atno 4297 bound_to 1298
    3.3788   -9.2424    3.7971 LP  0  0  0  0  0  0  0  0  0  0  0  0  # atno 4298 bound_to 1298
    0.4461   -8.4180    7.2523 LP  0  0  0  0  0  0  0  0  0  0  0  0  # atno 4299 bound_to 2456
    1.2604   -9.2671    8.3848 LP  0  0  0  0  0  0  0  0  0  0  0  0  # atno 4300 bound_to 2456
    2.8107   -8.4048    4.3645 LP  0  0  0  0  0  0  0  0  0  0  0  0  # atno 4301 bound_to 2510
    2.3645   -9.0957    5.7753 LP  0  0  0  0  0  0  0  0  0  0  0  0  # atno 4302 bound_to 2510
   -3.5352  -16.6764   13.4513 LP  0  0  0  0  0  0  0  0  0  0  0  0  # atno 4306 bound_to 3712
   -2.7295  -18.0946   13.3744 LP  0  0  0  0  0  0  0  0  0  0  0  0  # atno 4307 bound_to 3712
    2.1393  -19.6528    8.2509 LP  0  0  0  0  0  0  0  0  0  0  0  0  # atno 4314 bound_to 3832
    3.0803  -20.8826    8.7693 LP  0  0  0  0  0  0  0  0  0  0  0  0  # atno 4315 bound_to 3832
   -4.6270  -23.2599   10.1650 LP  0  0  0  0  0  0  0  0  0  0  0  0  # atno 4318 bound_to 3762
   -5.4413  -22.0312   10.8677 LP  0  0  0  0  0  0  0  0  0  0  0  0  # atno 4319 bound_to 3762
   -5.0317   -5.4543    9.3035 LP  0  0  0  0  0  0  0  0  0  0  0  0  # atno 4320 bound_to 2467
   -5.0505   -4.9025    7.7667 LP  0  0  0  0  0  0  0  0  0  0  0  0  # atno 4321 bound_to 2467

> <Gold.Score>
     Score     S(PLP)   S(hbond)     S(cho)   S(metal)  DE(clash)   DE(tors)     intcor
     40.23     -38.42       1.00       0.00       0.00       0.00       1.66       2.13

> <Gold.PLP.Fitness>
40.2268

> <Gold.PLP.PLP>
-38.4210

> <Gold.PLP.part.hbond>
-1.0000

> <Gold.PLP.part.metal>
0.0000

> <Gold.PLP.part.buried>
-5.6401

> <Gold.PLP.part.nonpolar>
-31.9775

> <Gold.PLP.part.repulsive>
0.2611

> <Gold.PLP.ligand.clash>
0.0000

> <Gold.PLP.ligand.torsion>
1.6604

> <Gold.PLP.Chemscore.Hbond>
1.0000

> <Gold.PLP.Chemscore.CHOScore>
0.0000

> <Gold.PLP.Chemscore.Metal>
0.0000

> <Gold.Chemscore.Hbonds>
donor molecule, donor type, donor heavy atom, donor atom, acceptor molecule, acceptor atom, score
      P1  H  2305  2313       L1     3  1.00

> <Gold.PLP.Chemscore.Internal.Correction>
2.1267

