#       Name:                EN300-315786_i001
#       Creating user name   fsindt
#       Creation time:       Tue Feb 28 19:15:10 2023


#       File generated by GOLD software.
#

@<TRIPOS>MOLECULE
EN300-315786_i001|acide_2|mol2|6664|dock20
    29    30     1
SMALL
USER_CHARGES


@<TRIPOS>ATOM
      1 O1          -0.8711 -18.2096  12.3323 O.co2          1 <1>               -1.0000
      2 C2          -0.5377 -17.8247  11.2208 C.2            1 <1>                0.0000
      3 O3          -0.3032 -18.6368  10.3375 O.co2          1 <1>                0.0000
      4 C4          -0.4243 -16.3776  10.9432 C.ar           1 <1>                0.0000
      5 C5          -0.2026 -15.9318   9.6383 C.ar           1 <1>                0.0000
      6 C6          -0.0970 -14.5821   9.3802 C.ar           1 <1>                0.0000
      7 C7          -0.2115 -13.6610  10.4221 C.ar           1 <1>                0.0000
      8 C8          -0.4330 -14.1058  11.7261 C.ar           1 <1>                0.0000
      9 C9          -0.5446 -15.4549  11.9848 C.ar           1 <1>                0.0000
     10 C10         -0.0973 -12.2109  10.1440 C.2            1 <1>                0.0000
     11 O11          0.9278 -11.7619   9.6706 O.2            1 <1>                0.0000
     12 N12         -1.1304 -11.3892  10.4159 N.am           1 <1>                0.0000
     13 C13         -1.0720  -9.9596  10.0720 C.3            1 <1>                0.0000
     14 C14         -2.3448  -9.5960   9.2988 C.3            1 <1>                0.0000
     15 O15         -3.4870 -10.0234  10.0447 O.3            1 <1>                0.0000
     16 C16         -3.5607 -11.4373  10.2434 C.3            1 <1>                0.0000
     17 C17         -2.3525 -11.8963  11.0600 C.3            1 <1>                0.0000
     18 H18         -0.1136 -16.6445   8.8319 H              1 <1>                0.0000
     19 H19          0.0749 -14.2372   8.3712 H              1 <1>                0.0000
     20 H20         -0.5212 -13.3924  12.5321 H              1 <1>                0.0000
     21 H21         -0.7164 -15.7990  12.9940 H              1 <1>                0.0000
     22 H22         -1.0137  -9.3648  10.9836 H              1 <1>                0.0000
     23 H23         -0.1974  -9.7669   9.4509 H              1 <1>                0.0000
     24 H24         -2.3873  -8.5164   9.1546 H              1 <1>                0.0000
     25 H25         -2.3362 -10.0935   8.3290 H              1 <1>                0.0000
     26 H26         -4.4778 -11.6824  10.7789 H              1 <1>                0.0000
     27 H27         -3.5565 -11.9414   9.2771 H              1 <1>                0.0000
     28 H28         -2.3256 -12.9854  11.0954 H              1 <1>                0.0000
     29 H29         -2.4202 -11.4971  12.0720 H              1 <1>                0.0000
@<TRIPOS>BOND
    1    1    2 ar    
    2    2    3 ar    
    3    2    4 1     
    4    4    5 ar    
    5    4    9 ar    
    6    5    6 ar    
    7    5   18 1     
    8    6    7 ar    
    9    6   19 1     
   10    7    8 ar    
   11    7   10 1     
   12    8    9 ar    
   13    8   20 1     
   14    9   21 1     
   15   10   11 2     
   16   10   12 am    
   17   12   13 1     
   18   12   17 1     
   19   13   14 1     
   20   13   22 1     
   21   13   23 1     
   22   14   15 1     
   23   14   24 1     
   24   14   25 1     
   25   15   16 1     
   26   16   17 1     
   27   16   26 1     
   28   16   27 1     
   29   17   28 1     
   30   17   29 1     
@<TRIPOS>SUBSTRUCTURE
      1 ****           1
@<TRIPOS>COMMENT
> <Gold.Version>
2022.2.0

> <Gold.Id.Protein>
3pbl|protein|mol2

> <Gold.Protein.RotatedTorsions>
[ 1303 1298 1297 1294 ] final -147.29 input  179.99 | X-H torsion
[ 2461 2456 2455 2452 ] final   43.36 input   30.03 | X-H torsion
[ 2515 2510 2509 2506 ] final  173.43 input  -89.99 | X-H torsion
[ 3721 3712 3711 3710 ] final   82.59 input -179.91 | X-H torsion
[ 3841 3832 3831 3830 ] final -130.83 input -179.91 | X-H torsion
[ 3767 3762 3761 3758 ] final   11.45 input  -89.99 | X-H torsion
[ 2472 2467 2466 2463 ] final   85.30 input  -89.97 | X-H torsion

> <Gold.Protein.ActiveResidues>
 VAL82   VAL86   LEU89   PHE106  VAL107  ASP110  VAL111  MET112  CYS114  THR115 
 CYS181  SER182  ILE183  PHE188  VAL189  ILE190  SER192  SER193  SER196  TRP342 
 PHE345  PHE346  HIS349  VAL350  TYR365  THR369  GLY372  TYR373 

> <Gold.Protein.RotatedAtoms>
    4.5796   -8.5504    4.3636 H   0  0  0  0  0  0  0  0  0  0  0  0  # atno 1303 bound_to 1298
    1.7096   -7.9464    7.2223 H   0  0  0  0  0  0  0  0  0  0  0  0  # atno 2461 bound_to 2456
   -5.0359   -4.8989    7.7589 H   0  0  0  0  0  0  0  0  0  0  0  0  # atno 2472 bound_to 2467
    2.2800   -8.9638    5.9086 H   0  0  0  0  0  0  0  0  0  0  0  0  # atno 2515 bound_to 2510
   -2.7310  -17.6993   13.1555 H   0  0  0  0  0  0  0  0  0  0  0  0  # atno 3721 bound_to 3712
   -5.2084  -22.8548   10.0908 H   0  0  0  0  0  0  0  0  0  0  0  0  # atno 3767 bound_to 3762
    2.3718  -19.6313    8.3994 H   0  0  0  0  0  0  0  0  0  0  0  0  # atno 3841 bound_to 3832
    4.4493  -10.0965    4.8724 LP  0  0  0  0  0  0  0  0  0  0  0  0  # atno 4297 bound_to 1298
    3.3331   -9.4748    3.8555 LP  0  0  0  0  0  0  0  0  0  0  0  0  # atno 4298 bound_to 1298
    0.3307   -8.7575    7.5512 LP  0  0  0  0  0  0  0  0  0  0  0  0  # atno 4299 bound_to 2456
    1.6977   -9.1040    8.3745 LP  0  0  0  0  0  0  0  0  0  0  0  0  # atno 4300 bound_to 2456
    2.1847   -7.4321    5.3512 LP  0  0  0  0  0  0  0  0  0  0  0  0  # atno 4301 bound_to 2510
    2.8321   -8.6030    4.4151 LP  0  0  0  0  0  0  0  0  0  0  0  0  # atno 4302 bound_to 2510
   -2.8118  -17.7361   14.7586 LP  0  0  0  0  0  0  0  0  0  0  0  0  # atno 4306 bound_to 3712
   -3.5629  -16.5560   13.9162 LP  0  0  0  0  0  0  0  0  0  0  0  0  # atno 4307 bound_to 3712
    2.9858  -21.0111    8.9428 LP  0  0  0  0  0  0  0  0  0  0  0  0  # atno 4314 bound_to 3832
    1.5037  -20.5171    9.4182 LP  0  0  0  0  0  0  0  0  0  0  0  0  # atno 4315 bound_to 3832
   -5.0031  -21.9279   11.4196 LP  0  0  0  0  0  0  0  0  0  0  0  0  # atno 4318 bound_to 3762
   -3.9160  -23.0924   11.0604 LP  0  0  0  0  0  0  0  0  0  0  0  0  # atno 4319 bound_to 3762
   -3.6346   -5.0417    8.5851 LP  0  0  0  0  0  0  0  0  0  0  0  0  # atno 4320 bound_to 2467
   -5.0465   -5.4529    9.2950 LP  0  0  0  0  0  0  0  0  0  0  0  0  # atno 4321 bound_to 2467

> <Gold.Score>
     Score     S(PLP)   S(hbond)     S(cho)   S(metal)  DE(clash)   DE(tors)     intcor
     43.24     -40.46       1.00       0.00       0.00       0.00       1.17       2.13

> <Gold.PLP.Fitness>
43.2384

> <Gold.PLP.PLP>
-40.4606

> <Gold.PLP.part.hbond>
-1.0000

> <Gold.PLP.part.metal>
0.0000

> <Gold.PLP.part.buried>
-6.4070

> <Gold.PLP.part.nonpolar>
-34.9689

> <Gold.PLP.part.repulsive>
0.2205

> <Gold.PLP.ligand.clash>
0.0000

> <Gold.PLP.ligand.torsion>
1.1744

> <Gold.PLP.Chemscore.Hbond>
1.0000

> <Gold.PLP.Chemscore.CHOScore>
0.0000

> <Gold.PLP.Chemscore.Metal>
0.0000

> <Gold.Chemscore.Hbonds>
donor molecule, donor type, donor heavy atom, donor atom, acceptor molecule, acceptor atom, score
      P1  H  3712  3721       L1     1  1.00

> <Gold.PLP.Chemscore.Internal.Correction>
2.1267

