#       Name:                EN300-315786_i001
#       Creating user name   fsindt
#       Creation time:       Tue Feb 28 19:15:06 2023


#       File generated by GOLD software.
#

@<TRIPOS>MOLECULE
EN300-315786_i001|acide_2|mol2|6664|dock16
    29    30     1
SMALL
USER_CHARGES


@<TRIPOS>ATOM
      1 O1           1.2633 -13.0201   8.0593 O.co2          1 <1>               -1.0000
      2 C2           0.3606 -12.8877   8.8732 C.2            1 <1>                0.0000
      3 O3          -0.5257 -12.0691   8.6754 O.co2          1 <1>                0.0000
      4 C4           0.3375 -13.7215  10.0931 C.ar           1 <1>                0.0000
      5 C5           1.3368 -14.6734  10.3078 C.ar           1 <1>                0.0000
      6 C6           1.3146 -15.4506  11.4457 C.ar           1 <1>                0.0000
      7 C7           0.2941 -15.2869  12.3832 C.ar           1 <1>                0.0000
      8 C8          -0.7046 -14.3361  12.1693 C.ar           1 <1>                0.0000
      9 C9          -0.6805 -13.5541  11.0346 C.ar           1 <1>                0.0000
     10 C10          0.2706 -16.1228  13.6054 C.2            1 <1>                0.0000
     11 O11          0.3511 -15.6011  14.7000 O.2            1 <1>                0.0000
     12 N12          0.1600 -17.4621  13.5038 N.am           1 <1>                0.0000
     13 C13          0.1447 -18.1234  12.1892 C.3            1 <1>                0.0000
     14 C14          1.1757 -19.2576  12.2065 C.3            1 <1>                0.0000
     15 O15          0.9364 -20.0941  13.3408 O.3            1 <1>                0.0000
     16 C16          1.0872 -19.4318  14.5987 C.3            1 <1>                0.0000
     17 C17          0.0572 -18.3070  14.7042 C.3            1 <1>                0.0000
     18 H18          2.1265 -14.8005   9.5822 H              1 <1>                0.0000
     19 H19          2.0871 -16.1870  11.6117 H              1 <1>                0.0000
     20 H20         -1.4944 -14.2101  12.8951 H              1 <1>                0.0000
     21 H21         -1.4533 -12.8180  10.8693 H              1 <1>                0.0000
     22 H22         -0.8472 -18.5318  11.9953 H              1 <1>                0.0000
     23 H23          0.4039 -17.4034  11.4130 H              1 <1>                0.0000
     24 H24          1.0844 -19.8467  11.2939 H              1 <1>                0.0000
     25 H25          2.1792 -18.8366  12.2700 H              1 <1>                0.0000
     26 H26          0.9320 -20.1462  15.4073 H              1 <1>                0.0000
     27 H27          2.0902 -19.0114  14.6708 H              1 <1>                0.0000
     28 H28          0.2561 -17.7092  15.5937 H              1 <1>                0.0000
     29 H29         -0.9451 -18.7313  14.7629 H              1 <1>                0.0000
@<TRIPOS>BOND
    1    1    2 ar    
    2    2    3 ar    
    3    2    4 1     
    4    4    5 ar    
    5    4    9 ar    
    6    5    6 ar    
    7    5   18 1     
    8    6    7 ar    
    9    6   19 1     
   10    7    8 ar    
   11    7   10 1     
   12    8    9 ar    
   13    8   20 1     
   14    9   21 1     
   15   10   11 2     
   16   10   12 am    
   17   12   13 1     
   18   12   17 1     
   19   13   14 1     
   20   13   22 1     
   21   13   23 1     
   22   14   15 1     
   23   14   24 1     
   24   14   25 1     
   25   15   16 1     
   26   16   17 1     
   27   16   26 1     
   28   16   27 1     
   29   17   28 1     
   30   17   29 1     
@<TRIPOS>SUBSTRUCTURE
      1 ****           1
@<TRIPOS>COMMENT
> <Gold.Version>
2022.2.0

> <Gold.Id.Protein>
3pbl|protein|mol2

> <Gold.Protein.RotatedTorsions>
[ 1303 1298 1297 1294 ] final  -84.95 input  179.99 | X-H torsion
[ 2461 2456 2455 2452 ] final   55.70 input   30.03 | X-H torsion
[ 2515 2510 2509 2506 ] final   48.95 input  -89.99 | X-H torsion
[ 3721 3712 3711 3710 ] final  167.44 input -179.91 | X-H torsion
[ 3841 3832 3831 3830 ] final   76.67 input -179.91 | X-H torsion
[ 3767 3762 3761 3758 ] final  140.25 input  -89.99 | X-H torsion
[ 2472 2467 2466 2463 ] final -144.98 input  -89.97 | X-H torsion

> <Gold.Protein.ActiveResidues>
 VAL82   VAL86   LEU89   PHE106  VAL107  ASP110  VAL111  MET112  CYS114  THR115 
 CYS181  SER182  ILE183  PHE188  VAL189  ILE190  SER192  SER193  SER196  TRP342 
 PHE345  PHE346  HIS349  VAL350  TYR365  THR369  GLY372  TYR373 

> <Gold.Protein.RotatedAtoms>
    3.7629   -8.6736    3.8440 H   0  0  0  0  0  0  0  0  0  0  0  0  # atno 1303 bound_to 1298
    1.8676   -8.0044    7.3354 H   0  0  0  0  0  0  0  0  0  0  0  0  # atno 2461 bound_to 2456
   -4.9030   -5.4630    9.3646 H   0  0  0  0  0  0  0  0  0  0  0  0  # atno 2472 bound_to 2467
    2.2105   -7.4189    5.2837 H   0  0  0  0  0  0  0  0  0  0  0  0  # atno 2515 bound_to 2510
   -3.2856  -16.6961   13.3831 H   0  0  0  0  0  0  0  0  0  0  0  0  # atno 3721 bound_to 3712
   -3.9066  -23.0045   11.1750 H   0  0  0  0  0  0  0  0  0  0  0  0  # atno 3767 bound_to 3762
    2.6883  -20.9544    9.3881 H   0  0  0  0  0  0  0  0  0  0  0  0  # atno 3841 bound_to 3832
    4.9109   -9.2366    4.8596 LP  0  0  0  0  0  0  0  0  0  0  0  0  # atno 4297 bound_to 1298
    3.6885  -10.2113    4.3883 LP  0  0  0  0  0  0  0  0  0  0  0  0  # atno 4298 bound_to 1298
    0.3533   -8.6111    7.4128 LP  0  0  0  0  0  0  0  0  0  0  0  0  # atno 4299 bound_to 2456
    1.5170   -9.1925    8.3998 LP  0  0  0  0  0  0  0  0  0  0  0  0  # atno 4300 bound_to 2456
    2.8352   -8.6712    4.4427 LP  0  0  0  0  0  0  0  0  0  0  0  0  # atno 4301 bound_to 2510
    2.2511   -8.9094    5.9489 LP  0  0  0  0  0  0  0  0  0  0  0  0  # atno 4302 bound_to 2510
   -2.6707  -18.1699   13.5500 LP  0  0  0  0  0  0  0  0  0  0  0  0  # atno 4306 bound_to 3712
   -3.0637  -17.2805   14.8620 LP  0  0  0  0  0  0  0  0  0  0  0  0  # atno 4307 bound_to 3712
    1.3940  -20.0582    9.0754 LP  0  0  0  0  0  0  0  0  0  0  0  0  # atno 4314 bound_to 3832
    2.7300  -19.9416    8.1437 LP  0  0  0  0  0  0  0  0  0  0  0  0  # atno 4315 bound_to 3832
   -5.1068  -22.9554   10.0687 LP  0  0  0  0  0  0  0  0  0  0  0  0  # atno 4318 bound_to 3762
   -5.1137  -21.9152   11.3275 LP  0  0  0  0  0  0  0  0  0  0  0  0  # atno 4319 bound_to 3762
   -5.1669   -4.9417    7.8398 LP  0  0  0  0  0  0  0  0  0  0  0  0  # atno 4320 bound_to 2467
   -3.6470   -4.9890    8.4350 LP  0  0  0  0  0  0  0  0  0  0  0  0  # atno 4321 bound_to 2467

> <Gold.Score>
     Score     S(PLP)   S(hbond)     S(cho)   S(metal)  DE(clash)   DE(tors)     intcor
     41.00     -38.20       1.00       0.00       0.00       0.00       1.16       2.13

> <Gold.PLP.Fitness>
41.0015

> <Gold.PLP.PLP>
-38.2042

> <Gold.PLP.part.hbond>
-1.0000

> <Gold.PLP.part.metal>
0.0000

> <Gold.PLP.part.buried>
-4.0305

> <Gold.PLP.part.nonpolar>
-34.2256

> <Gold.PLP.part.repulsive>
0.1365

> <Gold.PLP.ligand.clash>
0.0000

> <Gold.PLP.ligand.torsion>
1.1647

> <Gold.PLP.Chemscore.Hbond>
1.0000

> <Gold.PLP.Chemscore.CHOScore>
0.0000

> <Gold.PLP.Chemscore.Metal>
0.0000

> <Gold.Chemscore.Hbonds>
donor molecule, donor type, donor heavy atom, donor atom, acceptor molecule, acceptor atom, score
      P1  H  2305  2313       L1    11  1.00

> <Gold.PLP.Chemscore.Internal.Correction>
2.1267

