#       Name:                EN300-315786_i001
#       Creating user name   fsindt
#       Creation time:       Tue Feb 28 19:15:03 2023


#       File generated by GOLD software.
#

@<TRIPOS>MOLECULE
EN300-315786_i001|acide_2|mol2|6664|dock13
    29    30     1
SMALL
USER_CHARGES


@<TRIPOS>ATOM
      1 O1          -2.0323 -11.4171   9.6869 O.co2          1 <1>               -1.0000
      2 C2          -0.8528 -11.7216   9.5834 C.2            1 <1>                0.0000
      3 O3          -0.1023 -11.0377   8.9023 O.co2          1 <1>                0.0000
      4 C4          -0.3329 -12.9129  10.2865 C.ar           1 <1>                0.0000
      5 C5          -1.0075 -13.4163  11.4009 C.ar           1 <1>                0.0000
      6 C6          -0.5221 -14.5274  12.0561 C.ar           1 <1>                0.0000
      7 C7           0.6432 -15.1494  11.6064 C.ar           1 <1>                0.0000
      8 C8           1.3178 -14.6470  10.4930 C.ar           1 <1>                0.0000
      9 C9           0.8303 -13.5394   9.8333 C.ar           1 <1>                0.0000
     10 C10          1.1645 -16.3429  12.3113 C.2            1 <1>                0.0000
     11 O11          2.1971 -16.2699  12.9478 O.2            1 <1>                0.0000
     12 N12          0.4937 -17.5101  12.2470 N.am           1 <1>                0.0000
     13 C13         -0.7132 -17.6454  11.4160 C.3            1 <1>                0.0000
     14 C14         -0.5560 -18.8894  10.5342 C.3            1 <1>                0.0000
     15 O15         -0.2225 -20.0102  11.3565 O.3            1 <1>                0.0000
     16 C16          1.0231 -19.8803  12.0460 C.3            1 <1>                0.0000
     17 C17          0.9500 -18.6886  13.0009 C.3            1 <1>                0.0000
     18 H18         -1.9093 -12.9348  11.7494 H              1 <1>                0.0000
     19 H19         -1.0436 -14.9165  12.9183 H              1 <1>                0.0000
     20 H20          2.2198 -15.1287  10.1456 H              1 <1>                0.0000
     21 H21          1.3523 -13.1509   8.9714 H              1 <1>                0.0000
     22 H22         -1.5887 -17.7570  12.0556 H              1 <1>                0.0000
     23 H23         -0.8272 -16.7620  10.7877 H              1 <1>                0.0000
     24 H24         -1.4925 -19.0865  10.0124 H              1 <1>                0.0000
     25 H25          0.2386 -18.7222   9.8069 H              1 <1>                0.0000
     26 H26          1.2226 -20.7901  12.6120 H              1 <1>                0.0000
     27 H27          1.8233 -19.7166  11.3243 H              1 <1>                0.0000
     28 H28          1.9359 -18.4962  13.4242 H              1 <1>                0.0000
     29 H29          0.2416 -18.9024  13.8013 H              1 <1>                0.0000
@<TRIPOS>BOND
    1    1    2 ar    
    2    2    3 ar    
    3    2    4 1     
    4    4    5 ar    
    5    4    9 ar    
    6    5    6 ar    
    7    5   18 1     
    8    6    7 ar    
    9    6   19 1     
   10    7    8 ar    
   11    7   10 1     
   12    8    9 ar    
   13    8   20 1     
   14    9   21 1     
   15   10   11 2     
   16   10   12 am    
   17   12   13 1     
   18   12   17 1     
   19   13   14 1     
   20   13   22 1     
   21   13   23 1     
   22   14   15 1     
   23   14   24 1     
   24   14   25 1     
   25   15   16 1     
   26   16   17 1     
   27   16   26 1     
   28   16   27 1     
   29   17   28 1     
   30   17   29 1     
@<TRIPOS>SUBSTRUCTURE
      1 ****           1
@<TRIPOS>COMMENT
> <Gold.Version>
2022.2.0

> <Gold.Id.Protein>
3pbl|protein|mol2

> <Gold.Protein.RotatedTorsions>
[ 1303 1298 1297 1294 ] final    9.45 input  179.99 | X-H torsion
[ 2461 2456 2455 2452 ] final -139.43 input   30.03 | X-H torsion
[ 2515 2510 2509 2506 ] final  117.25 input  -89.99 | X-H torsion
[ 3721 3712 3711 3710 ] final  138.39 input -179.91 | X-H torsion
[ 3841 3832 3831 3830 ] final   52.24 input -179.91 | X-H torsion
[ 3767 3762 3761 3758 ] final  172.88 input  -89.99 | X-H torsion
[ 2472 2467 2466 2463 ] final -149.51 input  -89.97 | X-H torsion

> <Gold.Protein.ActiveResidues>
 VAL82   VAL86   LEU89   PHE106  VAL107  ASP110  VAL111  MET112  CYS114  THR115 
 CYS181  SER182  ILE183  PHE188  VAL189  ILE190  SER192  SER193  SER196  TRP342 
 PHE345  PHE346  HIS349  VAL350  TYR365  THR369  GLY372  TYR373 

> <Gold.Protein.RotatedAtoms>
    3.4444   -9.9884    4.1328 H   0  0  0  0  0  0  0  0  0  0  0  0  # atno 1303 bound_to 1298
    0.8213   -9.2679    8.2324 H   0  0  0  0  0  0  0  0  0  0  0  0  # atno 2461 bound_to 2456
   -4.9712   -5.4598    9.3349 H   0  0  0  0  0  0  0  0  0  0  0  0  # atno 2472 bound_to 2467
    2.0371   -8.1227    6.0544 H   0  0  0  0  0  0  0  0  0  0  0  0  # atno 2515 bound_to 2510
   -3.1364  -16.9989   13.1095 H   0  0  0  0  0  0  0  0  0  0  0  0  # atno 3721 bound_to 3712
   -4.0354  -22.6207   11.5167 H   0  0  0  0  0  0  0  0  0  0  0  0  # atno 3767 bound_to 3762
    2.3648  -20.9185    9.5562 H   0  0  0  0  0  0  0  0  0  0  0  0  # atno 3841 bound_to 3832
    4.1032   -8.4992    4.0121 LP  0  0  0  0  0  0  0  0  0  0  0  0  # atno 4297 bound_to 1298
    4.8148   -9.6335    4.9468 LP  0  0  0  0  0  0  0  0  0  0  0  0  # atno 4298 bound_to 1298
    2.1604   -8.4155    7.8483 LP  0  0  0  0  0  0  0  0  0  0  0  0  # atno 4299 bound_to 2456
    0.7559   -8.1249    7.0676 LP  0  0  0  0  0  0  0  0  0  0  0  0  # atno 4300 bound_to 2456
    2.5594   -7.6584    4.5788 LP  0  0  0  0  0  0  0  0  0  0  0  0  # atno 4301 bound_to 2510
    2.7004   -9.2181    5.0416 LP  0  0  0  0  0  0  0  0  0  0  0  0  # atno 4302 bound_to 2510
   -2.6071  -18.2073   14.0246 LP  0  0  0  0  0  0  0  0  0  0  0  0  # atno 4306 bound_to 3712
   -3.2996  -16.8934   14.7033 LP  0  0  0  0  0  0  0  0  0  0  0  0  # atno 4307 bound_to 3712
    1.5076  -19.8061    8.7793 LP  0  0  0  0  0  0  0  0  0  0  0  0  # atno 4314 bound_to 3832
    2.9900  -20.2351    8.2455 LP  0  0  0  0  0  0  0  0  0  0  0  0  # atno 4315 bound_to 3832
   -4.6684  -23.2425   10.1458 LP  0  0  0  0  0  0  0  0  0  0  0  0  # atno 4318 bound_to 3762
   -5.4233  -22.0118   10.9088 LP  0  0  0  0  0  0  0  0  0  0  0  0  # atno 4319 bound_to 3762
   -5.1079   -4.9207    7.7996 LP  0  0  0  0  0  0  0  0  0  0  0  0  # atno 4320 bound_to 2467
   -3.6379   -5.0131    8.5047 LP  0  0  0  0  0  0  0  0  0  0  0  0  # atno 4321 bound_to 2467

> <Gold.Score>
     Score     S(PLP)   S(hbond)     S(cho)   S(metal)  DE(clash)   DE(tors)     intcor
     42.11     -40.09       0.99       0.00       0.00       0.00       1.54       2.13

> <Gold.PLP.Fitness>
42.1132

> <Gold.PLP.PLP>
-40.0928

> <Gold.PLP.part.hbond>
-0.9945

> <Gold.PLP.part.metal>
0.0000

> <Gold.PLP.part.buried>
-6.0766

> <Gold.PLP.part.nonpolar>
-34.8835

> <Gold.PLP.part.repulsive>
0.1247

> <Gold.PLP.ligand.clash>
0.0000

> <Gold.PLP.ligand.torsion>
1.5400

> <Gold.PLP.Chemscore.Hbond>
0.9913

> <Gold.PLP.Chemscore.CHOScore>
0.0000

> <Gold.PLP.Chemscore.Metal>
0.0000

> <Gold.Chemscore.Hbonds>
donor molecule, donor type, donor heavy atom, donor atom, acceptor molecule, acceptor atom, score
      P1  H  2456  2461       L1     3  0.99

> <Gold.PLP.Chemscore.Internal.Correction>
2.1267

