#       Name:                EN300-315786_i001
#       Creating user name   fsindt
#       Creation time:       Tue Feb 28 19:14:58 2023


#       File generated by GOLD software.
#

@<TRIPOS>MOLECULE
EN300-315786_i001|acide_2|mol2|6664|dock6
    29    30     1
SMALL
USER_CHARGES


@<TRIPOS>ATOM
      1 O1           0.2535 -11.1377   9.0005 O.co2          1 <1>               -1.0000
      2 C2          -0.4686 -11.4695   9.9295 C.2            1 <1>                0.0000
      3 O3          -1.2551 -10.6660  10.4098 O.co2          1 <1>                0.0000
      4 C4          -0.3953 -12.8438  10.4680 C.ar           1 <1>                0.0000
      5 C5           0.2634 -13.8424   9.7471 C.ar           1 <1>                0.0000
      6 C6           0.3315 -15.1238  10.2498 C.ar           1 <1>                0.0000
      7 C7          -0.2576 -15.4238  11.4787 C.ar           1 <1>                0.0000
      8 C8          -0.9159 -14.4266  12.1994 C.ar           1 <1>                0.0000
      9 C9          -0.9797 -13.1434  11.7006 C.ar           1 <1>                0.0000
     10 C10         -0.1846 -16.8011  12.0180 C.2            1 <1>                0.0000
     11 O11         -1.1048 -17.5739  11.8375 O.2            1 <1>                0.0000
     12 N12          0.9026 -17.1975  12.7089 N.am           1 <1>                0.0000
     13 C13          1.9925 -16.2563  13.0116 C.3            1 <1>                0.0000
     14 C14          2.3002 -16.3391  14.5111 C.3            1 <1>                0.0000
     15 O15          2.5222 -17.7045  14.8714 O.3            1 <1>                0.0000
     16 C16          1.3890 -18.5535  14.6743 C.3            1 <1>                0.0000
     17 C17          1.0320 -18.5828  13.1881 C.3            1 <1>                0.0000
     18 H18          0.7191 -13.6105   8.7958 H              1 <1>                0.0000
     19 H19          0.8405 -15.8962   9.6923 H              1 <1>                0.0000
     20 H20         -1.3719 -14.6595  13.1503 H              1 <1>                0.0000
     21 H21         -1.4890 -12.3716  12.2587 H              1 <1>                0.0000
     22 H22          2.8801 -16.5260  12.4393 H              1 <1>                0.0000
     23 H23          1.6840 -15.2427  12.7555 H              1 <1>                0.0000
     24 H24          3.1931 -15.7543  14.7324 H              1 <1>                0.0000
     25 H25          1.4566 -15.9454  15.0782 H              1 <1>                0.0000
     26 H26          1.6263 -19.5620  15.0129 H              1 <1>                0.0000
     27 H27          0.5421 -18.1679  15.2419 H              1 <1>                0.0000
     28 H28          0.0890 -19.1111  13.0473 H              1 <1>                0.0000
     29 H29          1.8221 -19.0859  12.6306 H              1 <1>                0.0000
@<TRIPOS>BOND
    1    1    2 ar    
    2    2    3 ar    
    3    2    4 1     
    4    4    5 ar    
    5    4    9 ar    
    6    5    6 ar    
    7    5   18 1     
    8    6    7 ar    
    9    6   19 1     
   10    7    8 ar    
   11    7   10 1     
   12    8    9 ar    
   13    8   20 1     
   14    9   21 1     
   15   10   11 2     
   16   10   12 am    
   17   12   13 1     
   18   12   17 1     
   19   13   14 1     
   20   13   22 1     
   21   13   23 1     
   22   14   15 1     
   23   14   24 1     
   24   14   25 1     
   25   15   16 1     
   26   16   17 1     
   27   16   26 1     
   28   16   27 1     
   29   17   28 1     
   30   17   29 1     
@<TRIPOS>SUBSTRUCTURE
      1 ****           1
@<TRIPOS>COMMENT
> <Gold.Version>
2022.2.0

> <Gold.Id.Protein>
3pbl|protein|mol2

> <Gold.Protein.RotatedTorsions>
[ 1303 1298 1297 1294 ] final   47.27 input  179.99 | X-H torsion
[ 2461 2456 2455 2452 ] final -139.16 input   30.03 | X-H torsion
[ 2515 2510 2509 2506 ] final  -74.58 input  -89.99 | X-H torsion
[ 3721 3712 3711 3710 ] final   83.45 input -179.91 | X-H torsion
[ 3841 3832 3831 3830 ] final  -20.27 input -179.91 | X-H torsion
[ 3767 3762 3761 3758 ] final -173.11 input  -89.99 | X-H torsion
[ 2472 2467 2466 2463 ] final   41.42 input  -89.97 | X-H torsion

> <Gold.Protein.ActiveResidues>
 VAL82   VAL86   LEU89   PHE106  VAL107  ASP110  VAL111  MET112  CYS114  THR115 
 CYS181  SER182  ILE183  PHE188  VAL189  ILE190  SER192  SER193  SER196  TRP342 
 PHE345  PHE346  HIS349  VAL350  TYR365  THR369  GLY372  TYR373 

> <Gold.Protein.RotatedAtoms>
    3.8383  -10.2608    4.5122 H   0  0  0  0  0  0  0  0  0  0  0  0  # atno 1303 bound_to 1298
    0.8174   -9.2671    8.2302 H   0  0  0  0  0  0  0  0  0  0  0  0  # atno 2461 bound_to 2456
   -4.3414   -4.7993    7.6946 H   0  0  0  0  0  0  0  0  0  0  0  0  # atno 2472 bound_to 2467
    2.8359   -8.7235    4.4682 H   0  0  0  0  0  0  0  0  0  0  0  0  # atno 2515 bound_to 2510
   -2.7370  -17.6899   13.1489 H   0  0  0  0  0  0  0  0  0  0  0  0  # atno 3721 bound_to 3712
   -4.1609  -22.4488   11.6037 H   0  0  0  0  0  0  0  0  0  0  0  0  # atno 3767 bound_to 3762
    1.6030  -20.2469    9.4265 H   0  0  0  0  0  0  0  0  0  0  0  0  # atno 3841 bound_to 3832
    3.6218   -8.8086    3.7976 LP  0  0  0  0  0  0  0  0  0  0  0  0  # atno 4297 bound_to 1298
    4.9021   -9.0516    4.7816 LP  0  0  0  0  0  0  0  0  0  0  0  0  # atno 4298 bound_to 1298
    2.1606   -8.4187    7.8515 LP  0  0  0  0  0  0  0  0  0  0  0  0  # atno 4299 bound_to 2456
    0.7596   -8.1225    7.0666 LP  0  0  0  0  0  0  0  0  0  0  0  0  # atno 4300 bound_to 2456
    2.2292   -8.8636    5.9775 LP  0  0  0  0  0  0  0  0  0  0  0  0  # atno 4301 bound_to 2510
    2.2315   -7.4118    5.2299 LP  0  0  0  0  0  0  0  0  0  0  0  0  # atno 4302 bound_to 2510
   -2.8059  -17.7473   14.7520 LP  0  0  0  0  0  0  0  0  0  0  0  0  # atno 4306 bound_to 3712
   -3.5618  -16.5556   13.9304 LP  0  0  0  0  0  0  0  0  0  0  0  0  # atno 4307 bound_to 3712
    2.4503  -19.7592    8.1536 LP  0  0  0  0  0  0  0  0  0  0  0  0  # atno 4314 bound_to 3832
    2.9273  -21.0579    9.0210 LP  0  0  0  0  0  0  0  0  0  0  0  0  # atno 4315 bound_to 3832
   -4.4758  -23.3093   10.2520 LP  0  0  0  0  0  0  0  0  0  0  0  0  # atno 4318 bound_to 3762
   -5.4905  -22.1168   10.7156 LP  0  0  0  0  0  0  0  0  0  0  0  0  # atno 4319 bound_to 3762
   -3.9006   -5.2886    9.1889 LP  0  0  0  0  0  0  0  0  0  0  0  0  # atno 4320 bound_to 2467
   -5.4749   -5.3056    8.7555 LP  0  0  0  0  0  0  0  0  0  0  0  0  # atno 4321 bound_to 2467

> <Gold.Score>
     Score     S(PLP)   S(hbond)     S(cho)   S(metal)  DE(clash)   DE(tors)     intcor
     43.33     -38.37       2.00       0.00       0.00       0.00       1.58       2.13

> <Gold.PLP.Fitness>
43.3261

> <Gold.PLP.PLP>
-38.3687

> <Gold.PLP.part.hbond>
-2.0000

> <Gold.PLP.part.metal>
0.0000

> <Gold.PLP.part.buried>
-4.6762

> <Gold.PLP.part.nonpolar>
-32.8184

> <Gold.PLP.part.repulsive>
0.1764

> <Gold.PLP.ligand.clash>
0.0000

> <Gold.PLP.ligand.torsion>
1.5847

> <Gold.PLP.Chemscore.Hbond>
2.0000

> <Gold.PLP.Chemscore.CHOScore>
0.0000

> <Gold.PLP.Chemscore.Metal>
0.0000

> <Gold.Chemscore.Hbonds>
donor molecule, donor type, donor heavy atom, donor atom, acceptor molecule, acceptor atom, score
      P1  H  2456  2461       L1     1  1.00
      P1  H  3712  3721       L1    11  1.00

> <Gold.PLP.Chemscore.Internal.Correction>
2.1267

