#       Name:                EN300-315786_i001
#       Creating user name   fsindt
#       Creation time:       Tue Feb 28 19:15:07 2023


#       File generated by GOLD software.
#

@<TRIPOS>MOLECULE
EN300-315786_i001|acide_2|mol2|6664|dock17
    29    30     1
SMALL
USER_CHARGES


@<TRIPOS>ATOM
      1 O1          -0.5388 -17.7526  15.0387 O.co2          1 <1>               -1.0000
      2 C2           0.5429 -17.4786  14.5392 C.2            1 <1>                0.0000
      3 O3           1.5679 -17.9629  14.9971 O.co2          1 <1>                0.0000
      4 C4           0.6109 -16.5668  13.3782 C.ar           1 <1>                0.0000
      5 C5          -0.5649 -16.0956  12.7900 C.ar           1 <1>                0.0000
      6 C6          -0.5008 -15.2454  11.7073 C.ar           1 <1>                0.0000
      7 C7           0.7386 -14.8552  11.1986 C.ar           1 <1>                0.0000
      8 C8           1.9138 -15.3255  11.7858 C.ar           1 <1>                0.0000
      9 C9           1.8512 -16.1713  12.8722 C.ar           1 <1>                0.0000
     10 C10          0.8067 -13.9419  10.0348 C.2            1 <1>                0.0000
     11 O11          1.3995 -14.2815   9.0298 O.2            1 <1>                0.0000
     12 N12          0.2113 -12.7341  10.0902 N.am           1 <1>                0.0000
     13 C13          0.1940 -11.8436   8.9188 C.3            1 <1>                0.0000
     14 C14         -1.2487 -11.3822   8.6834 C.3            1 <1>                0.0000
     15 O15         -1.7747 -10.8431   9.8985 O.3            1 <1>                0.0000
     16 C16         -1.8531 -11.7850  10.9711 C.3            1 <1>                0.0000
     17 C17         -0.4461 -12.2694  11.3220 C.3            1 <1>                0.0000
     18 H18         -1.5243 -16.3979  13.1833 H              1 <1>                0.0000
     19 H19         -1.4101 -14.8813  11.2521 H              1 <1>                0.0000
     20 H20          2.8728 -15.0234  11.3913 H              1 <1>                0.0000
     21 H21          2.7608 -16.5350  13.3267 H              1 <1>                0.0000
     22 H22          0.8302 -10.9785   9.1059 H              1 <1>                0.0000
     23 H23          0.5548 -12.3824   8.0427 H              1 <1>                0.0000
     24 H24         -1.2641 -10.6158   7.9084 H              1 <1>                0.0000
     25 H25         -1.8558 -12.2312   8.3690 H              1 <1>                0.0000
     26 H26         -2.3031 -11.3085  11.8420 H              1 <1>                0.0000
     27 H27         -2.4622 -12.6355  10.6649 H              1 <1>                0.0000
     28 H28         -0.5078 -13.0886  12.0383 H              1 <1>                0.0000
     29 H29          0.1285 -11.4484  11.7509 H              1 <1>                0.0000
@<TRIPOS>BOND
    1    1    2 ar    
    2    2    3 ar    
    3    2    4 1     
    4    4    5 ar    
    5    4    9 ar    
    6    5    6 ar    
    7    5   18 1     
    8    6    7 ar    
    9    6   19 1     
   10    7    8 ar    
   11    7   10 1     
   12    8    9 ar    
   13    8   20 1     
   14    9   21 1     
   15   10   11 2     
   16   10   12 am    
   17   12   13 1     
   18   12   17 1     
   19   13   14 1     
   20   13   22 1     
   21   13   23 1     
   22   14   15 1     
   23   14   24 1     
   24   14   25 1     
   25   15   16 1     
   26   16   17 1     
   27   16   26 1     
   28   16   27 1     
   29   17   28 1     
   30   17   29 1     
@<TRIPOS>SUBSTRUCTURE
      1 ****           1
@<TRIPOS>COMMENT
> <Gold.Version>
2022.2.0

> <Gold.Id.Protein>
3pbl|protein|mol2

> <Gold.Protein.RotatedTorsions>
[ 1303 1298 1297 1294 ] final  -44.81 input  179.99 | X-H torsion
[ 2461 2456 2455 2452 ] final   32.79 input   30.03 | X-H torsion
[ 2515 2510 2509 2506 ] final   -3.21 input  -89.99 | X-H torsion
[ 3721 3712 3711 3710 ] final  -11.31 input -179.91 | X-H torsion
[ 3841 3832 3831 3830 ] final   50.81 input -179.91 | X-H torsion
[ 3767 3762 3761 3758 ] final  -15.87 input  -89.99 | X-H torsion
[ 2472 2467 2466 2463 ] final  -11.57 input  -89.97 | X-H torsion

> <Gold.Protein.ActiveResidues>
 VAL82   VAL86   LEU89   PHE106  VAL107  ASP110  VAL111  MET112  CYS114  THR115 
 CYS181  SER182  ILE183  PHE188  VAL189  ILE190  SER192  SER193  SER196  TRP342 
 PHE345  PHE346  HIS349  VAL350  TYR365  THR369  GLY372  TYR373 

> <Gold.Protein.RotatedAtoms>
    3.3923   -9.2012    3.7911 H   0  0  0  0  0  0  0  0  0  0  0  0  # atno 1303 bound_to 1298
    1.5568   -7.9209    7.1435 H   0  0  0  0  0  0  0  0  0  0  0  0  # atno 2461 bound_to 2456
   -3.7075   -4.9238    8.2334 H   0  0  0  0  0  0  0  0  0  0  0  0  # atno 2472 bound_to 2467
    2.5625   -7.6637    4.5745 H   0  0  0  0  0  0  0  0  0  0  0  0  # atno 2515 bound_to 2510
   -2.5187  -17.8782   14.3907 H   0  0  0  0  0  0  0  0  0  0  0  0  # atno 3721 bound_to 3712
   -5.4408  -22.5205   10.2715 H   0  0  0  0  0  0  0  0  0  0  0  0  # atno 3767 bound_to 3762
    2.3453  -20.9127    9.5631 H   0  0  0  0  0  0  0  0  0  0  0  0  # atno 3841 bound_to 3832
    4.7527   -8.6966    4.5401 LP  0  0  0  0  0  0  0  0  0  0  0  0  # atno 4297 bound_to 1298
    4.2175  -10.2236    4.7606 LP  0  0  0  0  0  0  0  0  0  0  0  0  # atno 4298 bound_to 1298
    0.3449   -8.8775    7.6760 LP  0  0  0  0  0  0  0  0  0  0  0  0  # atno 4299 bound_to 2456
    1.8361   -9.0096    8.3285 LP  0  0  0  0  0  0  0  0  0  0  0  0  # atno 4300 bound_to 2456
    2.6980   -9.2202    5.0484 LP  0  0  0  0  0  0  0  0  0  0  0  0  # atno 4301 bound_to 2510
    2.0362   -8.1155    6.0526 LP  0  0  0  0  0  0  0  0  0  0  0  0  # atno 4302 bound_to 2510
   -3.4985  -16.6102   14.2907 LP  0  0  0  0  0  0  0  0  0  0  0  0  # atno 4306 bound_to 3712
   -3.1213  -17.4753   12.9581 LP  0  0  0  0  0  0  0  0  0  0  0  0  # atno 4307 bound_to 3712
    1.5187  -19.7943    8.7618 LP  0  0  0  0  0  0  0  0  0  0  0  0  # atno 4314 bound_to 3832
    3.0015  -20.2537    8.2550 LP  0  0  0  0  0  0  0  0  0  0  0  0  # atno 4315 bound_to 3832
   -4.6277  -22.0686   11.6137 LP  0  0  0  0  0  0  0  0  0  0  0  0  # atno 4318 bound_to 3762
   -4.0591  -23.2860   10.6857 LP  0  0  0  0  0  0  0  0  0  0  0  0  # atno 4319 bound_to 3762
   -4.6904   -5.4595    9.4222 LP  0  0  0  0  0  0  0  0  0  0  0  0  # atno 4320 bound_to 2467
   -5.3189   -5.0102    7.9835 LP  0  0  0  0  0  0  0  0  0  0  0  0  # atno 4321 bound_to 2467

> <Gold.Score>
     Score     S(PLP)   S(hbond)     S(cho)   S(metal)  DE(clash)   DE(tors)     intcor
     42.39     -39.42       1.00       0.00       0.00       0.00       1.08       2.13

> <Gold.PLP.Fitness>
42.3936

> <Gold.PLP.PLP>
-39.4216

> <Gold.PLP.part.hbond>
-1.0000

> <Gold.PLP.part.metal>
0.0000

> <Gold.PLP.part.buried>
-4.9764

> <Gold.PLP.part.nonpolar>
-34.5056

> <Gold.PLP.part.repulsive>
0.2603

> <Gold.PLP.ligand.clash>
0.0000

> <Gold.PLP.ligand.torsion>
1.0773

> <Gold.PLP.Chemscore.Hbond>
1.0000

> <Gold.PLP.Chemscore.CHOScore>
0.0000

> <Gold.PLP.Chemscore.Metal>
0.0000

> <Gold.Chemscore.Hbonds>
donor molecule, donor type, donor heavy atom, donor atom, acceptor molecule, acceptor atom, score
      P1  H  3712  3721       L1     1  1.00

> <Gold.PLP.Chemscore.Internal.Correction>
2.1267

