#       Name:                EN300-315786_i001
#       Creating user name   fsindt
#       Creation time:       Tue Feb 28 19:14:55 2023


#       File generated by GOLD software.
#

@<TRIPOS>MOLECULE
EN300-315786_i001
    29    30     1
SMALL
USER_CHARGES


@<TRIPOS>ATOM
      1 O1          -5.3035   1.2189   0.6151 O.co2          1 <1>               -1.0000
      2 C2          -4.8605   0.3439  -0.1149 C.2            1 <1>                0.0000
      3 O3          -5.5830  -0.1777  -0.9520 O.co2          1 <1>                0.0000
      4 C4          -3.4500  -0.0789   0.0104 C.ar           1 <1>                0.0000
      5 C5          -2.6228   0.5208   0.9626 C.ar           1 <1>                0.0000
      6 C6          -1.3075   0.1260   1.0789 C.ar           1 <1>                0.0000
      7 C7          -0.8021  -0.8726   0.2456 C.ar           1 <1>                0.0000
      8 C8          -1.6280  -1.4722  -0.7060 C.ar           1 <1>                0.0000
      9 C9          -2.9451  -1.0824  -0.8195 C.ar           1 <1>                0.0000
     10 C10          0.6115  -1.2959   0.3708 C.2            1 <1>                0.0000
     11 O11          0.8885  -2.4773   0.4360 O.2            1 <1>                0.0000
     12 N12          1.5908  -0.3709   0.4124 N.am           1 <1>                0.0000
     13 C13          3.0071  -0.7684   0.4528 C.3            1 <1>                0.0000
     14 C14          3.7572   0.0036  -0.6386 C.3            1 <1>                0.0000
     15 O15          3.4856   1.4001  -0.4987 O.3            1 <1>                0.0000
     16 C16          2.1100   1.7490  -0.6715 C.3            1 <1>                0.0000
     17 C17          1.2756   1.0665   0.4126 C.3            1 <1>                0.0000
     18 H18         -3.0137   1.2940   1.6074 H              1 <1>                0.0000
     19 H19         -0.6676   0.5900   1.8150 H              1 <1>                0.0000
     20 H20         -1.2361  -2.2448  -1.3509 H              1 <1>                0.0000
     21 H21         -3.5843  -1.5468  -1.5558 H              1 <1>                0.0000
     22 H22          3.4284  -0.5271   1.4287 H              1 <1>                0.0000
     23 H23          3.0931  -1.8395   0.2700 H              1 <1>                0.0000
     24 H24          4.8284  -0.1709  -0.5372 H              1 <1>                0.0000
     25 H25          3.4236  -0.3357  -1.6193 H              1 <1>                0.0000
     26 H26          1.9960   2.8302  -0.5936 H              1 <1>                0.0000
     27 H27          1.7704   1.4160  -1.6522 H              1 <1>                0.0000
     28 H28          0.2153   1.2113   0.2055 H              1 <1>                0.0000
     29 H29          1.5213   1.4904   1.3863 H              1 <1>                0.0000
@<TRIPOS>BOND
    1    1    2 ar    
    2    2    3 ar    
    3    2    4 1     
    4    4    5 ar    
    5    4    9 ar    
    6    5    6 ar    
    7    5   18 1     
    8    6    7 ar    
    9    6   19 1     
   10    7    8 ar    
   11    7   10 1     
   12    8    9 ar    
   13    8   20 1     
   14    9   21 1     
   15   10   11 2     
   16   10   12 am    
   17   12   13 1     
   18   12   17 1     
   19   13   14 1     
   20   13   22 1     
   21   13   23 1     
   22   14   15 1     
   23   14   24 1     
   24   14   25 1     
   25   15   16 1     
   26   16   17 1     
   27   16   26 1     
   28   16   27 1     
   29   17   28 1     
   30   17   29 1     
@<TRIPOS>SUBSTRUCTURE
      1 ****           1
