#       Name:                EN300-315786_i001
#       Creating user name   fsindt
#       Creation time:       Tue Feb 28 19:15:02 2023


#       File generated by GOLD software.
#

@<TRIPOS>MOLECULE
EN300-315786_i001|acide_2|mol2|6664|dock12
    29    30     1
SMALL
USER_CHARGES


@<TRIPOS>ATOM
      1 O1          -1.3470 -18.6446   8.3431 O.co2          1 <1>               -1.0000
      2 C2          -0.6251 -18.1724   9.2095 C.2            1 <1>                0.0000
      3 O3          -0.0733 -18.9094  10.0140 O.co2          1 <1>                0.0000
      4 C4          -0.4147 -16.7114   9.2806 C.ar           1 <1>                0.0000
      5 C5          -0.2275 -16.0918  10.5182 C.ar           1 <1>                0.0000
      6 C6          -0.0313 -14.7292  10.5836 C.ar           1 <1>                0.0000
      7 C7          -0.0197 -13.9686   9.4139 C.ar           1 <1>                0.0000
      8 C8          -0.2067 -14.5870   8.1770 C.ar           1 <1>                0.0000
      9 C9          -0.3973 -15.9503   8.1096 C.ar           1 <1>                0.0000
     10 C10          0.1906 -12.5044   9.4851 C.2            1 <1>                0.0000
     11 O11          1.1512 -12.0012   8.9367 O.2            1 <1>                0.0000
     12 N12         -0.6833 -11.7300  10.1581 N.am           1 <1>                0.0000
     13 C13         -0.5419 -10.2653  10.1734 C.3            1 <1>                0.0000
     14 C14         -1.8912  -9.6453   9.7929 C.3            1 <1>                0.0000
     15 O15         -2.9134 -10.1931  10.6287 O.3            1 <1>                0.0000
     16 C16         -3.0951 -11.6037  10.4829 C.3            1 <1>                0.0000
     17 C17         -1.8107 -12.3237  10.8942 C.3            1 <1>                0.0000
     18 H18         -0.2367 -16.6803  11.4237 H              1 <1>                0.0000
     19 H19          0.1132 -14.2499  11.5407 H              1 <1>                0.0000
     20 H20         -0.1981 -13.9976   7.2720 H              1 <1>                0.0000
     21 H21         -0.5417 -16.4288   7.1522 H              1 <1>                0.0000
     22 H22         -0.2543  -9.9348  11.1715 H              1 <1>                0.0000
     23 H23          0.2177  -9.9623   9.4528 H              1 <1>                0.0000
     24 H24         -1.8475  -8.5650   9.9317 H              1 <1>                0.0000
     25 H25         -2.1141  -9.8704   8.7499 H              1 <1>                0.0000
     26 H26         -3.9176 -11.9324  11.1182 H              1 <1>                0.0000
     27 H27         -3.3224 -11.8359   9.4425 H              1 <1>                0.0000
     28 H28         -1.8908 -13.3838  10.6533 H              1 <1>                0.0000
     29 H29         -1.6480 -12.2013  11.9650 H              1 <1>                0.0000
@<TRIPOS>BOND
    1    1    2 ar    
    2    2    3 ar    
    3    2    4 1     
    4    4    5 ar    
    5    4    9 ar    
    6    5    6 ar    
    7    5   18 1     
    8    6    7 ar    
    9    6   19 1     
   10    7    8 ar    
   11    7   10 1     
   12    8    9 ar    
   13    8   20 1     
   14    9   21 1     
   15   10   11 2     
   16   10   12 am    
   17   12   13 1     
   18   12   17 1     
   19   13   14 1     
   20   13   22 1     
   21   13   23 1     
   22   14   15 1     
   23   14   24 1     
   24   14   25 1     
   25   15   16 1     
   26   16   17 1     
   27   16   26 1     
   28   16   27 1     
   29   17   28 1     
   30   17   29 1     
@<TRIPOS>SUBSTRUCTURE
      1 ****           1
@<TRIPOS>COMMENT
> <Gold.Version>
2022.2.0

> <Gold.Id.Protein>
3pbl|protein|mol2

> <Gold.Protein.RotatedTorsions>
[ 1303 1298 1297 1294 ] final   83.30 input  179.99 | X-H torsion
[ 2461 2456 2455 2452 ] final -135.93 input   30.03 | X-H torsion
[ 2515 2510 2509 2506 ] final  -87.43 input  -89.99 | X-H torsion
[ 3721 3712 3711 3710 ] final    4.36 input -179.91 | X-H torsion
[ 3841 3832 3831 3830 ] final  -45.50 input -179.91 | X-H torsion
[ 3767 3762 3761 3758 ] final  169.58 input  -89.99 | X-H torsion
[ 2472 2467 2466 2463 ] final   84.85 input  -89.97 | X-H torsion

> <Gold.Protein.ActiveResidues>
 VAL82   VAL86   LEU89   PHE106  VAL107  ASP110  VAL111  MET112  CYS114  THR115 
 CYS181  SER182  ILE183  PHE188  VAL189  ILE190  SER192  SER193  SER196  TRP342 
 PHE345  PHE346  HIS349  VAL350  TYR365  THR369  GLY372  TYR373 

> <Gold.Protein.RotatedAtoms>
    4.3270  -10.1736    4.8180 H   0  0  0  0  0  0  0  0  0  0  0  0  # atno 1303 bound_to 1298
    0.7726   -9.2564    8.2039 H   0  0  0  0  0  0  0  0  0  0  0  0  # atno 2461 bound_to 2456
   -5.0296   -4.8971    7.7558 H   0  0  0  0  0  0  0  0  0  0  0  0  # atno 2472 bound_to 2467
    2.8255   -8.9000    4.5831 H   0  0  0  0  0  0  0  0  0  0  0  0  # atno 2515 bound_to 2510
   -2.4790  -17.9800   14.1813 H   0  0  0  0  0  0  0  0  0  0  0  0  # atno 3721 bound_to 3712
   -4.0114  -22.6617   11.4903 H   0  0  0  0  0  0  0  0  0  0  0  0  # atno 3767 bound_to 3762
    1.5662  -19.9555    9.1884 H   0  0  0  0  0  0  0  0  0  0  0  0  # atno 3841 bound_to 3832
    3.3560   -9.3274    3.8143 LP  0  0  0  0  0  0  0  0  0  0  0  0  # atno 4297 bound_to 1298
    4.6790   -8.6200    4.4591 LP  0  0  0  0  0  0  0  0  0  0  0  0  # atno 4298 bound_to 1298
    2.1610   -8.4562    7.8891 LP  0  0  0  0  0  0  0  0  0  0  0  0  # atno 4299 bound_to 2456
    0.8040   -8.0958    7.0553 LP  0  0  0  0  0  0  0  0  0  0  0  0  # atno 4300 bound_to 2456
    2.1567   -8.6820    6.0565 LP  0  0  0  0  0  0  0  0  0  0  0  0  # atno 4301 bound_to 2510
    2.3144   -7.4169    5.0360 LP  0  0  0  0  0  0  0  0  0  0  0  0  # atno 4302 bound_to 2510
   -3.4162  -16.7194   14.5132 LP  0  0  0  0  0  0  0  0  0  0  0  0  # atno 4306 bound_to 3712
   -3.2495  -17.2487   12.9774 LP  0  0  0  0  0  0  0  0  0  0  0  0  # atno 4307 bound_to 3712
    2.7935  -19.9981    8.1550 LP  0  0  0  0  0  0  0  0  0  0  0  0  # atno 4314 bound_to 3832
    2.6266  -21.1556    9.2947 LP  0  0  0  0  0  0  0  0  0  0  0  0  # atno 4315 bound_to 3832
   -4.7146  -23.2212   10.1268 LP  0  0  0  0  0  0  0  0  0  0  0  0  # atno 4318 bound_to 3762
   -5.4011  -21.9922   10.9543 LP  0  0  0  0  0  0  0  0  0  0  0  0  # atno 4319 bound_to 3762
   -3.6347   -5.0442    8.5919 LP  0  0  0  0  0  0  0  0  0  0  0  0  # atno 4320 bound_to 2467
   -5.0528   -5.4522    9.2913 LP  0  0  0  0  0  0  0  0  0  0  0  0  # atno 4321 bound_to 2467

> <Gold.Score>
     Score     S(PLP)   S(hbond)     S(cho)   S(metal)  DE(clash)   DE(tors)     intcor
     44.59     -42.76       0.98       0.00       0.00       0.00       1.61       2.13

> <Gold.PLP.Fitness>
44.5912

> <Gold.PLP.PLP>
-42.7577

> <Gold.PLP.part.hbond>
-1.0000

> <Gold.PLP.part.metal>
0.0000

> <Gold.PLP.part.buried>
-5.5010

> <Gold.PLP.part.nonpolar>
-38.5971

> <Gold.PLP.part.repulsive>
0.7878

> <Gold.PLP.ligand.clash>
0.0000

> <Gold.PLP.ligand.torsion>
1.6091

> <Gold.PLP.Chemscore.Hbond>
0.9750

> <Gold.PLP.Chemscore.CHOScore>
0.0000

> <Gold.PLP.Chemscore.Metal>
0.0000

> <Gold.Chemscore.Hbonds>
donor molecule, donor type, donor heavy atom, donor atom, acceptor molecule, acceptor atom, score
      P1  H  3832  3841       L1     3  0.98

> <Gold.PLP.Chemscore.Internal.Correction>
2.1267

