#       Name:                EN300-315786_i001
#       Creating user name   fsindt
#       Creation time:       Tue Feb 28 19:15:05 2023


#       File generated by GOLD software.
#

@<TRIPOS>MOLECULE
EN300-315786_i001|acide_2|mol2|6664|dock15
    29    30     1
SMALL
USER_CHARGES


@<TRIPOS>ATOM
      1 O1           2.6322 -17.2256  13.2919 O.co2          1 <1>               -1.0000
      2 C2           1.7327 -16.4396  13.5523 C.2            1 <1>                0.0000
      3 O3           1.2811 -16.3813  14.6870 O.co2          1 <1>                0.0000
      4 C4           1.1955 -15.5555  12.4970 C.ar           1 <1>                0.0000
      5 C5          -0.1031 -15.0520  12.6014 C.ar           1 <1>                0.0000
      6 C6          -0.6034 -14.2275  11.6168 C.ar           1 <1>                0.0000
      7 C7           0.1870 -13.8958  10.5158 C.ar           1 <1>                0.0000
      8 C8           1.4845 -14.3984  10.4108 C.ar           1 <1>                0.0000
      9 C9           1.9881 -15.2184  11.3976 C.ar           1 <1>                0.0000
     10 C10         -0.3515 -13.0103   9.4580 C.2            1 <1>                0.0000
     11 O11         -0.3862 -13.3925   8.3050 O.2            1 <1>                0.0000
     12 N12         -0.8031 -11.7804   9.7740 N.am           1 <1>                0.0000
     13 C13         -1.4186 -10.9146   8.7556 C.3            1 <1>                0.0000
     14 C14         -2.7582 -10.4053   9.2996 C.3            1 <1>                0.0000
     15 O15         -2.5518  -9.8218  10.5882 O.3            1 <1>                0.0000
     16 C16         -2.0707 -10.7375  11.5751 C.3            1 <1>                0.0000
     17 C17         -0.7009 -11.2660  11.1489 C.3            1 <1>                0.0000
     18 H18         -0.7151 -15.3090  13.4533 H              1 <1>                0.0000
     19 H19         -1.6078 -13.8385  11.6973 H              1 <1>                0.0000
     20 H20          2.0956 -14.1416   9.5582 H              1 <1>                0.0000
     21 H21          2.9925 -15.6071  11.3164 H              1 <1>                0.0000
     22 H22         -0.7622 -10.0699   8.5466 H              1 <1>                0.0000
     23 H23         -1.5863 -11.4847   7.8418 H              1 <1>                0.0000
     24 H24         -3.1651  -9.6553   8.6213 H              1 <1>                0.0000
     25 H25         -3.4568 -11.2377   9.3846 H              1 <1>                0.0000
     26 H26         -1.9829 -10.2265  12.5339 H              1 <1>                0.0000
     27 H27         -2.7667 -11.5711  11.6683 H              1 <1>                0.0000
     28 H28         -0.3914 -12.0672  11.8201 H              1 <1>                0.0000
     29 H29          0.0300 -10.4580  11.1793 H              1 <1>                0.0000
@<TRIPOS>BOND
    1    1    2 ar    
    2    2    3 ar    
    3    2    4 1     
    4    4    5 ar    
    5    4    9 ar    
    6    5    6 ar    
    7    5   18 1     
    8    6    7 ar    
    9    6   19 1     
   10    7    8 ar    
   11    7   10 1     
   12    8    9 ar    
   13    8   20 1     
   14    9   21 1     
   15   10   11 2     
   16   10   12 am    
   17   12   13 1     
   18   12   17 1     
   19   13   14 1     
   20   13   22 1     
   21   13   23 1     
   22   14   15 1     
   23   14   24 1     
   24   14   25 1     
   25   15   16 1     
   26   16   17 1     
   27   16   26 1     
   28   16   27 1     
   29   17   28 1     
   30   17   29 1     
@<TRIPOS>SUBSTRUCTURE
      1 ****           1
@<TRIPOS>COMMENT
> <Gold.Version>
2022.2.0

> <Gold.Id.Protein>
3pbl|protein|mol2

> <Gold.Protein.RotatedTorsions>
[ 1303 1298 1297 1294 ] final  -72.44 input  179.99 | X-H torsion
[ 2461 2456 2455 2452 ] final   27.75 input   30.03 | X-H torsion
[ 2515 2510 2509 2506 ] final  156.39 input  -89.99 | X-H torsion
[ 3721 3712 3711 3710 ] final   10.05 input -179.91 | X-H torsion
[ 3841 3832 3831 3830 ] final   51.83 input -179.91 | X-H torsion
[ 3767 3762 3761 3758 ] final  -22.05 input  -89.99 | X-H torsion
[ 2472 2467 2466 2463 ] final  169.67 input  -89.97 | X-H torsion

> <Gold.Protein.ActiveResidues>
 VAL82   VAL86   LEU89   PHE106  VAL107  ASP110  VAL111  MET112  CYS114  THR115 
 CYS181  SER182  ILE183  PHE188  VAL189  ILE190  SER192  SER193  SER196  TRP342 
 PHE345  PHE346  HIS349  VAL350  TYR365  THR369  GLY372  TYR373 

> <Gold.Protein.RotatedAtoms>
    3.6186   -8.8121    3.7974 H   0  0  0  0  0  0  0  0  0  0  0  0  # atno 1303 bound_to 1298
    1.4800   -7.9168    7.1126 H   0  0  0  0  0  0  0  0  0  0  0  0  # atno 2461 bound_to 2456
   -5.4290   -5.3451    8.8769 H   0  0  0  0  0  0  0  0  0  0  0  0  # atno 2472 bound_to 2467
    2.1772   -8.7381    6.0369 H   0  0  0  0  0  0  0  0  0  0  0  0  # atno 2515 bound_to 2510
   -2.4723  -18.0044   14.0990 H   0  0  0  0  0  0  0  0  0  0  0  0  # atno 3721 bound_to 3712
   -5.4719  -22.4454   10.3326 H   0  0  0  0  0  0  0  0  0  0  0  0  # atno 3767 bound_to 3762
    2.3592  -20.9169    9.5582 H   0  0  0  0  0  0  0  0  0  0  0  0  # atno 3841 bound_to 3832
    4.9015   -9.0476    4.7797 LP  0  0  0  0  0  0  0  0  0  0  0  0  # atno 4297 bound_to 1298
    3.8423  -10.2618    4.5148 LP  0  0  0  0  0  0  0  0  0  0  0  0  # atno 4298 bound_to 1298
    0.3626   -8.9316    7.7362 LP  0  0  0  0  0  0  0  0  0  0  0  0  # atno 4299 bound_to 2456
    1.8952   -8.9595    8.2991 LP  0  0  0  0  0  0  0  0  0  0  0  0  # atno 4300 bound_to 2456
    2.2890   -7.4106    5.0931 LP  0  0  0  0  0  0  0  0  0  0  0  0  # atno 4301 bound_to 2510
    2.8307   -8.8502    4.5449 LP  0  0  0  0  0  0  0  0  0  0  0  0  # atno 4302 bound_to 2510
   -3.3799  -16.7718   14.5836 LP  0  0  0  0  0  0  0  0  0  0  0  0  # atno 4306 bound_to 3712
   -3.2935  -17.1680   13.0018 LP  0  0  0  0  0  0  0  0  0  0  0  0  # atno 4307 bound_to 3712
    1.5107  -19.8027    8.7742 LP  0  0  0  0  0  0  0  0  0  0  0  0  # atno 4314 bound_to 3832
    2.9934  -20.2404    8.2482 LP  0  0  0  0  0  0  0  0  0  0  0  0  # atno 4315 bound_to 3832
   -4.5423  -22.1194   11.6350 LP  0  0  0  0  0  0  0  0  0  0  0  0  # atno 4318 bound_to 3762
   -4.1134  -23.3103   10.6033 LP  0  0  0  0  0  0  0  0  0  0  0  0  # atno 4319 bound_to 3762
   -4.4744   -4.8035    7.6678 LP  0  0  0  0  0  0  0  0  0  0  0  0  # atno 4320 bound_to 2467
   -3.8137   -5.2450    9.0944 LP  0  0  0  0  0  0  0  0  0  0  0  0  # atno 4321 bound_to 2467

> <Gold.Score>
     Score     S(PLP)   S(hbond)     S(cho)   S(metal)  DE(clash)   DE(tors)     intcor
     47.41     -44.98       0.99       0.00       0.00       0.01       1.33       2.13

> <Gold.PLP.Fitness>
47.4113

> <Gold.PLP.PLP>
-44.9753

> <Gold.PLP.part.hbond>
-1.0000

> <Gold.PLP.part.metal>
0.0000

> <Gold.PLP.part.buried>
-4.3628

> <Gold.PLP.part.nonpolar>
-40.4290

> <Gold.PLP.part.repulsive>
0.2068

> <Gold.PLP.ligand.clash>
0.0054

> <Gold.PLP.ligand.torsion>
1.3295

> <Gold.PLP.Chemscore.Hbond>
0.9913

> <Gold.PLP.Chemscore.CHOScore>
0.0000

> <Gold.PLP.Chemscore.Metal>
0.0000

> <Gold.Chemscore.Hbonds>
donor molecule, donor type, donor heavy atom, donor atom, acceptor molecule, acceptor atom, score
      P1  H  2305  2313       L1     3  0.99

> <Gold.PLP.Chemscore.Internal.Correction>
2.1267

