#       Name:                EN300-315786_i001
#       Creating user name   fsindt
#       Creation time:       Tue Feb 28 19:15:08 2023


#       File generated by GOLD software.
#

@<TRIPOS>MOLECULE
EN300-315786_i001|acide_2|mol2|6664|dock18
    29    30     1
SMALL
USER_CHARGES


@<TRIPOS>ATOM
      1 O1          -0.0500 -16.0929  15.0008 O.co2          1 <1>               -1.0000
      2 C2           0.8167 -16.4882  14.2344 C.2            1 <1>                0.0000
      3 O3           1.6324 -17.3179  14.6098 O.co2          1 <1>                0.0000
      4 C4           0.8744 -15.9678  12.8525 C.ar           1 <1>                0.0000
      5 C5          -0.3028 -15.7959  12.1209 C.ar           1 <1>                0.0000
      6 C6          -0.2482 -15.3105  10.8322 C.ar           1 <1>                0.0000
      7 C7           0.9828 -14.9909  10.2581 C.ar           1 <1>                0.0000
      8 C8           2.1594 -15.1625  10.9885 C.ar           1 <1>                0.0000
      9 C9           2.1058 -15.6423  12.2794 C.ar           1 <1>                0.0000
     10 C10          1.0407 -14.4699   8.8731 C.2            1 <1>                0.0000
     11 O11          1.6764 -15.0656   8.0259 O.2            1 <1>                0.0000
     12 N12          0.3882 -13.3352   8.5521 N.am           1 <1>                0.0000
     13 C13         -0.3191 -12.5520   9.5777 C.3            1 <1>                0.0000
     14 C14          0.1284 -11.0903   9.4639 C.3            1 <1>                0.0000
     15 O15         -0.0284 -10.6539   8.1117 O.3            1 <1>                0.0000
     16 C16          0.7769 -11.3665   7.1695 C.3            1 <1>                0.0000
     17 C17          0.3673 -12.8394   7.1667 C.3            1 <1>                0.0000
     18 H18         -1.2557 -16.0435  12.5649 H              1 <1>                0.0000
     19 H19         -1.1586 -15.1779  10.2662 H              1 <1>                0.0000
     20 H20          3.1118 -14.9153  10.5435 H              1 <1>                0.0000
     21 H21          3.0164 -15.7747  12.8446 H              1 <1>                0.0000
     22 H22         -1.3947 -12.6204   9.4149 H              1 <1>                0.0000
     23 H23         -0.0721 -12.9356  10.5676 H              1 <1>                0.0000
     24 H24         -0.4828 -10.4703  10.1198 H              1 <1>                0.0000
     25 H25          1.1757 -11.0065   9.7543 H              1 <1>                0.0000
     26 H26          0.6321 -10.9453   6.1747 H              1 <1>                0.0000
     27 H27          1.8264 -11.2837   7.4516 H              1 <1>                0.0000
     28 H28          1.0665 -13.4138   6.5592 H              1 <1>                0.0000
     29 H29         -0.6399 -12.9396   6.7620 H              1 <1>                0.0000
@<TRIPOS>BOND
    1    1    2 ar    
    2    2    3 ar    
    3    2    4 1     
    4    4    5 ar    
    5    4    9 ar    
    6    5    6 ar    
    7    5   18 1     
    8    6    7 ar    
    9    6   19 1     
   10    7    8 ar    
   11    7   10 1     
   12    8    9 ar    
   13    8   20 1     
   14    9   21 1     
   15   10   11 2     
   16   10   12 am    
   17   12   13 1     
   18   12   17 1     
   19   13   14 1     
   20   13   22 1     
   21   13   23 1     
   22   14   15 1     
   23   14   24 1     
   24   14   25 1     
   25   15   16 1     
   26   16   17 1     
   27   16   26 1     
   28   16   27 1     
   29   17   28 1     
   30   17   29 1     
@<TRIPOS>SUBSTRUCTURE
      1 ****           1
@<TRIPOS>COMMENT
> <Gold.Version>
2022.2.0

> <Gold.Id.Protein>
3pbl|protein|mol2

> <Gold.Protein.RotatedTorsions>
[ 1303 1298 1297 1294 ] final -161.19 input  179.99 | X-H torsion
[ 2461 2456 2455 2452 ] final -134.28 input   30.03 | X-H torsion
[ 2515 2510 2509 2506 ] final   -3.51 input  -89.99 | X-H torsion
[ 3721 3712 3711 3710 ] final    3.47 input -179.91 | X-H torsion
[ 3841 3832 3831 3830 ] final -140.03 input -179.91 | X-H torsion
[ 3767 3762 3761 3758 ] final   70.50 input  -89.99 | X-H torsion
[ 2472 2467 2466 2463 ] final -142.02 input  -89.97 | X-H torsion

> <Gold.Protein.ActiveResidues>
 VAL82   VAL86   LEU89   PHE106  VAL107  ASP110  VAL111  MET112  CYS114  THR115 
 CYS181  SER182  ILE183  PHE188  VAL189  ILE190  SER192  SER193  SER196  TRP342 
 PHE345  PHE346  HIS349  VAL350  TYR365  THR369  GLY372  TYR373 

> <Gold.Protein.RotatedAtoms>
    4.7208   -8.6606    4.5046 H   0  0  0  0  0  0  0  0  0  0  0  0  # atno 1303 bound_to 1298
    0.7502   -9.2502    8.1898 H   0  0  0  0  0  0  0  0  0  0  0  0  # atno 2461 bound_to 2456
   -4.8573   -5.4639    9.3812 H   0  0  0  0  0  0  0  0  0  0  0  0  # atno 2472 bound_to 2467
    2.5645   -7.6671    4.5714 H   0  0  0  0  0  0  0  0  0  0  0  0  # atno 2515 bound_to 2510
   -2.4804  -17.9756   14.1939 H   0  0  0  0  0  0  0  0  0  0  0  0  # atno 3721 bound_to 3712
   -4.4274  -23.3197   10.2850 H   0  0  0  0  0  0  0  0  0  0  0  0  # atno 3767 bound_to 3762
    2.4971  -19.6814    8.3666 H   0  0  0  0  0  0  0  0  0  0  0  0  # atno 3841 bound_to 3832
    4.2669  -10.2035    4.7872 LP  0  0  0  0  0  0  0  0  0  0  0  0  # atno 4297 bound_to 1298
    3.3742   -9.2575    3.7998 LP  0  0  0  0  0  0  0  0  0  0  0  0  # atno 4298 bound_to 1298
    2.1601   -8.4756    7.9081 LP  0  0  0  0  0  0  0  0  0  0  0  0  # atno 4299 bound_to 2456
    0.8273   -8.0826    7.0503 LP  0  0  0  0  0  0  0  0  0  0  0  0  # atno 4300 bound_to 2456
    2.6964   -9.2216    5.0530 LP  0  0  0  0  0  0  0  0  0  0  0  0  # atno 4301 bound_to 2510
    2.0358   -8.1107    6.0511 LP  0  0  0  0  0  0  0  0  0  0  0  0  # atno 4302 bound_to 2510
   -3.4216  -16.7118   14.5016 LP  0  0  0  0  0  0  0  0  0  0  0  0  # atno 4306 bound_to 3712
   -3.2424  -17.2614   12.9744 LP  0  0  0  0  0  0  0  0  0  0  0  0  # atno 4307 bound_to 3712
    2.9002  -21.0751    9.0531 LP  0  0  0  0  0  0  0  0  0  0  0  0  # atno 4314 bound_to 3832
    1.4446  -20.3953    9.3458 LP  0  0  0  0  0  0  0  0  0  0  0  0  # atno 4315 bound_to 3832
   -5.5004  -22.1493   10.6665 LP  0  0  0  0  0  0  0  0  0  0  0  0  # atno 4318 bound_to 3762
   -4.1994  -22.4063   11.6194 LP  0  0  0  0  0  0  0  0  0  0  0  0  # atno 4319 bound_to 3762
   -5.2036   -4.9560    7.8684 LP  0  0  0  0  0  0  0  0  0  0  0  0  # atno 4320 bound_to 2467
   -3.6561   -4.9736    8.3896 LP  0  0  0  0  0  0  0  0  0  0  0  0  # atno 4321 bound_to 2467

> <Gold.Score>
     Score     S(PLP)   S(hbond)     S(cho)   S(metal)  DE(clash)   DE(tors)     intcor
     43.14     -38.58       2.00       0.00       0.00       0.00       1.78       2.13

> <Gold.PLP.Fitness>
43.1436

> <Gold.PLP.PLP>
-38.5762

> <Gold.PLP.part.hbond>
-1.9308

> <Gold.PLP.part.metal>
0.0000

> <Gold.PLP.part.buried>
1.1783

> <Gold.PLP.part.nonpolar>
-40.7689

> <Gold.PLP.part.repulsive>
1.0276

> <Gold.PLP.ligand.clash>
0.0000

> <Gold.PLP.ligand.torsion>
1.7797

> <Gold.PLP.Chemscore.Hbond>
2.0000

> <Gold.PLP.Chemscore.CHOScore>
0.0000

> <Gold.PLP.Chemscore.Metal>
0.0000

> <Gold.Chemscore.Hbonds>
donor molecule, donor type, donor heavy atom, donor atom, acceptor molecule, acceptor atom, score
      P1  H  2456  2461       L1    15  1.00
      P1  H  2305  2313       L1     1  1.00

> <Gold.PLP.Chemscore.Internal.Correction>
2.1267

