#       Name:                EN300-315786_i001
#       Creating user name   fsindt
#       Creation time:       Tue Feb 28 19:14:55 2023


#       File generated by GOLD software.
#

@<TRIPOS>MOLECULE
EN300-315786_i001|acide_2|mol2|6664|dock1
    29    30     1
SMALL
USER_CHARGES


@<TRIPOS>ATOM
      1 O1           0.2905 -16.2156  14.6110 O.co2          1 <1>               -1.0000
      2 C2          -0.0431 -16.8871  13.6453 C.2            1 <1>                0.0000
      3 O3          -0.5421 -17.9909  13.8113 O.co2          1 <1>                0.0000
      4 C4           0.1511 -16.3620  12.2777 C.ar           1 <1>                0.0000
      5 C5           0.9072 -15.2055  12.0741 C.ar           1 <1>                0.0000
      6 C6           1.0879 -14.7164  10.7984 C.ar           1 <1>                0.0000
      7 C7           0.5155 -15.3762   9.7102 C.ar           1 <1>                0.0000
      8 C8          -0.2401 -16.5316   9.9129 C.ar           1 <1>                0.0000
      9 C9          -0.4168 -17.0252  11.1875 C.ar           1 <1>                0.0000
     10 C10          0.7097 -14.8496   8.3397 C.2            1 <1>                0.0000
     11 O11          1.2660 -15.5300   7.5005 O.2            1 <1>                0.0000
     12 N12          0.2693 -13.6158   8.0232 N.am           1 <1>                0.0000
     13 C13         -0.3324 -12.7415   9.0425 C.3            1 <1>                0.0000
     14 C14          0.3584 -11.3747   8.9759 C.3            1 <1>                0.0000
     15 O15          0.3256 -10.8958   7.6294 O.3            1 <1>                0.0000
     16 C16          1.0327 -11.7185   6.6982 C.3            1 <1>                0.0000
     17 C17          0.3815 -13.1008   6.6492 C.3            1 <1>                0.0000
     18 H18          1.3500 -14.6945  12.9163 H              1 <1>                0.0000
     19 H19          1.6724 -13.8218  10.6409 H              1 <1>                0.0000
     20 H20         -0.6831 -17.0416   9.0702 H              1 <1>                0.0000
     21 H21         -1.0013 -17.9196  11.3442 H              1 <1>                0.0000
     22 H22         -1.3977 -12.6246   8.8434 H              1 <1>                0.0000
     23 H23         -0.1890 -13.1776  10.0311 H              1 <1>                0.0000
     24 H24         -0.1628 -10.6713   9.6253 H              1 <1>                0.0000
     25 H25          1.3938 -11.4738   9.3019 H              1 <1>                0.0000
     26 H26          0.9965 -11.2625   5.7088 H              1 <1>                0.0000
     27 H27          2.0704 -11.8188   7.0159 H              1 <1>                0.0000
     28 H28          0.9955 -13.7750   6.0520 H              1 <1>                0.0000
     29 H29         -0.6130 -13.0228   6.2100 H              1 <1>                0.0000
@<TRIPOS>BOND
    1    1    2 ar    
    2    2    3 ar    
    3    2    4 1     
    4    4    5 ar    
    5    4    9 ar    
    6    5    6 ar    
    7    5   18 1     
    8    6    7 ar    
    9    6   19 1     
   10    7    8 ar    
   11    7   10 1     
   12    8    9 ar    
   13    8   20 1     
   14    9   21 1     
   15   10   11 2     
   16   10   12 am    
   17   12   13 1     
   18   12   17 1     
   19   13   14 1     
   20   13   22 1     
   21   13   23 1     
   22   14   15 1     
   23   14   24 1     
   24   14   25 1     
   25   15   16 1     
   26   16   17 1     
   27   16   26 1     
   28   16   27 1     
   29   17   28 1     
   30   17   29 1     
@<TRIPOS>SUBSTRUCTURE
      1 ****           1
@<TRIPOS>COMMENT
> <Gold.Version>
2022.2.0

> <Gold.Id.Protein>
3pbl|protein|mol2

> <Gold.Protein.RotatedTorsions>
[ 1303 1298 1297 1294 ] final  159.44 input  179.99 | X-H torsion
[ 2461 2456 2455 2452 ] final -117.47 input   30.03 | X-H torsion
[ 2515 2510 2509 2506 ] final  108.99 input  -89.99 | X-H torsion
[ 3721 3712 3711 3710 ] final   20.09 input -179.91 | X-H torsion
[ 3841 3832 3831 3830 ] final  -69.44 input -179.91 | X-H torsion
[ 3767 3762 3761 3758 ] final -143.21 input  -89.99 | X-H torsion
[ 2472 2467 2466 2463 ] final    7.29 input  -89.97 | X-H torsion

> <Gold.Protein.ActiveResidues>
 VAL82   VAL86   LEU89   PHE106  VAL107  ASP110  VAL111  MET112  CYS114  THR115 
 CYS181  SER182  ILE183  PHE188  VAL189  ILE190  SER192  SER193  SER196  TRP342 
 PHE345  PHE346  HIS349  VAL350  TYR365  THR369  GLY372  TYR373 

> <Gold.Protein.RotatedAtoms>
    4.9115   -9.1689    4.8343 H   0  0  0  0  0  0  0  0  0  0  0  0  # atno 1303 bound_to 1298
    0.5487   -9.1568    8.0263 H   0  0  0  0  0  0  0  0  0  0  0  0  # atno 2461 bound_to 2456
   -3.8712   -4.8511    7.9817 H   0  0  0  0  0  0  0  0  0  0  0  0  # atno 2472 bound_to 2467
    2.0295   -7.9956    6.0075 H   0  0  0  0  0  0  0  0  0  0  0  0  # atno 2515 bound_to 2510
   -2.4709  -18.0300   13.9497 H   0  0  0  0  0  0  0  0  0  0  0  0  # atno 3721 bound_to 3712
   -4.5259  -22.1290   11.6378 H   0  0  0  0  0  0  0  0  0  0  0  0  # atno 3767 bound_to 3762
    1.6693  -19.7334    8.9258 H   0  0  0  0  0  0  0  0  0  0  0  0  # atno 3841 bound_to 3832
    3.7403  -10.2337    4.4330 LP  0  0  0  0  0  0  0  0  0  0  0  0  # atno 4297 bound_to 1298
    3.7101   -8.7188    3.8241 LP  0  0  0  0  0  0  0  0  0  0  0  0  # atno 4298 bound_to 1298
    2.1082   -8.6760    8.0902 LP  0  0  0  0  0  0  0  0  0  0  0  0  # atno 4299 bound_to 2456
    1.0807   -7.9755    7.0318 LP  0  0  0  0  0  0  0  0  0  0  0  0  # atno 4300 bound_to 2456
    2.6131   -7.7563    4.5015 LP  0  0  0  0  0  0  0  0  0  0  0  0  # atno 4301 bound_to 2510
    2.6543   -9.2474    5.1659 LP  0  0  0  0  0  0  0  0  0  0  0  0  # atno 4302 bound_to 2510
   -3.3090  -16.8787   14.6913 LP  0  0  0  0  0  0  0  0  0  0  0  0  # atno 4306 bound_to 3712
   -3.3659  -17.0316   13.0665 LP  0  0  0  0  0  0  0  0  0  0  0  0  # atno 4307 bound_to 3712
    3.0257  -20.2959    8.2778 LP  0  0  0  0  0  0  0  0  0  0  0  0  # atno 4314 bound_to 3832
    2.2753  -21.1143    9.4752 LP  0  0  0  0  0  0  0  0  0  0  0  0  # atno 4315 bound_to 3832
   -4.1243  -23.3139   10.5882 LP  0  0  0  0  0  0  0  0  0  0  0  0  # atno 4318 bound_to 3762
   -5.4770  -22.4320   10.3453 LP  0  0  0  0  0  0  0  0  0  0  0  0  # atno 4319 bound_to 3762
   -4.3833   -5.4256    9.4218 LP  0  0  0  0  0  0  0  0  0  0  0  0  # atno 4320 bound_to 2467
   -5.4622   -5.1168    8.2355 LP  0  0  0  0  0  0  0  0  0  0  0  0  # atno 4321 bound_to 2467

> <Gold.Score>
     Score     S(PLP)   S(hbond)     S(cho)   S(metal)  DE(clash)   DE(tors)     intcor
     49.32     -41.37       2.74       0.00       0.00       0.00       1.20       2.13

> <Gold.PLP.Fitness>
49.3197

> <Gold.PLP.PLP>
-41.3658

> <Gold.PLP.part.hbond>
-3.0000

> <Gold.PLP.part.metal>
0.0000

> <Gold.PLP.part.buried>
-2.1559

> <Gold.PLP.part.nonpolar>
-37.3748

> <Gold.PLP.part.repulsive>
0.3037

> <Gold.PLP.ligand.clash>
0.0000

> <Gold.PLP.ligand.torsion>
1.1959

> <Gold.PLP.Chemscore.Hbond>
2.7376

> <Gold.PLP.Chemscore.CHOScore>
0.0000

> <Gold.PLP.Chemscore.Metal>
0.0000

> <Gold.Chemscore.Hbonds>
donor molecule, donor type, donor heavy atom, donor atom, acceptor molecule, acceptor atom, score
      P1  H  2456  2461       L1    15  0.76
      P1  H  2305  2313       L1     1  1.00
      P1  H  3712  3721       L1     3  0.98

> <Gold.PLP.Chemscore.Internal.Correction>
2.1329

