#       Name:                EN300-26967_i001
#       Creating user name   aseyller
#       Creation time:       Fri Apr 21 12:18:03 2023


#       File generated by GOLD software.
#

@<TRIPOS>MOLECULE
EN300-26967_i001|amine_1|mol2|12|dock5
    16    16     1
SMALL
USER_CHARGES


@<TRIPOS>ATOM
      1 N1          29.1663  35.7935  41.8037 N.pl3          1 <1>                0.0000
      2 C2          28.5074  36.2306  40.6522 C.ar           1 <1>                0.0000
      3 C3          27.1393  36.0259  40.5139 C.ar           1 <1>                0.0000
      4 C4          26.4833  36.4562  39.3762 C.ar           1 <1>                0.0000
      5 C5          27.1820  37.0920  38.3697 C.ar           1 <1>                0.0000
      6 C6          28.5555  37.3023  38.4989 C.ar           1 <1>                0.0000
      7 C7          29.2826  37.9611  37.4559 C.1            1 <1>                0.0000
      8 C8          29.8785  38.5013  36.6008 C.1            1 <1>                0.0000
      9 C9          29.2168  36.8738  39.6494 C.ar           1 <1>                0.0000
     10 H10         26.5874  35.5288  41.2979 H              1 <1>                0.0000
     11 H11         25.4203  36.2941  39.2741 H              1 <1>                0.0000
     12 H12         26.6657  37.4265  37.4821 H              1 <1>                0.0000
     13 H13         30.4117  38.9845  35.8360 H              1 <1>                0.0000
     14 H14         30.2796  37.0338  39.7549 H              1 <1>                0.0000
     15 H15         28.6692  35.3471  42.5070 H              1 <1>                0.0000
     16 H16         30.1215  35.9328  41.8984 H              1 <1>                0.0000
@<TRIPOS>BOND
    1    1    2 1     
    2    1   15 1     
    3    1   16 1     
    4    2    3 ar    
    5    2    9 ar    
    6    3    4 ar    
    7    3   10 1     
    8    4    5 ar    
    9    4   11 1     
   10    5    6 ar    
   11    5   12 1     
   12    6    7 1     
   13    6    9 ar    
   14    7    8 3     
   15    8   13 1     
   16    9   14 1     
@<TRIPOS>SUBSTRUCTURE
      1 ****           1
@<TRIPOS>SET
DONOR_HYDROGENS      STATIC     ATOMS    <user>   **** ""
2 15 16
ATOM$RED        STATIC     ATOMS    COLORGROUP SYSTEM
2 15 16
@<TRIPOS>COMMENT
> <Gold.Version>
2022.2.0

> <Gold.Id.Protein>
1qkm|1qkm_protein|mol2

> <Gold.Protein.RotatedTorsions>
[  496  491  490  487 ] final  -89.46 input  -89.99 | X-H torsion

> <Gold.Protein.ActiveResidues>
 MET295  LEU298  THR299  LEU301  ALA302  GLU305  TRP335  MET336  LEU339  MET340 
 GLY342  LEU343  ARG346  PHE356  ILE373  ILE376  PHE377  LEU380  LYS471  GLY472 
 MET473  HIS475  LEU476  LEU477  ASN478  MET479  VAL484  VAL487 

> <Gold.Protein.RotatedAtoms>
   36.7523   34.6568   41.0857 H   0  0  0  0  0  0  0  0  0  0  0  0  # atno 496  bound_to 491 

> <Gold.Score>
     Score     S(PLP)   S(hbond)     S(cho)   S(metal)  DE(clash)   DE(tors)     intcor
     36.86     -34.03       0.94       0.00       0.00       0.00       0.00       0.00

> <Gold.PLP.Fitness>
36.8630

> <Gold.PLP.PLP>
-34.0310

> <Gold.PLP.part.hbond>
-1.0000

> <Gold.PLP.part.metal>
0.0000

> <Gold.PLP.part.buried>
-2.5902

> <Gold.PLP.part.nonpolar>
-30.8900

> <Gold.PLP.part.repulsive>
0.0932

> <Gold.PLP.ligand.clash>
0.0000

> <Gold.PLP.ligand.torsion>
0.0000

> <Gold.PLP.Chemscore.Hbond>
0.9440

> <Gold.PLP.Chemscore.CHOScore>
0.0000

> <Gold.PLP.Chemscore.Metal>
0.0000

> <Gold.Chemscore.Hbonds>
donor molecule, donor type, donor heavy atom, donor atom, acceptor molecule, acceptor atom, score
      L1  H     1    16       P1   470  0.94

> <Gold.PLP.Chemscore.Internal.Correction>
0.0000

