#       Name:                EN300-26967_i001
#       Creating user name   aseyller
#       Creation time:       Fri Apr 21 12:18:03 2023


#       File generated by GOLD software.
#

@<TRIPOS>MOLECULE
EN300-26967_i001|amine_1|mol2|12|dock3
    16    16     1
SMALL
USER_CHARGES


@<TRIPOS>ATOM
      1 N1          24.8983  35.8312  41.5013 N.pl3          1 <1>                0.0000
      2 C2          26.1023  36.1603  40.8742 C.ar           1 <1>                0.0000
      3 C3          27.3057  35.6942  41.3912 C.ar           1 <1>                0.0000
      4 C4          28.4993  36.0176  40.7744 C.ar           1 <1>                0.0000
      5 C5          28.5046  36.8056  39.6410 C.ar           1 <1>                0.0000
      6 C6          27.3020  37.2785  39.1142 C.ar           1 <1>                0.0000
      7 C7          27.3051  38.0966  37.9389 C.1            1 <1>                0.0000
      8 C8          27.3076  38.7674  36.9754 C.1            1 <1>                0.0000
      9 C9          26.0969  36.9473  39.7327 C.ar           1 <1>                0.0000
     10 H10         27.3078  35.0775  42.2778 H              1 <1>                0.0000
     11 H11         29.4312  35.6529  41.1807 H              1 <1>                0.0000
     12 H12         29.4395  37.0564  39.1622 H              1 <1>                0.0000
     13 H13         27.3100  39.3673  36.1136 H              1 <1>                0.0000
     14 H14         25.1632  37.3105  39.3295 H              1 <1>                0.0000
     15 H15         24.9019  35.2773  42.2977 H              1 <1>                0.0000
     16 H16         24.0590  36.1598  41.1429 H              1 <1>                0.0000
@<TRIPOS>BOND
    1    1    2 1     
    2    1   15 1     
    3    1   16 1     
    4    2    3 ar    
    5    2    9 ar    
    6    3    4 ar    
    7    3   10 1     
    8    4    5 ar    
    9    4   11 1     
   10    5    6 ar    
   11    5   12 1     
   12    6    7 1     
   13    6    9 ar    
   14    7    8 3     
   15    8   13 1     
   16    9   14 1     
@<TRIPOS>SUBSTRUCTURE
      1 ****           1
@<TRIPOS>SET
DONOR_HYDROGENS      STATIC     ATOMS    <user>   **** ""
2 15 16
ATOM$RED        STATIC     ATOMS    COLORGROUP SYSTEM
2 15 16
@<TRIPOS>COMMENT
> <Gold.Version>
2022.2.0

> <Gold.Id.Protein>
1qkm|1qkm_protein|mol2

> <Gold.Protein.RotatedTorsions>
[  496  491  490  487 ] final   86.11 input  -89.99 | X-H torsion

> <Gold.Protein.ActiveResidues>
 MET295  LEU298  THR299  LEU301  ALA302  GLU305  TRP335  MET336  LEU339  MET340 
 GLY342  LEU343  ARG346  PHE356  ILE373  ILE376  PHE377  LEU380  LYS471  GLY472 
 MET473  HIS475  LEU476  LEU477  ASN478  MET479  VAL484  VAL487 

> <Gold.Protein.RotatedAtoms>
   36.7843   33.0493   42.0696 H   0  0  0  0  0  0  0  0  0  0  0  0  # atno 496  bound_to 491 

> <Gold.Score>
     Score     S(PLP)   S(hbond)     S(cho)   S(metal)  DE(clash)   DE(tors)     intcor
     36.29     -30.89       1.80       0.00       0.00       0.00       0.00       0.00

> <Gold.PLP.Fitness>
36.2941

> <Gold.PLP.PLP>
-30.8889

> <Gold.PLP.part.hbond>
-2.0000

> <Gold.PLP.part.metal>
0.0000

> <Gold.PLP.part.buried>
-0.0945

> <Gold.PLP.part.nonpolar>
-29.7527

> <Gold.PLP.part.repulsive>
0.1558

> <Gold.PLP.ligand.clash>
0.0000

> <Gold.PLP.ligand.torsion>
0.0000

> <Gold.PLP.Chemscore.Hbond>
1.8017

> <Gold.PLP.Chemscore.CHOScore>
0.0000

> <Gold.PLP.Chemscore.Metal>
0.0000

> <Gold.Chemscore.Hbonds>
donor molecule, donor type, donor heavy atom, donor atom, acceptor molecule, acceptor atom, score
      L1  H     1    15       P1   582  0.91
      L1  H     1    16       P1  1131  0.89

> <Gold.PLP.Chemscore.Internal.Correction>
0.0000

