#       Name:                EN300-26967_i001
#       Creating user name   aseyller
#       Creation time:       Fri Apr 21 12:18:02 2023


#       File generated by GOLD software.
#

@<TRIPOS>MOLECULE
EN300-26967_i001|amine_1|mol2|12|dock1
    16    16     1
SMALL
USER_CHARGES


@<TRIPOS>ATOM
      1 N1          27.6130  35.5559  42.1355 N.pl3          1 <1>                0.0000
      2 C2          27.3969  36.1535  40.8915 C.ar           1 <1>                0.0000
      3 C3          26.1015  36.4264  40.4669 C.ar           1 <1>                0.0000
      4 C4          25.8828  37.0170  39.2369 C.ar           1 <1>                0.0000
      5 C5          26.9490  37.3398  38.4217 C.ar           1 <1>                0.0000
      6 C6          28.2532  37.0699  38.8387 C.ar           1 <1>                0.0000
      7 C7          29.3608  37.4034  37.9945 C.1            1 <1>                0.0000
      8 C8          30.2688  37.6768  37.3025 C.1            1 <1>                0.0000
      9 C9          28.4746  36.4796  40.0825 C.ar           1 <1>                0.0000
     10 H10         25.2634  36.1758  41.1003 H              1 <1>                0.0000
     11 H11         24.8743  37.2265  38.9121 H              1 <1>                0.0000
     12 H12         26.7739  37.8010  37.4610 H              1 <1>                0.0000
     13 H13         31.0810  37.9213  36.6835 H              1 <1>                0.0000
     14 H14         29.4816  36.2684  40.4104 H              1 <1>                0.0000
     15 H15         26.8592  35.3314  42.7032 H              1 <1>                0.0000
     16 H16         28.5166  35.3618  42.4300 H              1 <1>                0.0000
@<TRIPOS>BOND
    1    1    2 1     
    2    1   15 1     
    3    1   16 1     
    4    2    3 ar    
    5    2    9 ar    
    6    3    4 ar    
    7    3   10 1     
    8    4    5 ar    
    9    4   11 1     
   10    5    6 ar    
   11    5   12 1     
   12    6    7 1     
   13    6    9 ar    
   14    7    8 3     
   15    8   13 1     
   16    9   14 1     
@<TRIPOS>SUBSTRUCTURE
      1 ****           1
@<TRIPOS>SET
DONOR_HYDROGENS      STATIC     ATOMS    <user>   **** ""
2 15 16
ATOM$RED        STATIC     ATOMS    COLORGROUP SYSTEM
2 15 16
@<TRIPOS>COMMENT
> <Gold.Version>
2022.2.0

> <Gold.Id.Protein>
1qkm|1qkm_protein|mol2

> <Gold.Protein.RotatedTorsions>
[  496  491  490  487 ] final   28.33 input  -89.99 | X-H torsion

> <Gold.Protein.ActiveResidues>
 MET295  LEU298  THR299  LEU301  ALA302  GLU305  TRP335  MET336  LEU339  MET340 
 GLY342  LEU343  ARG346  PHE356  ILE373  ILE376  PHE377  LEU380  LYS471  GLY472 
 MET473  HIS475  LEU476  LEU477  ASN478  MET479  VAL484  VAL487 

> <Gold.Protein.RotatedAtoms>
   36.3380   33.7816   42.3783 H   0  0  0  0  0  0  0  0  0  0  0  0  # atno 496  bound_to 491 

> <Gold.Score>
     Score     S(PLP)   S(hbond)     S(cho)   S(metal)  DE(clash)   DE(tors)     intcor
     37.81     -34.81       1.00       0.00       0.00       0.00       0.00       0.00

> <Gold.PLP.Fitness>
37.8112

> <Gold.PLP.PLP>
-34.8112

> <Gold.PLP.part.hbond>
-0.7779

> <Gold.PLP.part.metal>
0.0000

> <Gold.PLP.part.buried>
-2.8220

> <Gold.PLP.part.nonpolar>
-31.7807

> <Gold.PLP.part.repulsive>
0.0655

> <Gold.PLP.ligand.clash>
0.0000

> <Gold.PLP.ligand.torsion>
0.0000

> <Gold.PLP.Chemscore.Hbond>
1.0000

> <Gold.PLP.Chemscore.CHOScore>
0.0000

> <Gold.PLP.Chemscore.Metal>
0.0000

> <Gold.Chemscore.Hbonds>
donor molecule, donor type, donor heavy atom, donor atom, acceptor molecule, acceptor atom, score
      L1  H     1    15       P1   582  1.00

> <Gold.PLP.Chemscore.Internal.Correction>
0.0000

