#       Name:                EN300-26967_i001
#       Creating user name   aseyller
#       Creation time:       Fri Apr 21 12:18:05 2023


#       File generated by GOLD software.
#

@<TRIPOS>MOLECULE
EN300-26967_i001|amine_1|mol2|12|dock16
    16    16     1
SMALL
USER_CHARGES


@<TRIPOS>ATOM
      1 N1          31.3087  35.5008  39.2466 N.pl3          1 <1>                0.0000
      2 C2          30.1958  36.2044  38.7802 C.ar           1 <1>                0.0000
      3 C3          30.2541  36.8684  37.5602 C.ar           1 <1>                0.0000
      4 C4          29.1557  37.5661  37.0950 C.ar           1 <1>                0.0000
      5 C5          27.9935  37.6086  37.8386 C.ar           1 <1>                0.0000
      6 C6          27.9248  36.9454  39.0646 C.ar           1 <1>                0.0000
      7 C7          26.7204  36.9885  39.8380 C.1            1 <1>                0.0000
      8 C8          25.7331  37.0239  40.4721 C.1            1 <1>                0.0000
      9 C9          29.0308  36.2361  39.5315 C.ar           1 <1>                0.0000
     10 H10         31.1608  36.8390  36.9742 H              1 <1>                0.0000
     11 H11         29.2069  38.0803  36.1466 H              1 <1>                0.0000
     12 H12         27.1374  38.1552  37.4717 H              1 <1>                0.0000
     13 H13         24.8499  37.0556  41.0392 H              1 <1>                0.0000
     14 H14         28.9834  35.7210  40.4795 H              1 <1>                0.0000
     15 H15         32.1224  35.4754  38.7191 H              1 <1>                0.0000
     16 H16         31.2693  35.0409  40.0997 H              1 <1>                0.0000
@<TRIPOS>BOND
    1    1    2 1     
    2    1   15 1     
    3    1   16 1     
    4    2    3 ar    
    5    2    9 ar    
    6    3    4 ar    
    7    3   10 1     
    8    4    5 ar    
    9    4   11 1     
   10    5    6 ar    
   11    5   12 1     
   12    6    7 1     
   13    6    9 ar    
   14    7    8 3     
   15    8   13 1     
   16    9   14 1     
@<TRIPOS>SUBSTRUCTURE
      1 ****           1
@<TRIPOS>SET
DONOR_HYDROGENS      STATIC     ATOMS    <user>   **** ""
2 15 16
ATOM$RED        STATIC     ATOMS    COLORGROUP SYSTEM
2 15 16
@<TRIPOS>COMMENT
> <Gold.Version>
2022.2.0

> <Gold.Id.Protein>
1qkm|1qkm_protein|mol2

> <Gold.Protein.RotatedTorsions>
[  496  491  490  487 ] final -134.46 input  -89.99 | X-H torsion

> <Gold.Protein.ActiveResidues>
 MET295  LEU298  THR299  LEU301  ALA302  GLU305  TRP335  MET336  LEU339  MET340 
 GLY342  LEU343  ARG346  PHE356  ILE373  ILE376  PHE377  LEU380  LYS471  GLY472 
 MET473  HIS475  LEU476  LEU477  ASN478  MET479  VAL484  VAL487 

> <Gold.Protein.RotatedAtoms>
   37.1369   34.1564   40.7352 H   0  0  0  0  0  0  0  0  0  0  0  0  # atno 496  bound_to 491 

> <Gold.Score>
     Score     S(PLP)   S(hbond)     S(cho)   S(metal)  DE(clash)   DE(tors)     intcor
     32.84     -30.22       0.87       0.00       0.00       0.00       0.00       0.00

> <Gold.PLP.Fitness>
32.8440

> <Gold.PLP.PLP>
-30.2232

> <Gold.PLP.part.hbond>
-1.0000

> <Gold.PLP.part.metal>
0.0000

> <Gold.PLP.part.buried>
-0.2678

> <Gold.PLP.part.nonpolar>
-28.6981

> <Gold.PLP.part.repulsive>
0.0690

> <Gold.PLP.ligand.clash>
0.0000

> <Gold.PLP.ligand.torsion>
0.0000

> <Gold.PLP.Chemscore.Hbond>
0.8736

> <Gold.PLP.Chemscore.CHOScore>
0.0000

> <Gold.PLP.Chemscore.Metal>
0.0000

> <Gold.Chemscore.Hbonds>
donor molecule, donor type, donor heavy atom, donor atom, acceptor molecule, acceptor atom, score
      L1  H     1    16       P1   470  0.87

> <Gold.PLP.Chemscore.Internal.Correction>
0.0000

