#       Name:                EN300-26967_i001
#       Creating user name   aseyller
#       Creation time:       Fri Apr 21 12:18:02 2023


#       File generated by GOLD software.
#

@<TRIPOS>MOLECULE
EN300-26967_i001|amine_1|mol2|12|dock2
    16    16     1
SMALL
USER_CHARGES


@<TRIPOS>ATOM
      1 N1          25.2071  36.0942  41.6543 N.pl3          1 <1>                0.0000
      2 C2          26.0073  36.4205  40.5569 C.ar           1 <1>                0.0000
      3 C3          25.5314  37.2923  39.5841 C.ar           1 <1>                0.0000
      4 C4          26.3193  37.6177  38.4964 C.ar           1 <1>                0.0000
      5 C5          27.5840  37.0793  38.3686 C.ar           1 <1>                0.0000
      6 C6          28.0709  36.2032  39.3397 C.ar           1 <1>                0.0000
      7 C7          29.3823  35.6430  39.2089 C.1            1 <1>                0.0000
      8 C8          30.4573  35.1837  39.1016 C.1            1 <1>                0.0000
      9 C9          27.2786  35.8794  40.4405 C.ar           1 <1>                0.0000
     10 H10         24.5427  37.7164  39.6786 H              1 <1>                0.0000
     11 H11         25.9442  38.2952  37.7436 H              1 <1>                0.0000
     12 H12         28.1965  37.3358  37.5170 H              1 <1>                0.0000
     13 H13         31.4189  34.7730  39.0057 H              1 <1>                0.0000
     14 H14         27.6502  35.2021  41.1950 H              1 <1>                0.0000
     15 H15         24.3192  36.4759  41.7377 H              1 <1>                0.0000
     16 H16         25.5376  35.4828  42.3309 H              1 <1>                0.0000
@<TRIPOS>BOND
    1    1    2 1     
    2    1   15 1     
    3    1   16 1     
    4    2    3 ar    
    5    2    9 ar    
    6    3    4 ar    
    7    3   10 1     
    8    4    5 ar    
    9    4   11 1     
   10    5    6 ar    
   11    5   12 1     
   12    6    7 1     
   13    6    9 ar    
   14    7    8 3     
   15    8   13 1     
   16    9   14 1     
@<TRIPOS>SUBSTRUCTURE
      1 ****           1
@<TRIPOS>SET
DONOR_HYDROGENS      STATIC     ATOMS    <user>   **** ""
2 15 16
ATOM$RED        STATIC     ATOMS    COLORGROUP SYSTEM
2 15 16
@<TRIPOS>COMMENT
> <Gold.Version>
2022.2.0

> <Gold.Id.Protein>
1qkm|1qkm_protein|mol2

> <Gold.Protein.RotatedTorsions>
[  496  491  490  487 ] final   74.65 input  -89.99 | X-H torsion

> <Gold.Protein.ActiveResidues>
 MET295  LEU298  THR299  LEU301  ALA302  GLU305  TRP335  MET336  LEU339  MET340 
 GLY342  LEU343  ARG346  PHE356  ILE373  ILE376  PHE377  LEU380  LYS471  GLY472 
 MET473  HIS475  LEU476  LEU477  ASN478  MET479  VAL484  VAL487 

> <Gold.Protein.RotatedAtoms>
   36.6790   33.1506   42.1885 H   0  0  0  0  0  0  0  0  0  0  0  0  # atno 496  bound_to 491 

> <Gold.Score>
     Score     S(PLP)   S(hbond)     S(cho)   S(metal)  DE(clash)   DE(tors)     intcor
     38.96     -35.96       1.00       0.00       0.00       0.00       0.00       0.00

> <Gold.PLP.Fitness>
38.9631

> <Gold.PLP.PLP>
-35.9631

> <Gold.PLP.part.hbond>
-1.2243

> <Gold.PLP.part.metal>
0.0000

> <Gold.PLP.part.buried>
-2.4973

> <Gold.PLP.part.nonpolar>
-32.9421

> <Gold.PLP.part.repulsive>
0.1287

> <Gold.PLP.ligand.clash>
0.0000

> <Gold.PLP.ligand.torsion>
0.0000

> <Gold.PLP.Chemscore.Hbond>
1.0000

> <Gold.PLP.Chemscore.CHOScore>
0.0000

> <Gold.PLP.Chemscore.Metal>
0.0000

> <Gold.Chemscore.Hbonds>
donor molecule, donor type, donor heavy atom, donor atom, acceptor molecule, acceptor atom, score
      L1  H     1    16       P1   582  1.00

> <Gold.PLP.Chemscore.Internal.Correction>
0.0000

