#       Name:                EN300-26967_i001
#       Creating user name   aseyller
#       Creation time:       Fri Apr 21 12:18:02 2023


#       File generated by GOLD software.
#

@<TRIPOS>MOLECULE
EN300-26967_i001
    16    16     1
SMALL
USER_CHARGES


@<TRIPOS>ATOM
      1 N1           2.2783  -1.4482   0.0013 N.pl3          1 <1>                0.0000
      2 C2           1.2590  -0.4931   0.0004 C.ar           1 <1>                0.0000
      3 C3           1.5748   0.8608   0.0000 C.ar           1 <1>                0.0000
      4 C4           0.5698   1.8093  -0.0004 C.ar           1 <1>                0.0000
      5 C5          -0.7542   1.4188  -0.0004 C.ar           1 <1>                0.0000
      6 C6          -1.0817   0.0622   0.0000 C.ar           1 <1>                0.0000
      7 C7          -2.4545  -0.3453   0.0006 C.1            1 <1>                0.0000
      8 C8          -3.5799  -0.6794   0.0010 C.1            1 <1>                0.0000
      9 C9          -0.0679  -0.8952  -0.0058 C.ar           1 <1>                0.0000
     10 H10          2.6089   1.1723   0.0003 H              1 <1>                0.0000
     11 H11          0.8211   2.8597  -0.0004 H              1 <1>                0.0000
     12 H12         -1.5367   2.1631  -0.0004 H              1 <1>                0.0000
     13 H13         -4.5865  -0.9783   0.0014 H              1 <1>                0.0000
     14 H14         -0.3154  -1.9464  -0.0055 H              1 <1>                0.0000
     15 H15          3.2066  -1.1668   0.0017 H              1 <1>                0.0000
     16 H16          2.0579  -2.3928   0.0057 H              1 <1>                0.0000
@<TRIPOS>BOND
    1    1    2 1     
    2    1   15 1     
    3    1   16 1     
    4    2    3 ar    
    5    2    9 ar    
    6    3    4 ar    
    7    3   10 1     
    8    4    5 ar    
    9    4   11 1     
   10    5    6 ar    
   11    5   12 1     
   12    6    7 1     
   13    6    9 ar    
   14    7    8 3     
   15    8   13 1     
   16    9   14 1     
@<TRIPOS>SUBSTRUCTURE
      1 ****           1
@<TRIPOS>SET
DONOR_HYDROGENS      STATIC     ATOMS    <user>   **** ""
2 15 16
ATOM$RED        STATIC     ATOMS    COLORGROUP SYSTEM
2 15 16
