#       Name:                EN300-26967_i001
#       Creating user name   aseyller
#       Creation time:       Fri Apr 21 12:18:03 2023


#       File generated by GOLD software.
#

@<TRIPOS>MOLECULE
EN300-26967_i001|amine_1|mol2|12|dock7
    16    16     1
SMALL
USER_CHARGES


@<TRIPOS>ATOM
      1 N1          32.6768  37.1172  36.4200 N.pl3          1 <1>                0.0000
      2 C2          32.0606  36.2232  37.2987 C.ar           1 <1>                0.0000
      3 C3          32.4114  34.8781  37.2815 C.ar           1 <1>                0.0000
      4 C4          31.8042  33.9898  38.1486 C.ar           1 <1>                0.0000
      5 C5          30.8453  34.4322  39.0377 C.ar           1 <1>                0.0000
      6 C6          30.4861  35.7805  39.0629 C.ar           1 <1>                0.0000
      7 C7          29.4912  36.2417  39.9839 C.1            1 <1>                0.0000
      8 C8          28.6757  36.6198  40.7389 C.1            1 <1>                0.0000
      9 C9          31.1030  36.6782  38.1923 C.ar           1 <1>                0.0000
     10 H10         33.1607  34.5261  36.5879 H              1 <1>                0.0000
     11 H11         32.0805  32.9459  38.1305 H              1 <1>                0.0000
     12 H12         30.3729  33.7349  39.7135 H              1 <1>                0.0000
     13 H13         27.9462  36.9581  41.4142 H              1 <1>                0.0000
     14 H14         30.8290  37.7227  38.2073 H              1 <1>                0.0000
     15 H15         33.3495  36.7995  35.7976 H              1 <1>                0.0000
     16 H16         32.4290  38.0550  36.4293 H              1 <1>                0.0000
@<TRIPOS>BOND
    1    1    2 1     
    2    1   15 1     
    3    1   16 1     
    4    2    3 ar    
    5    2    9 ar    
    6    3    4 ar    
    7    3   10 1     
    8    4    5 ar    
    9    4   11 1     
   10    5    6 ar    
   11    5   12 1     
   12    6    7 1     
   13    6    9 ar    
   14    7    8 3     
   15    8   13 1     
   16    9   14 1     
@<TRIPOS>SUBSTRUCTURE
      1 ****           1
@<TRIPOS>SET
DONOR_HYDROGENS      STATIC     ATOMS    <user>   **** ""
2 15 16
ATOM$RED        STATIC     ATOMS    COLORGROUP SYSTEM
2 15 16
@<TRIPOS>COMMENT
> <Gold.Version>
2022.2.0

> <Gold.Id.Protein>
1qkm|1qkm_protein|mol2

> <Gold.Protein.RotatedTorsions>
[  496  491  490  487 ] final  -86.75 input  -89.99 | X-H torsion

> <Gold.Protein.ActiveResidues>
 MET295  LEU298  THR299  LEU301  ALA302  GLU305  TRP335  MET336  LEU339  MET340 
 GLY342  LEU343  ARG346  PHE356  ILE373  ILE376  PHE377  LEU380  LYS471  GLY472 
 MET473  HIS475  LEU476  LEU477  ASN478  MET479  VAL484  VAL487 

> <Gold.Protein.RotatedAtoms>
   36.7274   34.6733   41.1188 H   0  0  0  0  0  0  0  0  0  0  0  0  # atno 496  bound_to 491 

> <Gold.Score>
     Score     S(PLP)   S(hbond)     S(cho)   S(metal)  DE(clash)   DE(tors)     intcor
     33.79     -33.79       0.00       0.00       0.00       0.00       0.00       0.00

> <Gold.PLP.Fitness>
33.7888

> <Gold.PLP.PLP>
-33.7888

> <Gold.PLP.part.hbond>
0.0000

> <Gold.PLP.part.metal>
0.0000

> <Gold.PLP.part.buried>
-1.5443

> <Gold.PLP.part.nonpolar>
-32.2242

> <Gold.PLP.part.repulsive>
0.0000

> <Gold.PLP.ligand.clash>
0.0000

> <Gold.PLP.ligand.torsion>
0.0000

> <Gold.PLP.Chemscore.Hbond>
0.0000

> <Gold.PLP.Chemscore.CHOScore>
0.0000

> <Gold.PLP.Chemscore.Metal>
0.0000

> <Gold.PLP.Chemscore.Internal.Correction>
0.0000

