#       Name:                EN300-26967_i001
#       Creating user name   aseyller
#       Creation time:       Fri Apr 21 12:18:04 2023


#       File generated by GOLD software.
#

@<TRIPOS>MOLECULE
EN300-26967_i001|amine_1|mol2|12|dock8
    16    16     1
SMALL
USER_CHARGES


@<TRIPOS>ATOM
      1 N1          29.3294  35.7998  41.1370 N.pl3          1 <1>                0.0000
      2 C2          28.8741  36.3464  39.9349 C.ar           1 <1>                0.0000
      3 C3          27.5494  36.1737  39.5501 C.ar           1 <1>                0.0000
      4 C4          27.0946  36.7122  38.3615 C.ar           1 <1>                0.0000
      5 C5          27.9525  37.4252  37.5484 C.ar           1 <1>                0.0000
      6 C6          29.2841  37.6043  37.9257 C.ar           1 <1>                0.0000
      7 C7          30.1761  38.3431  37.0836 C.1            1 <1>                0.0000
      8 C8          30.9073  38.9488  36.3931 C.1            1 <1>                0.0000
      9 C9          29.7419  37.0663  39.1279 C.ar           1 <1>                0.0000
     10 H10         26.8736  35.6165  40.1820 H              1 <1>                0.0000
     11 H11         26.0645  36.5745  38.0675 H              1 <1>                0.0000
     12 H12         27.5933  37.8443  36.6201 H              1 <1>                0.0000
     13 H13         31.5613  39.4905  35.7756 H              1 <1>                0.0000
     14 H14         30.7713  37.2017  39.4250 H              1 <1>                0.0000
     15 H15         28.7212  35.2995  41.7034 H              1 <1>                0.0000
     16 H16         30.2546  35.9169  41.4035 H              1 <1>                0.0000
@<TRIPOS>BOND
    1    1    2 1     
    2    1   15 1     
    3    1   16 1     
    4    2    3 ar    
    5    2    9 ar    
    6    3    4 ar    
    7    3   10 1     
    8    4    5 ar    
    9    4   11 1     
   10    5    6 ar    
   11    5   12 1     
   12    6    7 1     
   13    6    9 ar    
   14    7    8 3     
   15    8   13 1     
   16    9   14 1     
@<TRIPOS>SUBSTRUCTURE
      1 ****           1
@<TRIPOS>SET
DONOR_HYDROGENS      STATIC     ATOMS    <user>   **** ""
2 15 16
ATOM$RED        STATIC     ATOMS    COLORGROUP SYSTEM
2 15 16
@<TRIPOS>COMMENT
> <Gold.Version>
2022.2.0

> <Gold.Id.Protein>
1qkm|1qkm_protein|mol2

> <Gold.Protein.RotatedTorsions>
[  496  491  490  487 ] final  150.37 input  -89.99 | X-H torsion

> <Gold.Protein.ActiveResidues>
 MET295  LEU298  THR299  LEU301  ALA302  GLU305  TRP335  MET336  LEU339  MET340 
 GLY342  LEU343  ARG346  PHE356  ILE373  ILE376  PHE377  LEU380  LYS471  GLY472 
 MET473  HIS475  LEU476  LEU477  ASN478  MET479  VAL484  VAL487 

> <Gold.Protein.RotatedAtoms>
   37.2642   33.1075   41.1905 H   0  0  0  0  0  0  0  0  0  0  0  0  # atno 496  bound_to 491 

> <Gold.Score>
     Score     S(PLP)   S(hbond)     S(cho)   S(metal)  DE(clash)   DE(tors)     intcor
     34.42     -31.54       0.96       0.00       0.00       0.00       0.00       0.00

> <Gold.PLP.Fitness>
34.4156

> <Gold.PLP.PLP>
-31.5356

> <Gold.PLP.part.hbond>
-1.0000

> <Gold.PLP.part.metal>
0.0000

> <Gold.PLP.part.buried>
-2.0337

> <Gold.PLP.part.nonpolar>
-29.3694

> <Gold.PLP.part.repulsive>
0.0807

> <Gold.PLP.ligand.clash>
0.0000

> <Gold.PLP.ligand.torsion>
0.0000

> <Gold.PLP.Chemscore.Hbond>
0.9600

> <Gold.PLP.Chemscore.CHOScore>
0.0000

> <Gold.PLP.Chemscore.Metal>
0.0000

> <Gold.Chemscore.Hbonds>
donor molecule, donor type, donor heavy atom, donor atom, acceptor molecule, acceptor atom, score
      L1  H     1    16       P1   470  0.96

> <Gold.PLP.Chemscore.Internal.Correction>
0.0000

