#       Name:                EN300-26967_i001
#       Creating user name   aseyller
#       Creation time:       Fri Apr 21 12:18:04 2023


#       File generated by GOLD software.
#

@<TRIPOS>MOLECULE
EN300-26967_i001|amine_1|mol2|12|dock9
    16    16     1
SMALL
USER_CHARGES


@<TRIPOS>ATOM
      1 N1          28.9932  35.7965  41.8358 N.pl3          1 <1>                0.0000
      2 C2          28.7994  36.1946  40.5109 C.ar           1 <1>                0.0000
      3 C3          27.5108  36.3372  40.0092 C.ar           1 <1>                0.0000
      4 C4          27.3142  36.7304  38.6990 C.ar           1 <1>                0.0000
      5 C5          28.3959  36.9841  37.8799 C.ar           1 <1>                0.0000
      6 C6          29.6935  36.8439  38.3741 C.ar           1 <1>                0.0000
      7 C7          30.8173  37.1060  37.5261 C.1            1 <1>                0.0000
      8 C8          31.7385  37.3209  36.8308 C.1            1 <1>                0.0000
      9 C9          29.8923  36.4531  39.6978 C.ar           1 <1>                0.0000
     10 H10         26.6606  36.1398  40.6452 H              1 <1>                0.0000
     11 H11         26.3108  36.8392  38.3145 H              1 <1>                0.0000
     12 H12         28.2382  37.2909  36.8566 H              1 <1>                0.0000
     13 H13         32.5625  37.5132  36.2090 H              1 <1>                0.0000
     14 H14         30.8942  36.3430  40.0856 H              1 <1>                0.0000
     15 H15         28.2285  35.6195  42.4057 H              1 <1>                0.0000
     16 H16         29.8923  35.6931  42.1846 H              1 <1>                0.0000
@<TRIPOS>BOND
    1    1    2 1     
    2    1   15 1     
    3    1   16 1     
    4    2    3 ar    
    5    2    9 ar    
    6    3    4 ar    
    7    3   10 1     
    8    4    5 ar    
    9    4   11 1     
   10    5    6 ar    
   11    5   12 1     
   12    6    7 1     
   13    6    9 ar    
   14    7    8 3     
   15    8   13 1     
   16    9   14 1     
@<TRIPOS>SUBSTRUCTURE
      1 ****           1
@<TRIPOS>SET
DONOR_HYDROGENS      STATIC     ATOMS    <user>   **** ""
2 15 16
ATOM$RED        STATIC     ATOMS    COLORGROUP SYSTEM
2 15 16
@<TRIPOS>COMMENT
> <Gold.Version>
2022.2.0

> <Gold.Id.Protein>
1qkm|1qkm_protein|mol2

> <Gold.Protein.RotatedTorsions>
[  496  491  490  487 ] final -138.34 input  -89.99 | X-H torsion

> <Gold.Protein.ActiveResidues>
 MET295  LEU298  THR299  LEU301  ALA302  GLU305  TRP335  MET336  LEU339  MET340 
 GLY342  LEU343  ARG346  PHE356  ILE373  ILE376  PHE377  LEU380  LYS471  GLY472 
 MET473  HIS475  LEU476  LEU477  ASN478  MET479  VAL484  VAL487 

> <Gold.Protein.RotatedAtoms>
   37.1631   34.0989   40.7264 H   0  0  0  0  0  0  0  0  0  0  0  0  # atno 496  bound_to 491 

> <Gold.Score>
     Score     S(PLP)   S(hbond)     S(cho)   S(metal)  DE(clash)   DE(tors)     intcor
     32.82     -29.82       1.00       0.00       0.00       0.00       0.00       0.00

> <Gold.PLP.Fitness>
32.8221

> <Gold.PLP.PLP>
-29.8221

> <Gold.PLP.part.hbond>
-1.0000

> <Gold.PLP.part.metal>
0.0000

> <Gold.PLP.part.buried>
-2.3197

> <Gold.PLP.part.nonpolar>
-27.3621

> <Gold.PLP.part.repulsive>
0.0893

> <Gold.PLP.ligand.clash>
0.0000

> <Gold.PLP.ligand.torsion>
0.0000

> <Gold.PLP.Chemscore.Hbond>
1.0000

> <Gold.PLP.Chemscore.CHOScore>
0.0000

> <Gold.PLP.Chemscore.Metal>
0.0000

> <Gold.Chemscore.Hbonds>
donor molecule, donor type, donor heavy atom, donor atom, acceptor molecule, acceptor atom, score
      L1  H     1    16       P1   470  1.00

> <Gold.PLP.Chemscore.Internal.Correction>
0.0000

