#       Name:                EN300-26967_i001
#       Creating user name   aseyller
#       Creation time:       Fri Apr 21 12:18:03 2023


#       File generated by GOLD software.
#

@<TRIPOS>MOLECULE
EN300-26967_i001|amine_1|mol2|12|dock6
    16    16     1
SMALL
USER_CHARGES


@<TRIPOS>ATOM
      1 N1          27.8538  35.4944  42.3969 N.pl3          1 <1>                0.0000
      2 C2          27.8874  35.9059  41.0625 C.ar           1 <1>                0.0000
      3 C3          26.7006  36.1094  40.3675 C.ar           1 <1>                0.0000
      4 C4          26.7289  36.5160  39.0471 C.ar           1 <1>                0.0000
      5 C5          27.9356  36.7228  38.4095 C.ar           1 <1>                0.0000
      6 C6          29.1325  36.5213  39.0983 C.ar           1 <1>                0.0000
      7 C7          30.3855  36.7347  38.4387 C.1            1 <1>                0.0000
      8 C8          31.4127  36.9095  37.8979 C.1            1 <1>                0.0000
      9 C9          29.1043  36.1170  40.4325 C.ar           1 <1>                0.0000
     10 H10         25.7535  35.9489  40.8611 H              1 <1>                0.0000
     11 H11         25.8038  36.6723  38.5121 H              1 <1>                0.0000
     12 H12         27.9535  37.0403  37.3774 H              1 <1>                0.0000
     13 H13         32.3315  37.0659  37.4142 H              1 <1>                0.0000
     14 H14         30.0274  35.9595  40.9705 H              1 <1>                0.0000
     15 H15         27.0023  35.3506  42.8388 H              1 <1>                0.0000
     16 H16         28.6818  35.3486  42.8806 H              1 <1>                0.0000
@<TRIPOS>BOND
    1    1    2 1     
    2    1   15 1     
    3    1   16 1     
    4    2    3 ar    
    5    2    9 ar    
    6    3    4 ar    
    7    3   10 1     
    8    4    5 ar    
    9    4   11 1     
   10    5    6 ar    
   11    5   12 1     
   12    6    7 1     
   13    6    9 ar    
   14    7    8 3     
   15    8   13 1     
   16    9   14 1     
@<TRIPOS>SUBSTRUCTURE
      1 ****           1
@<TRIPOS>SET
DONOR_HYDROGENS      STATIC     ATOMS    <user>   **** ""
2 15 16
ATOM$RED        STATIC     ATOMS    COLORGROUP SYSTEM
2 15 16
@<TRIPOS>COMMENT
> <Gold.Version>
2022.2.0

> <Gold.Id.Protein>
1qkm|1qkm_protein|mol2

> <Gold.Protein.RotatedTorsions>
[  496  491  490  487 ] final   74.41 input  -89.99 | X-H torsion

> <Gold.Protein.ActiveResidues>
 MET295  LEU298  THR299  LEU301  ALA302  GLU305  TRP335  MET336  LEU339  MET340 
 GLY342  LEU343  ARG346  PHE356  ILE373  ILE376  PHE377  LEU380  LYS471  GLY472 
 MET473  HIS475  LEU476  LEU477  ASN478  MET479  VAL484  VAL487 

> <Gold.Protein.RotatedAtoms>
   36.6769   33.1530   42.1907 H   0  0  0  0  0  0  0  0  0  0  0  0  # atno 496  bound_to 491 

> <Gold.Score>
     Score     S(PLP)   S(hbond)     S(cho)   S(metal)  DE(clash)   DE(tors)     intcor
     37.15     -34.15       1.00       0.00       0.00       0.00       0.00       0.00

> <Gold.PLP.Fitness>
37.1474

> <Gold.PLP.PLP>
-34.1474

> <Gold.PLP.part.hbond>
-0.6893

> <Gold.PLP.part.metal>
0.0000

> <Gold.PLP.part.buried>
-1.4101

> <Gold.PLP.part.nonpolar>
-31.3290

> <Gold.PLP.part.repulsive>
0.0817

> <Gold.PLP.ligand.clash>
0.0000

> <Gold.PLP.ligand.torsion>
0.0000

> <Gold.PLP.Chemscore.Hbond>
1.0000

> <Gold.PLP.Chemscore.CHOScore>
0.0000

> <Gold.PLP.Chemscore.Metal>
0.0000

> <Gold.Chemscore.Hbonds>
donor molecule, donor type, donor heavy atom, donor atom, acceptor molecule, acceptor atom, score
      L1  H     1    15       P1   582  1.00

> <Gold.PLP.Chemscore.Internal.Correction>
0.0000

