#       Name:                EN300-26967_i001
#       Creating user name   aseyller
#       Creation time:       Fri Apr 21 12:18:06 2023


#       File generated by GOLD software.
#

@<TRIPOS>MOLECULE
EN300-26967_i001|amine_1|mol2|12|dock20
    16    16     1
SMALL
USER_CHARGES


@<TRIPOS>ATOM
      1 N1          30.6573  38.1172  36.3509 N.pl3          1 <1>                0.0000
      2 C2          30.0473  37.4855  37.4371 C.ar           1 <1>                0.0000
      3 C3          30.8031  36.6966  38.2969 C.ar           1 <1>                0.0000
      4 C4          30.2038  36.0693  39.3725 C.ar           1 <1>                0.0000
      5 C5          28.8510  36.2217  39.6005 C.ar           1 <1>                0.0000
      6 C6          28.0835  37.0115  38.7433 C.ar           1 <1>                0.0000
      7 C7          26.6797  37.1707  38.9774 C.1            1 <1>                0.0000
      8 C8          25.5290  37.3013  39.1693 C.1            1 <1>                0.0000
      9 C9          28.6889  37.6497  37.6613 C.ar           1 <1>                0.0000
     10 H10         31.8619  36.5733  38.1234 H              1 <1>                0.0000
     11 H11         30.7959  35.4573  40.0370 H              1 <1>                0.0000
     12 H12         28.3863  35.7296  40.4420 H              1 <1>                0.0000
     13 H13         24.4997  37.4181  39.3409 H              1 <1>                0.0000
     14 H14         28.1000  38.2620  36.9946 H              1 <1>                0.0000
     15 H15         31.6084  38.0055  36.1964 H              1 <1>                0.0000
     16 H16         30.1292  38.6643  35.7487 H              1 <1>                0.0000
@<TRIPOS>BOND
    1    1    2 1     
    2    1   15 1     
    3    1   16 1     
    4    2    3 ar    
    5    2    9 ar    
    6    3    4 ar    
    7    3   10 1     
    8    4    5 ar    
    9    4   11 1     
   10    5    6 ar    
   11    5   12 1     
   12    6    7 1     
   13    6    9 ar    
   14    7    8 3     
   15    8   13 1     
   16    9   14 1     
@<TRIPOS>SUBSTRUCTURE
      1 ****           1
@<TRIPOS>SET
DONOR_HYDROGENS      STATIC     ATOMS    <user>   **** ""
2 15 16
ATOM$RED        STATIC     ATOMS    COLORGROUP SYSTEM
2 15 16
@<TRIPOS>COMMENT
> <Gold.Version>
2022.2.0

> <Gold.Id.Protein>
1qkm|1qkm_protein|mol2

> <Gold.Protein.RotatedTorsions>
[  496  491  490  487 ] final  -60.15 input  -89.99 | X-H torsion

> <Gold.Protein.ActiveResidues>
 MET295  LEU298  THR299  LEU301  ALA302  GLU305  TRP335  MET336  LEU339  MET340 
 GLY342  LEU343  ARG346  PHE356  ILE373  ILE376  PHE377  LEU380  LYS471  GLY472 
 MET473  HIS475  LEU476  LEU477  ASN478  MET479  VAL484  VAL487 

> <Gold.Protein.RotatedAtoms>
   36.4981   34.7322   41.4826 H   0  0  0  0  0  0  0  0  0  0  0  0  # atno 496  bound_to 491 

> <Gold.Score>
     Score     S(PLP)   S(hbond)     S(cho)   S(metal)  DE(clash)   DE(tors)     intcor
     31.56     -31.56       0.00       0.00       0.00       0.00       0.00       0.00

> <Gold.PLP.Fitness>
31.5645

> <Gold.PLP.PLP>
-31.5645

> <Gold.PLP.part.hbond>
0.0000

> <Gold.PLP.part.metal>
0.0000

> <Gold.PLP.part.buried>
-1.3324

> <Gold.PLP.part.nonpolar>
-30.6214

> <Gold.PLP.part.repulsive>
0.0000

> <Gold.PLP.ligand.clash>
0.0000

> <Gold.PLP.ligand.torsion>
0.0000

> <Gold.PLP.Chemscore.Hbond>
0.0000

> <Gold.PLP.Chemscore.CHOScore>
0.0000

> <Gold.PLP.Chemscore.Metal>
0.0000

> <Gold.PLP.Chemscore.Internal.Correction>
0.0000

