#       Name:                EN300-26967_i001
#       Creating user name   aseyller
#       Creation time:       Fri Apr 21 12:18:05 2023


#       File generated by GOLD software.
#

@<TRIPOS>MOLECULE
EN300-26967_i001|amine_1|mol2|12|dock15
    16    16     1
SMALL
USER_CHARGES


@<TRIPOS>ATOM
      1 N1          26.2220  35.8106  41.4245 N.pl3          1 <1>                0.0000
      2 C2          26.9567  36.2022  40.3029 C.ar           1 <1>                0.0000
      3 C3          26.3574  36.9738  39.3138 C.ar           1 <1>                0.0000
      4 C4          27.0801  37.3632  38.2021 C.ar           1 <1>                0.0000
      5 C5          28.4018  36.9886  38.0664 C.ar           1 <1>                0.0000
      6 C6          29.0126  36.2141  39.0536 C.ar           1 <1>                0.0000
      7 C7          30.3834  35.8238  38.9147 C.1            1 <1>                0.0000
      8 C8          31.5071  35.5038  38.8007 C.1            1 <1>                0.0000
      9 C9          28.2855  35.8262  40.1785 C.ar           1 <1>                0.0000
     10 H10         25.3236  37.2696  39.4144 H              1 <1>                0.0000
     11 H11         26.6092  37.9623  37.4368 H              1 <1>                0.0000
     12 H12         28.9631  37.2946  37.1960 H              1 <1>                0.0000
     13 H13         32.5122  35.2177  38.6988 H              1 <1>                0.0000
     14 H14         28.7529  35.2268  40.9456 H              1 <1>                0.0000
     15 H15         25.2936  36.0771  41.5133 H              1 <1>                0.0000
     16 H16         26.6391  35.2689  42.1126 H              1 <1>                0.0000
@<TRIPOS>BOND
    1    1    2 1     
    2    1   15 1     
    3    1   16 1     
    4    2    3 ar    
    5    2    9 ar    
    6    3    4 ar    
    7    3   10 1     
    8    4    5 ar    
    9    4   11 1     
   10    5    6 ar    
   11    5   12 1     
   12    6    7 1     
   13    6    9 ar    
   14    7    8 3     
   15    8   13 1     
   16    9   14 1     
@<TRIPOS>SUBSTRUCTURE
      1 ****           1
@<TRIPOS>SET
DONOR_HYDROGENS      STATIC     ATOMS    <user>   **** ""
2 15 16
ATOM$RED        STATIC     ATOMS    COLORGROUP SYSTEM
2 15 16
@<TRIPOS>COMMENT
> <Gold.Version>
2022.2.0

> <Gold.Id.Protein>
1qkm|1qkm_protein|mol2

> <Gold.Protein.RotatedTorsions>
[  496  491  490  487 ] final  -57.22 input  -89.99 | X-H torsion

> <Gold.Protein.ActiveResidues>
 MET295  LEU298  THR299  LEU301  ALA302  GLU305  TRP335  MET336  LEU339  MET340 
 GLY342  LEU343  ARG346  PHE356  ILE373  ILE376  PHE377  LEU380  LYS471  GLY472 
 MET473  HIS475  LEU476  LEU477  ASN478  MET479  VAL484  VAL487 

> <Gold.Protein.RotatedAtoms>
   36.4759   34.7270   41.5250 H   0  0  0  0  0  0  0  0  0  0  0  0  # atno 496  bound_to 491 

> <Gold.Score>
     Score     S(PLP)   S(hbond)     S(cho)   S(metal)  DE(clash)   DE(tors)     intcor
     36.13     -34.02       0.70       0.00       0.00       0.00       0.00       0.00

> <Gold.PLP.Fitness>
36.1288

> <Gold.PLP.PLP>
-34.0168

> <Gold.PLP.part.hbond>
-1.0000

> <Gold.PLP.part.metal>
0.0000

> <Gold.PLP.part.buried>
-2.3419

> <Gold.PLP.part.nonpolar>
-30.6912

> <Gold.PLP.part.repulsive>
0.0457

> <Gold.PLP.ligand.clash>
0.0000

> <Gold.PLP.ligand.torsion>
0.0000

> <Gold.PLP.Chemscore.Hbond>
0.7040

> <Gold.PLP.Chemscore.CHOScore>
0.0000

> <Gold.PLP.Chemscore.Metal>
0.0000

> <Gold.Chemscore.Hbonds>
donor molecule, donor type, donor heavy atom, donor atom, acceptor molecule, acceptor atom, score
      L1  H     1    16       P1   582  0.70

> <Gold.PLP.Chemscore.Internal.Correction>
0.0000

