#       Name:                EN300-26967_i001
#       Creating user name   aseyller
#       Creation time:       Fri Apr 21 12:18:05 2023


#       File generated by GOLD software.
#

@<TRIPOS>MOLECULE
EN300-26967_i001|amine_1|mol2|12|dock17
    16    16     1
SMALL
USER_CHARGES


@<TRIPOS>ATOM
      1 N1          31.1295  37.9397  35.5115 N.pl3          1 <1>                0.0000
      2 C2          31.2452  37.0892  36.6135 C.ar           1 <1>                0.0000
      3 C3          32.1993  36.0780  36.6142 C.ar           1 <1>                0.0000
      4 C4          32.3171  35.2339  37.7020 C.ar           1 <1>                0.0000
      5 C5          31.4884  35.3891  38.7949 C.ar           1 <1>                0.0000
      6 C6          30.5274  36.4011  38.8040 C.ar           1 <1>                0.0000
      7 C7          29.6662  36.5636  39.9365 C.1            1 <1>                0.0000
      8 C8          28.9602  36.6968  40.8649 C.1            1 <1>                0.0000
      9 C9          30.4123  37.2569  37.7092 C.ar           1 <1>                0.0000
     10 H10         32.8503  35.9516  35.7618 H              1 <1>                0.0000
     11 H11         33.0600  34.4499  37.6968 H              1 <1>                0.0000
     12 H12         31.5834  34.7272  39.6429 H              1 <1>                0.0000
     13 H13         28.3287  36.8159  41.6954 H              1 <1>                0.0000
     14 H14         29.6705  38.0418  37.7107 H              1 <1>                0.0000
     15 H15         31.7149  37.8248  34.7466 H              1 <1>                0.0000
     16 H16         30.4611  38.6427  35.5093 H              1 <1>                0.0000
@<TRIPOS>BOND
    1    1    2 1     
    2    1   15 1     
    3    1   16 1     
    4    2    3 ar    
    5    2    9 ar    
    6    3    4 ar    
    7    3   10 1     
    8    4    5 ar    
    9    4   11 1     
   10    5    6 ar    
   11    5   12 1     
   12    6    7 1     
   13    6    9 ar    
   14    7    8 3     
   15    8   13 1     
   16    9   14 1     
@<TRIPOS>SUBSTRUCTURE
      1 ****           1
@<TRIPOS>SET
DONOR_HYDROGENS      STATIC     ATOMS    <user>   **** ""
2 15 16
ATOM$RED        STATIC     ATOMS    COLORGROUP SYSTEM
2 15 16
@<TRIPOS>COMMENT
> <Gold.Version>
2022.2.0

> <Gold.Id.Protein>
1qkm|1qkm_protein|mol2

> <Gold.Protein.RotatedTorsions>
[  496  491  490  487 ] final  108.82 input  -89.99 | X-H torsion

> <Gold.Protein.ActiveResidues>
 MET295  LEU298  THR299  LEU301  ALA302  GLU305  TRP335  MET336  LEU339  MET340 
 GLY342  LEU343  ARG346  PHE356  ILE373  ILE376  PHE377  LEU380  LYS471  GLY472 
 MET473  HIS475  LEU476  LEU477  ASN478  MET479  VAL484  VAL487 

> <Gold.Protein.RotatedAtoms>
   36.9892   32.9443   41.7782 H   0  0  0  0  0  0  0  0  0  0  0  0  # atno 496  bound_to 491 

> <Gold.Score>
     Score     S(PLP)   S(hbond)     S(cho)   S(metal)  DE(clash)   DE(tors)     intcor
     31.54     -31.54       0.00       0.00       0.00       0.00       0.00       0.00

> <Gold.PLP.Fitness>
31.5420

> <Gold.PLP.PLP>
-31.5420

> <Gold.PLP.part.hbond>
0.0000

> <Gold.PLP.part.metal>
0.0000

> <Gold.PLP.part.buried>
-1.5207

> <Gold.PLP.part.nonpolar>
-29.8576

> <Gold.PLP.part.repulsive>
0.0000

> <Gold.PLP.ligand.clash>
0.0000

> <Gold.PLP.ligand.torsion>
0.0000

> <Gold.PLP.Chemscore.Hbond>
0.0000

> <Gold.PLP.Chemscore.CHOScore>
0.0000

> <Gold.PLP.Chemscore.Metal>
0.0000

> <Gold.PLP.Chemscore.Internal.Correction>
0.0000

