#       Name:                EN300-26967_i001
#       Creating user name   aseyller
#       Creation time:       Fri Apr 21 12:18:05 2023


#       File generated by GOLD software.
#

@<TRIPOS>MOLECULE
EN300-26967_i001|amine_1|mol2|12|dock14
    16    16     1
SMALL
USER_CHARGES


@<TRIPOS>ATOM
      1 N1          34.2047  36.7626  34.6059 N.pl3          1 <1>                0.0000
      2 C2          32.9410  37.1988  35.0111 C.ar           1 <1>                0.0000
      3 C3          32.2121  38.0641  34.2032 C.ar           1 <1>                0.0000
      4 C4          30.9618  38.4987  34.6000 C.ar           1 <1>                0.0000
      5 C5          30.4283  38.0765  35.8011 C.ar           1 <1>                0.0000
      6 C6          31.1520  37.2079  36.6193 C.ar           1 <1>                0.0000
      7 C7          30.6009  36.7691  37.8661 C.1            1 <1>                0.0000
      8 C8          30.1491  36.4095  38.8882 C.1            1 <1>                0.0000
      9 C9          32.4111  36.7644  36.2164 C.ar           1 <1>                0.0000
     10 H10         32.6245  38.3980  33.2625 H              1 <1>                0.0000
     11 H11         30.4002  39.1711  33.9684 H              1 <1>                0.0000
     12 H12         29.4510  38.4186  36.1079 H              1 <1>                0.0000
     13 H13         29.7449  36.0878  39.8024 H              1 <1>                0.0000
     14 H14         32.9756  36.0922  36.8455 H              1 <1>                0.0000
     15 H15         34.5737  37.0635  33.7608 H              1 <1>                0.0000
     16 H16         34.7149  36.1621  35.1715 H              1 <1>                0.0000
@<TRIPOS>BOND
    1    1    2 1     
    2    1   15 1     
    3    1   16 1     
    4    2    3 ar    
    5    2    9 ar    
    6    3    4 ar    
    7    3   10 1     
    8    4    5 ar    
    9    4   11 1     
   10    5    6 ar    
   11    5   12 1     
   12    6    7 1     
   13    6    9 ar    
   14    7    8 3     
   15    8   13 1     
   16    9   14 1     
@<TRIPOS>SUBSTRUCTURE
      1 ****           1
@<TRIPOS>SET
DONOR_HYDROGENS      STATIC     ATOMS    <user>   **** ""
2 15 16
ATOM$RED        STATIC     ATOMS    COLORGROUP SYSTEM
2 15 16
@<TRIPOS>COMMENT
> <Gold.Version>
2022.2.0

> <Gold.Id.Protein>
1qkm|1qkm_protein|mol2

> <Gold.Protein.RotatedTorsions>
[  496  491  490  487 ] final   26.48 input  -89.99 | X-H torsion

> <Gold.Protein.ActiveResidues>
 MET295  LEU298  THR299  LEU301  ALA302  GLU305  TRP335  MET336  LEU339  MET340 
 GLY342  LEU343  ARG346  PHE356  ILE373  ILE376  PHE377  LEU380  LYS471  GLY472 
 MET473  HIS475  LEU476  LEU477  ASN478  MET479  VAL484  VAL487 

> <Gold.Protein.RotatedAtoms>
   36.3292   33.8105   42.3749 H   0  0  0  0  0  0  0  0  0  0  0  0  # atno 496  bound_to 491 

> <Gold.Score>
     Score     S(PLP)   S(hbond)     S(cho)   S(metal)  DE(clash)   DE(tors)     intcor
     34.21     -31.29       0.98       0.00       0.00       0.00       0.00       0.00

> <Gold.PLP.Fitness>
34.2147

> <Gold.PLP.PLP>
-31.2867

> <Gold.PLP.part.hbond>
-1.0000

> <Gold.PLP.part.metal>
0.0000

> <Gold.PLP.part.buried>
-1.7692

> <Gold.PLP.part.nonpolar>
-28.3348

> <Gold.PLP.part.repulsive>
0.0922

> <Gold.PLP.ligand.clash>
0.0000

> <Gold.PLP.ligand.torsion>
0.0000

> <Gold.PLP.Chemscore.Hbond>
0.9760

> <Gold.PLP.Chemscore.CHOScore>
0.0000

> <Gold.PLP.Chemscore.Metal>
0.0000

> <Gold.Chemscore.Hbonds>
donor molecule, donor type, donor heavy atom, donor atom, acceptor molecule, acceptor atom, score
      L1  H     1    15       P1  3229  0.98

> <Gold.PLP.Chemscore.Internal.Correction>
0.0000

