#       Name:                EN300-26967_i001
#       Creating user name   aseyller
#       Creation time:       Fri Apr 21 12:18:05 2023


#       File generated by GOLD software.
#

@<TRIPOS>MOLECULE
EN300-26967_i001|amine_1|mol2|12|dock13
    16    16     1
SMALL
USER_CHARGES


@<TRIPOS>ATOM
      1 N1          25.6614  36.0290  41.2515 N.pl3          1 <1>                0.0000
      2 C2          26.9232  36.1831  40.6724 C.ar           1 <1>                0.0000
      3 C3          28.0294  35.5614  41.2403 C.ar           1 <1>                0.0000
      4 C4          29.2798  35.7113  40.6712 C.ar           1 <1>                0.0000
      5 C5          29.4386  36.4792  39.5352 C.ar           1 <1>                0.0000
      6 C6          28.3344  37.1074  38.9574 C.ar           1 <1>                0.0000
      7 C7          28.4969  37.9050  37.7792 C.1            1 <1>                0.0000
      8 C8          28.6301  38.5590  36.8134 C.1            1 <1>                0.0000
      9 C9          27.0716  36.9514  39.5278 C.ar           1 <1>                0.0000
     10 H10         27.9113  34.9596  42.1293 H              1 <1>                0.0000
     11 H11         30.1356  35.2263  41.1169 H              1 <1>                0.0000
     12 H12         30.4174  36.5942  39.0936 H              1 <1>                0.0000
     13 H13         28.7493  39.1438  35.9495 H              1 <1>                0.0000
     14 H14         26.2136  37.4351  39.0850 H              1 <1>                0.0000
     15 H15         25.5570  35.4883  42.0500 H              1 <1>                0.0000
     16 H16         24.8902  36.4661  40.8575 H              1 <1>                0.0000
@<TRIPOS>BOND
    1    1    2 1     
    2    1   15 1     
    3    1   16 1     
    4    2    3 ar    
    5    2    9 ar    
    6    3    4 ar    
    7    3   10 1     
    8    4    5 ar    
    9    4   11 1     
   10    5    6 ar    
   11    5   12 1     
   12    6    7 1     
   13    6    9 ar    
   14    7    8 3     
   15    8   13 1     
   16    9   14 1     
@<TRIPOS>SUBSTRUCTURE
      1 ****           1
@<TRIPOS>SET
DONOR_HYDROGENS      STATIC     ATOMS    <user>   **** ""
2 15 16
ATOM$RED        STATIC     ATOMS    COLORGROUP SYSTEM
2 15 16
@<TRIPOS>COMMENT
> <Gold.Version>
2022.2.0

> <Gold.Id.Protein>
1qkm|1qkm_protein|mol2

> <Gold.Protein.RotatedTorsions>
[  496  491  490  487 ] final  165.82 input  -89.99 | X-H torsion

> <Gold.Protein.ActiveResidues>
 MET295  LEU298  THR299  LEU301  ALA302  GLU305  TRP335  MET336  LEU339  MET340 
 GLY342  LEU343  ARG346  PHE356  ILE373  ILE376  PHE377  LEU380  LYS471  GLY472 
 MET473  HIS475  LEU476  LEU477  ASN478  MET479  VAL484  VAL487 

> <Gold.Protein.RotatedAtoms>
   37.3094   33.2733   41.0040 H   0  0  0  0  0  0  0  0  0  0  0  0  # atno 496  bound_to 491 

> <Gold.Score>
     Score     S(PLP)   S(hbond)     S(cho)   S(metal)  DE(clash)   DE(tors)     intcor
     33.36     -30.36       1.00       0.00       0.00       0.00       0.00       0.00

> <Gold.PLP.Fitness>
33.3624

> <Gold.PLP.PLP>
-30.3624

> <Gold.PLP.part.hbond>
-1.0000

> <Gold.PLP.part.metal>
0.0000

> <Gold.PLP.part.buried>
-0.1992

> <Gold.PLP.part.nonpolar>
-29.8130

> <Gold.PLP.part.repulsive>
0.0836

> <Gold.PLP.ligand.clash>
0.0000

> <Gold.PLP.ligand.torsion>
0.0000

> <Gold.PLP.Chemscore.Hbond>
1.0000

> <Gold.PLP.Chemscore.CHOScore>
0.0000

> <Gold.PLP.Chemscore.Metal>
0.0000

> <Gold.Chemscore.Hbonds>
donor molecule, donor type, donor heavy atom, donor atom, acceptor molecule, acceptor atom, score
      L1  H     1    15       P1   582  1.00

> <Gold.PLP.Chemscore.Internal.Correction>
0.0000

