#       Name:                EN300-26967_i001
#       Creating user name   aseyller
#       Creation time:       Fri Apr 21 12:18:04 2023


#       File generated by GOLD software.
#

@<TRIPOS>MOLECULE
EN300-26967_i001|amine_1|mol2|12|dock10
    16    16     1
SMALL
USER_CHARGES


@<TRIPOS>ATOM
      1 N1          30.6060  35.6259  39.5501 N.pl3          1 <1>                0.0000
      2 C2          29.3803  36.1997  39.2043 C.ar           1 <1>                0.0000
      3 C3          29.1831  36.6980  37.9215 C.ar           1 <1>                0.0000
      4 C4          27.9723  37.2669  37.5749 C.ar           1 <1>                0.0000
      5 C5          26.9508  37.3443  38.5001 C.ar           1 <1>                0.0000
      6 C6          27.1387  36.8470  39.7904 C.ar           1 <1>                0.0000
      7 C7          26.0806  36.9266  40.7520 C.1            1 <1>                0.0000
      8 C8          25.2132  36.9920  41.5404 C.1            1 <1>                0.0000
      9 C9          28.3582  36.2672  40.1387 C.ar           1 <1>                0.0000
     10 H10         29.9788  36.6406  37.1935 H              1 <1>                0.0000
     11 H11         27.8250  37.6527  36.5769 H              1 <1>                0.0000
     12 H12         26.0062  37.7899  38.2255 H              1 <1>                0.0000
     13 H13         24.4372  37.0504  42.2454 H              1 <1>                0.0000
     14 H14         28.5092  35.8807  41.1357 H              1 <1>                0.0000
     15 H15         31.3197  35.5752  38.8951 H              1 <1>                0.0000
     16 H16         30.7449  35.2819  40.4463 H              1 <1>                0.0000
@<TRIPOS>BOND
    1    1    2 1     
    2    1   15 1     
    3    1   16 1     
    4    2    3 ar    
    5    2    9 ar    
    6    3    4 ar    
    7    3   10 1     
    8    4    5 ar    
    9    4   11 1     
   10    5    6 ar    
   11    5   12 1     
   12    6    7 1     
   13    6    9 ar    
   14    7    8 3     
   15    8   13 1     
   16    9   14 1     
@<TRIPOS>SUBSTRUCTURE
      1 ****           1
@<TRIPOS>SET
DONOR_HYDROGENS      STATIC     ATOMS    <user>   **** ""
2 15 16
ATOM$RED        STATIC     ATOMS    COLORGROUP SYSTEM
2 15 16
@<TRIPOS>COMMENT
> <Gold.Version>
2022.2.0

> <Gold.Id.Protein>
1qkm|1qkm_protein|mol2

> <Gold.Protein.RotatedTorsions>
[  496  491  490  487 ] final   64.97 input  -89.99 | X-H torsion

> <Gold.Protein.ActiveResidues>
 MET295  LEU298  THR299  LEU301  ALA302  GLU305  TRP335  MET336  LEU339  MET340 
 GLY342  LEU343  ARG346  PHE356  ILE373  ILE376  PHE377  LEU380  LYS471  GLY472 
 MET473  HIS475  LEU476  LEU477  ASN478  MET479  VAL484  VAL487 

> <Gold.Protein.RotatedAtoms>
   36.5935   33.2576   42.2693 H   0  0  0  0  0  0  0  0  0  0  0  0  # atno 496  bound_to 491 

> <Gold.Score>
     Score     S(PLP)   S(hbond)     S(cho)   S(metal)  DE(clash)   DE(tors)     intcor
     35.87     -32.87       1.00       0.00       0.00       0.00       0.00       0.00

> <Gold.PLP.Fitness>
35.8703

> <Gold.PLP.PLP>
-32.8703

> <Gold.PLP.part.hbond>
-1.0000

> <Gold.PLP.part.metal>
0.0000

> <Gold.PLP.part.buried>
0.3373

> <Gold.PLP.part.nonpolar>
-32.7583

> <Gold.PLP.part.repulsive>
0.0630

> <Gold.PLP.ligand.clash>
0.0000

> <Gold.PLP.ligand.torsion>
0.0000

> <Gold.PLP.Chemscore.Hbond>
1.0000

> <Gold.PLP.Chemscore.CHOScore>
0.0000

> <Gold.PLP.Chemscore.Metal>
0.0000

> <Gold.Chemscore.Hbonds>
donor molecule, donor type, donor heavy atom, donor atom, acceptor molecule, acceptor atom, score
      L1  H     1    16       P1   470  1.00

> <Gold.PLP.Chemscore.Internal.Correction>
0.0000

