#       Name:                EN300-26967_i001
#       Creating user name   aseyller
#       Creation time:       Fri Apr 21 12:18:03 2023


#       File generated by GOLD software.
#

@<TRIPOS>MOLECULE
EN300-26967_i001|amine_1|mol2|12|dock4
    16    16     1
SMALL
USER_CHARGES


@<TRIPOS>ATOM
      1 N1          34.2059  37.0013  34.3083 N.pl3          1 <1>                0.0000
      2 C2          33.1118  36.9581  35.1757 C.ar           1 <1>                0.0000
      3 C3          32.1245  37.9338  35.0986 C.ar           1 <1>                0.0000
      4 C4          31.0406  37.8955  35.9549 C.ar           1 <1>                0.0000
      5 C5          30.9310  36.8882  36.8924 C.ar           1 <1>                0.0000
      6 C6          31.9167  35.9040  36.9778 C.ar           1 <1>                0.0000
      7 C7          31.8054  34.8584  37.9499 C.1            1 <1>                0.0000
      8 C8          31.7142  34.0012  38.7468 C.1            1 <1>                0.0000
      9 C9          33.0075  35.9389  36.1098 C.ar           1 <1>                0.0000
     10 H10         32.2051  38.7245  34.3674 H              1 <1>                0.0000
     11 H11         30.2768  38.6564  35.8907 H              1 <1>                0.0000
     12 H12         30.0825  36.8619  37.5600 H              1 <1>                0.0000
     13 H13         31.6327  33.2345  39.4596 H              1 <1>                0.0000
     14 H14         33.7733  35.1799  36.1714 H              1 <1>                0.0000
     15 H15         34.2768  37.7121  33.6521 H              1 <1>                0.0000
     16 H16         34.8967  36.3228  34.3648 H              1 <1>                0.0000
@<TRIPOS>BOND
    1    1    2 1     
    2    1   15 1     
    3    1   16 1     
    4    2    3 ar    
    5    2    9 ar    
    6    3    4 ar    
    7    3   10 1     
    8    4    5 ar    
    9    4   11 1     
   10    5    6 ar    
   11    5   12 1     
   12    6    7 1     
   13    6    9 ar    
   14    7    8 3     
   15    8   13 1     
   16    9   14 1     
@<TRIPOS>SUBSTRUCTURE
      1 ****           1
@<TRIPOS>SET
DONOR_HYDROGENS      STATIC     ATOMS    <user>   **** ""
2 15 16
ATOM$RED        STATIC     ATOMS    COLORGROUP SYSTEM
2 15 16
@<TRIPOS>COMMENT
> <Gold.Version>
2022.2.0

> <Gold.Id.Protein>
1qkm|1qkm_protein|mol2

> <Gold.Protein.RotatedTorsions>
[  496  491  490  487 ] final -173.23 input  -89.99 | X-H torsion

> <Gold.Protein.ActiveResidues>
 MET295  LEU298  THR299  LEU301  ALA302  GLU305  TRP335  MET336  LEU339  MET340 
 GLY342  LEU343  ARG346  PHE356  ILE373  ILE376  PHE377  LEU380  LYS471  GLY472 
 MET473  HIS475  LEU476  LEU477  ASN478  MET479  VAL484  VAL487 

> <Gold.Protein.RotatedAtoms>
   37.3105   33.5605   40.8165 H   0  0  0  0  0  0  0  0  0  0  0  0  # atno 496  bound_to 491 

> <Gold.Score>
     Score     S(PLP)   S(hbond)     S(cho)   S(metal)  DE(clash)   DE(tors)     intcor
     35.32     -32.92       0.80       0.00       0.00       0.00       0.00       0.00

> <Gold.PLP.Fitness>
35.3217

> <Gold.PLP.PLP>
-32.9217

> <Gold.PLP.part.hbond>
-0.7783

> <Gold.PLP.part.metal>
0.0000

> <Gold.PLP.part.buried>
-2.5179

> <Gold.PLP.part.nonpolar>
-29.5594

> <Gold.PLP.part.repulsive>
0.1157

> <Gold.PLP.ligand.clash>
0.0000

> <Gold.PLP.ligand.torsion>
0.0000

> <Gold.PLP.Chemscore.Hbond>
0.8000

> <Gold.PLP.Chemscore.CHOScore>
0.0000

> <Gold.PLP.Chemscore.Metal>
0.0000

> <Gold.Chemscore.Hbonds>
donor molecule, donor type, donor heavy atom, donor atom, acceptor molecule, acceptor atom, score
      L1  H     1    15       P1  3229  0.80

> <Gold.PLP.Chemscore.Internal.Correction>
0.0000

