#       Name:                EN300-26967_i001
#       Creating user name   aseyller
#       Creation time:       Fri Apr 21 12:18:06 2023


#       File generated by GOLD software.
#

@<TRIPOS>MOLECULE
EN300-26967_i001|amine_1|mol2|12|dock18
    16    16     1
SMALL
USER_CHARGES


@<TRIPOS>ATOM
      1 N1          30.6899  39.0462  35.9648 N.pl3          1 <1>                0.0000
      2 C2          31.5042  37.9123  35.9160 C.ar           1 <1>                0.0000
      3 C3          32.4980  37.8111  34.9492 C.ar           1 <1>                0.0000
      4 C4          33.3057  36.6909  34.8967 C.ar           1 <1>                0.0000
      5 C5          33.1309  35.6652  35.8039 C.ar           1 <1>                0.0000
      6 C6          32.1361  35.7572  36.7782 C.ar           1 <1>                0.0000
      7 C7          31.9526  34.6941  37.7200 C.1            1 <1>                0.0000
      8 C8          31.8021  33.8227  38.4920 C.1            1 <1>                0.0000
      9 C9          31.3250  36.8900  36.8354 C.ar           1 <1>                0.0000
     10 H10         32.6392  38.6103  34.2367 H              1 <1>                0.0000
     11 H11         34.0760  36.6176  34.1433 H              1 <1>                0.0000
     12 H12         33.7639  34.7914  35.7594 H              1 <1>                0.0000
     13 H13         31.6674  33.0432  39.1826 H              1 <1>                0.0000
     14 H14         30.5535  36.9666  37.5872 H              1 <1>                0.0000
     15 H15         30.8180  39.7632  35.3241 H              1 <1>                0.0000
     16 H16         29.9939  39.1150  36.6369 H              1 <1>                0.0000
@<TRIPOS>BOND
    1    1    2 1     
    2    1   15 1     
    3    1   16 1     
    4    2    3 ar    
    5    2    9 ar    
    6    3    4 ar    
    7    3   10 1     
    8    4    5 ar    
    9    4   11 1     
   10    5    6 ar    
   11    5   12 1     
   12    6    7 1     
   13    6    9 ar    
   14    7    8 3     
   15    8   13 1     
   16    9   14 1     
@<TRIPOS>SUBSTRUCTURE
      1 ****           1
@<TRIPOS>SET
DONOR_HYDROGENS      STATIC     ATOMS    <user>   **** ""
2 15 16
ATOM$RED        STATIC     ATOMS    COLORGROUP SYSTEM
2 15 16
@<TRIPOS>COMMENT
> <Gold.Version>
2022.2.0

> <Gold.Id.Protein>
1qkm|1qkm_protein|mol2

> <Gold.Protein.RotatedTorsions>
[  496  491  490  487 ] final   -7.93 input  -89.99 | X-H torsion

> <Gold.Protein.ActiveResidues>
 MET295  LEU298  THR299  LEU301  ALA302  GLU305  TRP335  MET336  LEU339  MET340 
 GLY342  LEU343  ARG346  PHE356  ILE373  ILE376  PHE377  LEU380  LYS471  GLY472 
 MET473  HIS475  LEU476  LEU477  ASN478  MET479  VAL484  VAL487 

> <Gold.Protein.RotatedAtoms>
   36.2604   34.3225   42.1643 H   0  0  0  0  0  0  0  0  0  0  0  0  # atno 496  bound_to 491 

> <Gold.Score>
     Score     S(PLP)   S(hbond)     S(cho)   S(metal)  DE(clash)   DE(tors)     intcor
     33.20     -33.20       0.00       0.00       0.00       0.00       0.00       0.00

> <Gold.PLP.Fitness>
33.1969

> <Gold.PLP.PLP>
-33.1969

> <Gold.PLP.part.hbond>
0.0000

> <Gold.PLP.part.metal>
0.0000

> <Gold.PLP.part.buried>
-2.3236

> <Gold.PLP.part.nonpolar>
-30.9583

> <Gold.PLP.part.repulsive>
0.0000

> <Gold.PLP.ligand.clash>
0.0000

> <Gold.PLP.ligand.torsion>
0.0000

> <Gold.PLP.Chemscore.Hbond>
0.0000

> <Gold.PLP.Chemscore.CHOScore>
0.0000

> <Gold.PLP.Chemscore.Metal>
0.0000

> <Gold.PLP.Chemscore.Internal.Correction>
0.0000

