#       Name:                EN300-26967_i001
#       Creating user name   aseyller
#       Creation time:       Fri Apr 21 12:18:04 2023


#       File generated by GOLD software.
#

@<TRIPOS>MOLECULE
EN300-26967_i001|amine_1|mol2|12|dock11
    16    16     1
SMALL
USER_CHARGES


@<TRIPOS>ATOM
      1 N1          26.6177  36.7048  42.4962 N.pl3          1 <1>                0.0000
      2 C2          26.9609  36.5180  41.1551 C.ar           1 <1>                0.0000
      3 C3          26.0636  36.8678  40.1525 C.ar           1 <1>                0.0000
      4 C4          26.3985  36.6844  38.8244 C.ar           1 <1>                0.0000
      5 C5          27.6261  36.1526  38.4845 C.ar           1 <1>                0.0000
      6 C6          28.5339  35.7982  39.4834 C.ar           1 <1>                0.0000
      7 C7          29.8078  35.2458  39.1331 C.1            1 <1>                0.0000
      8 C8          30.8522  34.7930  38.8460 C.1            1 <1>                0.0000
      9 C9          28.1988  35.9888  40.8234 C.ar           1 <1>                0.0000
     10 H10         25.1015  37.2840  40.4125 H              1 <1>                0.0000
     11 H11         25.6972  36.9577  38.0498 H              1 <1>                0.0000
     12 H12         27.8840  36.0105  37.4454 H              1 <1>                0.0000
     13 H13         31.7864  34.3880  38.5892 H              1 <1>                0.0000
     14 H14         28.8973  35.7164  41.6007 H              1 <1>                0.0000
     15 H15         25.7532  37.0786  42.7280 H              1 <1>                0.0000
     16 H16         27.2422  36.4569  43.1957 H              1 <1>                0.0000
@<TRIPOS>BOND
    1    1    2 1     
    2    1   15 1     
    3    1   16 1     
    4    2    3 ar    
    5    2    9 ar    
    6    3    4 ar    
    7    3   10 1     
    8    4    5 ar    
    9    4   11 1     
   10    5    6 ar    
   11    5   12 1     
   12    6    7 1     
   13    6    9 ar    
   14    7    8 3     
   15    8   13 1     
   16    9   14 1     
@<TRIPOS>SUBSTRUCTURE
      1 ****           1
@<TRIPOS>SET
DONOR_HYDROGENS      STATIC     ATOMS    <user>   **** ""
2 15 16
ATOM$RED        STATIC     ATOMS    COLORGROUP SYSTEM
2 15 16
@<TRIPOS>COMMENT
> <Gold.Version>
2022.2.0

> <Gold.Id.Protein>
1qkm|1qkm_protein|mol2

> <Gold.Protein.RotatedTorsions>
[  496  491  490  487 ] final  135.29 input  -89.99 | X-H torsion

> <Gold.Protein.ActiveResidues>
 MET295  LEU298  THR299  LEU301  ALA302  GLU305  TRP335  MET336  LEU339  MET340 
 GLY342  LEU343  ARG346  PHE356  ILE373  ILE376  PHE377  LEU380  LYS471  GLY472 
 MET473  HIS475  LEU476  LEU477  ASN478  MET479  VAL484  VAL487 

> <Gold.Protein.RotatedAtoms>
   37.1869   32.9966   41.3978 H   0  0  0  0  0  0  0  0  0  0  0  0  # atno 496  bound_to 491 

> <Gold.Score>
     Score     S(PLP)   S(hbond)     S(cho)   S(metal)  DE(clash)   DE(tors)     intcor
     35.42     -35.42       0.00       0.00       0.00       0.00       0.00       0.00

> <Gold.PLP.Fitness>
35.4248

> <Gold.PLP.PLP>
-35.4248

> <Gold.PLP.part.hbond>
-1.0000

> <Gold.PLP.part.metal>
0.0000

> <Gold.PLP.part.buried>
-1.9844

> <Gold.PLP.part.nonpolar>
-33.1664

> <Gold.PLP.part.repulsive>
0.0746

> <Gold.PLP.ligand.clash>
0.0000

> <Gold.PLP.ligand.torsion>
0.0000

> <Gold.PLP.Chemscore.Hbond>
0.0000

> <Gold.PLP.Chemscore.CHOScore>
0.0000

> <Gold.PLP.Chemscore.Metal>
0.0000

> <Gold.PLP.Chemscore.Internal.Correction>
0.0000

