#       Name:                EN300-26967_i001
#       Creating user name   aseyller
#       Creation time:       Fri Apr 21 12:18:06 2023


#       File generated by GOLD software.
#

@<TRIPOS>MOLECULE
EN300-26967_i001|amine_1|mol2|12|dock19
    16    16     1
SMALL
USER_CHARGES


@<TRIPOS>ATOM
      1 N1          32.9360  38.1982  34.3085 N.pl3          1 <1>                0.0000
      2 C2          32.7554  37.3588  35.4103 C.ar           1 <1>                0.0000
      3 C3          33.6415  36.3124  35.6397 C.ar           1 <1>                0.0000
      4 C4          33.4666  35.4791  36.7282 C.ar           1 <1>                0.0000
      5 C5          32.4111  35.6801  37.5948 C.ar           1 <1>                0.0000
      6 C6          31.5161  36.7278  37.3732 C.ar           1 <1>                0.0000
      7 C7          30.4200  36.9379  38.2705 C.1            1 <1>                0.0000
      8 C8          29.5215  37.1103  39.0061 C.1            1 <1>                0.0000
      9 C9          31.6957  37.5726  36.2785 C.ar           1 <1>                0.0000
     10 H10         34.4690  36.1500  34.9650 H              1 <1>                0.0000
     11 H11         34.1580  34.6675  36.9013 H              1 <1>                0.0000
     12 H12         32.2777  35.0265  38.4441 H              1 <1>                0.0000
     13 H13         28.7179  37.2645  39.6641 H              1 <1>                0.0000
     14 H14         31.0063  38.3849  36.1021 H              1 <1>                0.0000
     15 H15         33.6796  38.0510  33.7033 H              1 <1>                0.0000
     16 H16         32.3154  38.9258  34.1462 H              1 <1>                0.0000
@<TRIPOS>BOND
    1    1    2 1     
    2    1   15 1     
    3    1   16 1     
    4    2    3 ar    
    5    2    9 ar    
    6    3    4 ar    
    7    3   10 1     
    8    4    5 ar    
    9    4   11 1     
   10    5    6 ar    
   11    5   12 1     
   12    6    7 1     
   13    6    9 ar    
   14    7    8 3     
   15    8   13 1     
   16    9   14 1     
@<TRIPOS>SUBSTRUCTURE
      1 ****           1
@<TRIPOS>SET
DONOR_HYDROGENS      STATIC     ATOMS    <user>   **** ""
2 15 16
ATOM$RED        STATIC     ATOMS    COLORGROUP SYSTEM
2 15 16
@<TRIPOS>COMMENT
> <Gold.Version>
2022.2.0

> <Gold.Id.Protein>
1qkm|1qkm_protein|mol2

> <Gold.Protein.RotatedTorsions>
[  496  491  490  487 ] final   22.51 input  -89.99 | X-H torsion

> <Gold.Protein.ActiveResidues>
 MET295  LEU298  THR299  LEU301  ALA302  GLU305  TRP335  MET336  LEU339  MET340 
 GLY342  LEU343  ARG346  PHE356  ILE373  ILE376  PHE377  LEU380  LYS471  GLY472 
 MET473  HIS475  LEU476  LEU477  ASN478  MET479  VAL484  VAL487 

> <Gold.Protein.RotatedAtoms>
   36.3121   33.8727   42.3648 H   0  0  0  0  0  0  0  0  0  0  0  0  # atno 496  bound_to 491 

> <Gold.Score>
     Score     S(PLP)   S(hbond)     S(cho)   S(metal)  DE(clash)   DE(tors)     intcor
     34.15     -31.15       1.00       0.00       0.00       0.00       0.00       0.00

> <Gold.PLP.Fitness>
34.1488

> <Gold.PLP.PLP>
-31.1488

> <Gold.PLP.part.hbond>
-1.0000

> <Gold.PLP.part.metal>
0.0000

> <Gold.PLP.part.buried>
-1.9772

> <Gold.PLP.part.nonpolar>
-27.8197

> <Gold.PLP.part.repulsive>
0.0460

> <Gold.PLP.ligand.clash>
0.0000

> <Gold.PLP.ligand.torsion>
0.0000

> <Gold.PLP.Chemscore.Hbond>
1.0000

> <Gold.PLP.Chemscore.CHOScore>
0.0000

> <Gold.PLP.Chemscore.Metal>
0.0000

> <Gold.Chemscore.Hbonds>
donor molecule, donor type, donor heavy atom, donor atom, acceptor molecule, acceptor atom, score
      L1  H     1    15       P1  3229  1.00

> <Gold.PLP.Chemscore.Internal.Correction>
0.0000

