#       Name:                EN300-104126_i001
#       Creating user name   aseyller
#       Creation time:       Fri Apr 21 19:55:35 2023


#       File generated by GOLD software.
#

@<TRIPOS>MOLECULE
EN300-104126_i001|benzaldehydes|mol2|985|dock7
    16    17     1
SMALL
USER_CHARGES


@<TRIPOS>ATOM
      1 O1          31.1669  37.3359  37.7112 O.2            1 <1>                0.0000
      2 C2          30.2144  37.9806  37.3229 C.2            1 <1>                0.0000
      3 C3          28.9317  37.7585  37.8846 C.2            1 <1>                0.0000
      4 C4          27.7237  38.2105  37.3958 C.2            1 <1>                0.0000
      5 N5          26.7262  37.7974  38.2012 N.pl3          1 <1>                0.0000
      6 C6          27.2217  37.0587  39.2524 C.ar           1 <1>                0.0000
      7 N7          26.6471  36.4517  40.2831 N.ar           1 <1>                0.0000
      8 C8          27.3874  35.7991  41.1594 C.ar           1 <1>                0.0000
      9 C9          28.7651  35.7400  41.0150 C.ar           1 <1>                0.0000
     10 N10         29.3536  36.3385  39.9959 N.ar           1 <1>                0.0000
     11 C11         28.6197  36.9922  39.1057 C.ar           1 <1>                0.0000
     12 H12         30.3450  38.7264  36.5529 H              1 <1>                0.0000
     13 H13         27.5968  38.8055  36.5035 H              1 <1>                0.0000
     14 H14         26.9157  35.3067  41.9969 H              1 <1>                0.0000
     15 H15         29.3592  35.2026  41.7394 H              1 <1>                0.0000
     16 H16         25.7869  37.9938  38.0603 H              1 <1>                0.0000
@<TRIPOS>BOND
    1    1    2 2     
    2    2    3 1     
    3    2   12 1     
    4    3    4 2     
    5    3   11 1     
    6    4    5 1     
    7    4   13 1     
    8    5    6 1     
    9    5   16 1     
   10    6    7 ar    
   11    6   11 ar    
   12    7    8 ar    
   13    8    9 ar    
   14    8   14 1     
   15    9   10 ar    
   16    9   15 1     
   17   10   11 ar    
@<TRIPOS>SUBSTRUCTURE
      1 ****           1
@<TRIPOS>SET
DONOR_HYDROGENS      STATIC     ATOMS    <user>   **** ""
1 16
ATOM$RED        STATIC     ATOMS    COLORGROUP SYSTEM
1 16
@<TRIPOS>COMMENT
> <Gold.Version>
2022.2.0

> <Gold.Id.Protein>
1qkm|1qkm_protein|mol2

> <Gold.Protein.RotatedTorsions>
[  496  491  490  487 ] final  142.36 input  -89.99 | X-H torsion

> <Gold.Protein.ActiveResidues>
 MET295  LEU298  THR299  LEU301  ALA302  GLU305  TRP335  MET336  LEU339  MET340 
 GLY342  LEU343  ARG346  PHE356  ILE373  ILE376  PHE377  LEU380  LYS471  GLY472 
 MET473  HIS475  LEU476  LEU477  ASN478  MET479  VAL484  VAL487 

> <Gold.Protein.RotatedAtoms>
   37.2270   33.0418   41.2984 H   0  0  0  0  0  0  0  0  0  0  0  0  # atno 496  bound_to 491 

> <Gold.Score>
     Score     S(PLP)   S(hbond)     S(cho)   S(metal)  DE(clash)   DE(tors)     intcor
     34.54     -28.62       0.00       2.00       0.00       0.00       0.04       0.00

> <Gold.PLP.Fitness>
34.5403

> <Gold.PLP.PLP>
-28.6170

> <Gold.PLP.part.hbond>
0.0000

> <Gold.PLP.part.metal>
0.0000

> <Gold.PLP.part.buried>
-3.1914

> <Gold.PLP.part.nonpolar>
-25.9039

> <Gold.PLP.part.repulsive>
0.1920

> <Gold.PLP.ligand.clash>
0.0000

> <Gold.PLP.ligand.torsion>
0.0383

> <Gold.PLP.Chemscore.Hbond>
0.0000

> <Gold.PLP.Chemscore.CHOScore>
2.0000

> <Gold.PLP.Chemscore.Metal>
0.0000

> <Gold.Chemscore.Hbonds>
donor molecule, donor type, donor heavy atom, donor atom, acceptor molecule, acceptor atom, score
      L1  C     8    14       P1   582  1.00
      L1  C     9    15       P1   470  1.00

> <Gold.PLP.Chemscore.Internal.Correction>
0.0000

