#       Name:                EN300-104126_i001
#       Creating user name   aseyller
#       Creation time:       Fri Apr 21 19:55:34 2023


#       File generated by GOLD software.
#

@<TRIPOS>MOLECULE
EN300-104126_i001|benzaldehydes|mol2|985|dock3
    16    17     1
SMALL
USER_CHARGES


@<TRIPOS>ATOM
      1 O1          29.2087  36.7388  39.7771 O.2            1 <1>                0.0000
      2 C2          29.6763  37.0906  38.7134 C.2            1 <1>                0.0000
      3 C3          30.8165  36.4318  38.1879 C.2            1 <1>                0.0000
      4 C4          31.4619  35.3374  38.7247 C.2            1 <1>                0.0000
      5 N5          32.5033  34.9966  37.9414 N.pl3          1 <1>                0.0000
      6 C6          32.5964  35.8415  36.8581 C.ar           1 <1>                0.0000
      7 N7          33.4345  35.9088  35.8315 N.ar           1 <1>                0.0000
      8 C8          33.2814  36.8480  34.9169 C.ar           1 <1>                0.0000
      9 C9          32.2502  37.7694  35.0166 C.ar           1 <1>                0.0000
     10 N10         31.4073  37.7174  36.0314 N.ar           1 <1>                0.0000
     11 C11         31.5474  36.7748  36.9534 C.ar           1 <1>                0.0000
     12 H12         29.2212  37.9023  38.1655 H              1 <1>                0.0000
     13 H13         31.1761  34.8311  39.6349 H              1 <1>                0.0000
     14 H14         33.9660  36.8994  34.0832 H              1 <1>                0.0000
     15 H15         32.1363  38.5328  34.2612 H              1 <1>                0.0000
     16 H16         33.1059  34.2570  38.1168 H              1 <1>                0.0000
@<TRIPOS>BOND
    1    1    2 2     
    2    2    3 1     
    3    2   12 1     
    4    3    4 2     
    5    3   11 1     
    6    4    5 1     
    7    4   13 1     
    8    5    6 1     
    9    5   16 1     
   10    6    7 ar    
   11    6   11 ar    
   12    7    8 ar    
   13    8    9 ar    
   14    8   14 1     
   15    9   10 ar    
   16    9   15 1     
   17   10   11 ar    
@<TRIPOS>SUBSTRUCTURE
      1 ****           1
@<TRIPOS>SET
DONOR_HYDROGENS      STATIC     ATOMS    <user>   **** ""
1 16
ATOM$RED        STATIC     ATOMS    COLORGROUP SYSTEM
1 16
@<TRIPOS>COMMENT
> <Gold.Version>
2022.2.0

> <Gold.Id.Protein>
1qkm|1qkm_protein|mol2

> <Gold.Protein.RotatedTorsions>
[  496  491  490  487 ] final   88.58 input  -89.99 | X-H torsion

> <Gold.Protein.ActiveResidues>
 MET295  LEU298  THR299  LEU301  ALA302  GLU305  TRP335  MET336  LEU339  MET340 
 GLY342  LEU343  ARG346  PHE356  ILE373  ILE376  PHE377  LEU380  LYS471  GLY472 
 MET473  HIS475  LEU476  LEU477  ASN478  MET479  VAL484  VAL487 

> <Gold.Protein.RotatedAtoms>
   36.8071   33.0315   42.0411 H   0  0  0  0  0  0  0  0  0  0  0  0  # atno 496  bound_to 491 

> <Gold.Score>
     Score     S(PLP)   S(hbond)     S(cho)   S(metal)  DE(clash)   DE(tors)     intcor
     36.07     -30.07       0.00       2.00       0.00       0.00       0.00       0.00

> <Gold.PLP.Fitness>
36.0679

> <Gold.PLP.PLP>
-30.0737

> <Gold.PLP.part.hbond>
0.0000

> <Gold.PLP.part.metal>
0.0000

> <Gold.PLP.part.buried>
-3.7233

> <Gold.PLP.part.nonpolar>
-26.7062

> <Gold.PLP.part.repulsive>
0.1820

> <Gold.PLP.ligand.clash>
0.0000

> <Gold.PLP.ligand.torsion>
0.0029

> <Gold.PLP.Chemscore.Hbond>
0.0000

> <Gold.PLP.Chemscore.CHOScore>
2.0000

> <Gold.PLP.Chemscore.Metal>
0.0000

> <Gold.Chemscore.Hbonds>
donor molecule, donor type, donor heavy atom, donor atom, acceptor molecule, acceptor atom, score
      L1  C     4    13       P1   470  1.00
      L1  C     8    14       P1  3229  1.00

> <Gold.PLP.Chemscore.Internal.Correction>
0.0000

