#       Name:                EN300-104126_i001
#       Creating user name   aseyller
#       Creation time:       Fri Apr 21 19:55:35 2023


#       File generated by GOLD software.
#

@<TRIPOS>MOLECULE
EN300-104126_i001|benzaldehydes|mol2|985|dock6
    16    17     1
SMALL
USER_CHARGES


@<TRIPOS>ATOM
      1 O1          24.6112  36.7109  41.9702 O.2            1 <1>                0.0000
      2 C2          25.7998  36.6860  41.7244 C.2            1 <1>                0.0000
      3 C3          26.2532  36.8841  40.3958 C.2            1 <1>                0.0000
      4 C4          25.4999  37.2946  39.3158 C.2            1 <1>                0.0000
      5 N5          26.2807  37.3682  38.2208 N.pl3          1 <1>                0.0000
      6 C6          27.5769  37.0131  38.5207 C.ar           1 <1>                0.0000
      7 N7          28.6846  36.9314  37.7946 N.ar           1 <1>                0.0000
      8 C8          29.8160  36.5535  38.3596 C.ar           1 <1>                0.0000
      9 C9          29.8609  36.2394  39.7093 C.ar           1 <1>                0.0000
     10 N10         28.7683  36.3147  40.4466 N.ar           1 <1>                0.0000
     11 C11         27.6270  36.6989  39.8915 C.ar           1 <1>                0.0000
     12 H12         26.5120  36.5173  42.5186 H              1 <1>                0.0000
     13 H13         24.4444  37.5220  39.3437 H              1 <1>                0.0000
     14 H14         30.7151  36.4880  37.7649 H              1 <1>                0.0000
     15 H15         30.7932  35.9315  40.1590 H              1 <1>                0.0000
     16 H16         25.9720  37.6346  37.3407 H              1 <1>                0.0000
@<TRIPOS>BOND
    1    1    2 2     
    2    2    3 1     
    3    2   12 1     
    4    3    4 2     
    5    3   11 1     
    6    4    5 1     
    7    4   13 1     
    8    5    6 1     
    9    5   16 1     
   10    6    7 ar    
   11    6   11 ar    
   12    7    8 ar    
   13    8    9 ar    
   14    8   14 1     
   15    9   10 ar    
   16    9   15 1     
   17   10   11 ar    
@<TRIPOS>SUBSTRUCTURE
      1 ****           1
@<TRIPOS>SET
DONOR_HYDROGENS      STATIC     ATOMS    <user>   **** ""
1 16
ATOM$RED        STATIC     ATOMS    COLORGROUP SYSTEM
1 16
@<TRIPOS>COMMENT
> <Gold.Version>
2022.2.0

> <Gold.Id.Protein>
1qkm|1qkm_protein|mol2

> <Gold.Protein.RotatedTorsions>
[  496  491  490  487 ] final   14.26 input  -89.99 | X-H torsion

> <Gold.Protein.ActiveResidues>
 MET295  LEU298  THR299  LEU301  ALA302  GLU305  TRP335  MET336  LEU339  MET340 
 GLY342  LEU343  ARG346  PHE356  ILE373  ILE376  PHE377  LEU380  LYS471  GLY472 
 MET473  HIS475  LEU476  LEU477  ASN478  MET479  VAL484  VAL487 

> <Gold.Protein.RotatedAtoms>
   36.2838   34.0010   42.3314 H   0  0  0  0  0  0  0  0  0  0  0  0  # atno 496  bound_to 491 

> <Gold.Score>
     Score     S(PLP)   S(hbond)     S(cho)   S(metal)  DE(clash)   DE(tors)     intcor
     36.79     -29.56       0.66       1.77       0.00       0.00       0.02       0.00

> <Gold.PLP.Fitness>
36.7886

> <Gold.PLP.PLP>
-29.5638

> <Gold.PLP.part.hbond>
-0.3106

> <Gold.PLP.part.metal>
0.0000

> <Gold.PLP.part.buried>
-1.3044

> <Gold.PLP.part.nonpolar>
-29.8157

> <Gold.PLP.part.repulsive>
0.5105

> <Gold.PLP.ligand.clash>
0.0000

> <Gold.PLP.ligand.torsion>
0.0203

> <Gold.PLP.Chemscore.Hbond>
0.6560

> <Gold.PLP.Chemscore.CHOScore>
1.7658

> <Gold.PLP.Chemscore.Metal>
0.0000

> <Gold.Chemscore.Hbonds>
donor molecule, donor type, donor heavy atom, donor atom, acceptor molecule, acceptor atom, score
      P1  H  1258  1270       L1     1  0.66
      L1  C     4    13       P1  1131  0.93
      L1  C     9    15       P1   470  0.83

> <Gold.PLP.Chemscore.Internal.Correction>
0.0000

