#       Name:                EN300-104126_i001
#       Creating user name   aseyller
#       Creation time:       Fri Apr 21 19:55:37 2023


#       File generated by GOLD software.
#

@<TRIPOS>MOLECULE
EN300-104126_i001|benzaldehydes|mol2|985|dock11
    16    17     1
SMALL
USER_CHARGES


@<TRIPOS>ATOM
      1 O1          31.5538  36.9718  37.7324 O.2            1 <1>                0.0000
      2 C2          30.7105  36.5911  38.5183 C.2            1 <1>                0.0000
      3 C3          29.3635  37.0077  38.3698 C.2            1 <1>                0.0000
      4 C4          28.8550  37.8335  37.3890 C.2            1 <1>                0.0000
      5 N5          27.5318  37.9996  37.5780 N.pl3          1 <1>                0.0000
      6 C6          27.1047  37.2980  38.6832 C.ar           1 <1>                0.0000
      7 N7          25.9187  37.1515  39.2602 N.ar           1 <1>                0.0000
      8 C8          25.7992  36.3989  40.3379 C.ar           1 <1>                0.0000
      9 C9          26.9034  35.7565  40.8766 C.ar           1 <1>                0.0000
     10 N10         28.0909  35.8914  40.3157 N.ar           1 <1>                0.0000
     11 C11         28.2225  36.6401  39.2292 C.ar           1 <1>                0.0000
     12 H12         30.9857  35.9314  39.3279 H              1 <1>                0.0000
     13 H13         29.4304  38.2795  36.5911 H              1 <1>                0.0000
     14 H14         24.8322  36.2827  40.8045 H              1 <1>                0.0000
     15 H15         26.7916  35.1436  41.7588 H              1 <1>                0.0000
     16 H16         26.9580  38.5402  37.0129 H              1 <1>                0.0000
@<TRIPOS>BOND
    1    1    2 2     
    2    2    3 1     
    3    2   12 1     
    4    3    4 2     
    5    3   11 1     
    6    4    5 1     
    7    4   13 1     
    8    5    6 1     
    9    5   16 1     
   10    6    7 ar    
   11    6   11 ar    
   12    7    8 ar    
   13    8    9 ar    
   14    8   14 1     
   15    9   10 ar    
   16    9   15 1     
   17   10   11 ar    
@<TRIPOS>SUBSTRUCTURE
      1 ****           1
@<TRIPOS>SET
DONOR_HYDROGENS      STATIC     ATOMS    <user>   **** ""
1 16
ATOM$RED        STATIC     ATOMS    COLORGROUP SYSTEM
1 16
@<TRIPOS>COMMENT
> <Gold.Version>
2022.2.0

> <Gold.Id.Protein>
1qkm|1qkm_protein|mol2

> <Gold.Protein.RotatedTorsions>
[  496  491  490  487 ] final -118.86 input  -89.99 | X-H torsion

> <Gold.Protein.ActiveResidues>
 MET295  LEU298  THR299  LEU301  ALA302  GLU305  TRP335  MET336  LEU339  MET340 
 GLY342  LEU343  ARG346  PHE356  ILE373  ILE376  PHE377  LEU380  LYS471  GLY472 
 MET473  HIS475  LEU476  LEU477  ASN478  MET479  VAL484  VAL487 

> <Gold.Protein.RotatedAtoms>
   37.0166   34.3706   40.8077 H   0  0  0  0  0  0  0  0  0  0  0  0  # atno 496  bound_to 491 

> <Gold.Score>
     Score     S(PLP)   S(hbond)     S(cho)   S(metal)  DE(clash)   DE(tors)     intcor
     36.39     -30.47       0.00       1.97       0.00       0.00       0.00       0.00

> <Gold.PLP.Fitness>
36.3927

> <Gold.PLP.PLP>
-30.4743

> <Gold.PLP.part.hbond>
0.0000

> <Gold.PLP.part.metal>
0.0000

> <Gold.PLP.part.buried>
-4.5531

> <Gold.PLP.part.nonpolar>
-26.2110

> <Gold.PLP.part.repulsive>
0.1642

> <Gold.PLP.ligand.clash>
0.0000

> <Gold.PLP.ligand.torsion>
0.0000

> <Gold.PLP.Chemscore.Hbond>
0.0000

> <Gold.PLP.Chemscore.CHOScore>
1.9728

> <Gold.PLP.Chemscore.Metal>
0.0000

> <Gold.Chemscore.Hbonds>
donor molecule, donor type, donor heavy atom, donor atom, acceptor molecule, acceptor atom, score
      L1  C     8    14       P1  1131  0.97
      L1  C     9    15       P1   582  1.00

> <Gold.PLP.Chemscore.Internal.Correction>
0.0000

