#       Name:                EN300-104126_i001
#       Creating user name   aseyller
#       Creation time:       Fri Apr 21 19:55:37 2023


#       File generated by GOLD software.
#

@<TRIPOS>MOLECULE
EN300-104126_i001|benzaldehydes|mol2|985|dock13
    16    17     1
SMALL
USER_CHARGES


@<TRIPOS>ATOM
      1 O1          30.1609  36.0102  39.0630 O.2            1 <1>                0.0000
      2 C2          29.6470  37.0787  38.8022 C.2            1 <1>                0.0000
      3 C3          30.0681  37.8082  37.6618 C.2            1 <1>                0.0000
      4 C4          29.5998  39.0367  37.2447 C.2            1 <1>                0.0000
      5 N5          30.2415  39.4080  36.1202 N.pl3          1 <1>                0.0000
      6 C6          31.1573  38.4516  35.7423 C.ar           1 <1>                0.0000
      7 N7          32.0094  38.3641  34.7288 N.ar           1 <1>                0.0000
      8 C8          32.7875  37.3044  34.6123 C.ar           1 <1>                0.0000
      9 C9          32.7247  36.2766  35.5408 C.ar           1 <1>                0.0000
     10 N10         31.8825  36.3469  36.5551 N.ar           1 <1>                0.0000
     11 C11         31.0999  37.4093  36.6861 C.ar           1 <1>                0.0000
     12 H12         28.8660  37.4713  39.4364 H              1 <1>                0.0000
     13 H13         28.8347  39.6130  37.7436 H              1 <1>                0.0000
     14 H14         33.4794  37.2371  33.7858 H              1 <1>                0.0000
     15 H15         33.3671  35.4151  35.4336 H              1 <1>                0.0000
     16 H16         30.0802  40.2360  35.6415 H              1 <1>                0.0000
@<TRIPOS>BOND
    1    1    2 2     
    2    2    3 1     
    3    2   12 1     
    4    3    4 2     
    5    3   11 1     
    6    4    5 1     
    7    4   13 1     
    8    5    6 1     
    9    5   16 1     
   10    6    7 ar    
   11    6   11 ar    
   12    7    8 ar    
   13    8    9 ar    
   14    8   14 1     
   15    9   10 ar    
   16    9   15 1     
   17   10   11 ar    
@<TRIPOS>SUBSTRUCTURE
      1 ****           1
@<TRIPOS>SET
DONOR_HYDROGENS      STATIC     ATOMS    <user>   **** ""
1 16
ATOM$RED        STATIC     ATOMS    COLORGROUP SYSTEM
1 16
@<TRIPOS>COMMENT
> <Gold.Version>
2022.2.0

> <Gold.Id.Protein>
1qkm|1qkm_protein|mol2

> <Gold.Protein.RotatedTorsions>
[  496  491  490  487 ] final  -58.00 input  -89.99 | X-H torsion

> <Gold.Protein.ActiveResidues>
 MET295  LEU298  THR299  LEU301  ALA302  GLU305  TRP335  MET336  LEU339  MET340 
 GLY342  LEU343  ARG346  PHE356  ILE373  ILE376  PHE377  LEU380  LYS471  GLY472 
 MET473  HIS475  LEU476  LEU477  ASN478  MET479  VAL484  VAL487 

> <Gold.Protein.RotatedAtoms>
   36.4817   34.7286   41.5137 H   0  0  0  0  0  0  0  0  0  0  0  0  # atno 496  bound_to 491 

> <Gold.Score>
     Score     S(PLP)   S(hbond)     S(cho)   S(metal)  DE(clash)   DE(tors)     intcor
     32.36     -29.36       0.00       1.00       0.00       0.00       0.00       0.00

> <Gold.PLP.Fitness>
32.3626

> <Gold.PLP.PLP>
-29.3630

> <Gold.PLP.part.hbond>
0.0000

> <Gold.PLP.part.metal>
0.0000

> <Gold.PLP.part.buried>
-4.4052

> <Gold.PLP.part.nonpolar>
-25.3534

> <Gold.PLP.part.repulsive>
0.1834

> <Gold.PLP.ligand.clash>
0.0000

> <Gold.PLP.ligand.torsion>
0.0002

> <Gold.PLP.Chemscore.Hbond>
0.0000

> <Gold.PLP.Chemscore.CHOScore>
1.0000

> <Gold.PLP.Chemscore.Metal>
0.0000

> <Gold.Chemscore.Hbonds>
donor molecule, donor type, donor heavy atom, donor atom, acceptor molecule, acceptor atom, score
      L1  C     8    14       P1  3229  1.00

> <Gold.PLP.Chemscore.Internal.Correction>
0.0000

