#       Name:                EN300-104126_i001
#       Creating user name   aseyller
#       Creation time:       Fri Apr 21 19:55:39 2023


#       File generated by GOLD software.
#

@<TRIPOS>MOLECULE
EN300-104126_i001|benzaldehydes|mol2|985|dock18
    16    17     1
SMALL
USER_CHARGES


@<TRIPOS>ATOM
      1 O1          31.3544  36.7855  37.8879 O.2            1 <1>                0.0000
      2 C2          30.1540  36.9652  37.9104 C.2            1 <1>                0.0000
      3 C3          29.4061  36.6133  39.0623 C.2            1 <1>                0.0000
      4 C4          29.8743  35.9720  40.1901 C.2            1 <1>                0.0000
      5 N5          28.8676  35.8116  41.0706 N.pl3          1 <1>                0.0000
      6 C6          27.6953  36.3344  40.5723 C.ar           1 <1>                0.0000
      7 N7          26.4621  36.4154  41.0559 N.ar           1 <1>                0.0000
      8 C8          25.5104  36.9850  40.3405 C.ar           1 <1>                0.0000
      9 C9          25.7851  37.5022  39.0838 C.ar           1 <1>                0.0000
     10 N10         27.0062  37.4299  38.5870 N.ar           1 <1>                0.0000
     11 C11         27.9721  36.8653  39.2987 C.ar           1 <1>                0.0000
     12 H12         29.6565  37.3971  37.0546 H              1 <1>                0.0000
     13 H13         30.8928  35.6474  40.3437 H              1 <1>                0.0000
     14 H14         24.5081  37.0486  40.7377 H              1 <1>                0.0000
     15 H15         24.9970  37.9657  38.5090 H              1 <1>                0.0000
     16 H16         28.9563  35.3854  41.9374 H              1 <1>                0.0000
@<TRIPOS>BOND
    1    1    2 2     
    2    2    3 1     
    3    2   12 1     
    4    3    4 2     
    5    3   11 1     
    6    4    5 1     
    7    4   13 1     
    8    5    6 1     
    9    5   16 1     
   10    6    7 ar    
   11    6   11 ar    
   12    7    8 ar    
   13    8    9 ar    
   14    8   14 1     
   15    9   10 ar    
   16    9   15 1     
   17   10   11 ar    
@<TRIPOS>SUBSTRUCTURE
      1 ****           1
@<TRIPOS>SET
DONOR_HYDROGENS      STATIC     ATOMS    <user>   **** ""
1 16
ATOM$RED        STATIC     ATOMS    COLORGROUP SYSTEM
1 16
@<TRIPOS>COMMENT
> <Gold.Version>
2022.2.0

> <Gold.Id.Protein>
1qkm|1qkm_protein|mol2

> <Gold.Protein.RotatedTorsions>
[  496  491  490  487 ] final  142.20 input  -89.99 | X-H torsion

> <Gold.Protein.ActiveResidues>
 MET295  LEU298  THR299  LEU301  ALA302  GLU305  TRP335  MET336  LEU339  MET340 
 GLY342  LEU343  ARG346  PHE356  ILE373  ILE376  PHE377  LEU380  LYS471  GLY472 
 MET473  HIS475  LEU476  LEU477  ASN478  MET479  VAL484  VAL487 

> <Gold.Protein.RotatedAtoms>
   37.2261   33.0406   41.3005 H   0  0  0  0  0  0  0  0  0  0  0  0  # atno 496  bound_to 491 

> <Gold.Score>
     Score     S(PLP)   S(hbond)     S(cho)   S(metal)  DE(clash)   DE(tors)     intcor
     35.56     -29.93       0.00       1.88       0.00       0.00       0.01       0.00

> <Gold.PLP.Fitness>
35.5649

> <Gold.PLP.PLP>
-29.9298

> <Gold.PLP.part.hbond>
-0.4608

> <Gold.PLP.part.metal>
0.0000

> <Gold.PLP.part.buried>
-1.6784

> <Gold.PLP.part.nonpolar>
-28.5505

> <Gold.PLP.part.repulsive>
0.2340

> <Gold.PLP.ligand.clash>
0.0000

> <Gold.PLP.ligand.torsion>
0.0063

> <Gold.PLP.Chemscore.Hbond>
0.0000

> <Gold.PLP.Chemscore.CHOScore>
1.8826

> <Gold.PLP.Chemscore.Metal>
0.0000

> <Gold.Chemscore.Hbonds>
donor molecule, donor type, donor heavy atom, donor atom, acceptor molecule, acceptor atom, score
      L1  C     4    13       P1   470  0.99
      L1  C     8    14       P1  1131  0.89

> <Gold.PLP.Chemscore.Internal.Correction>
0.0000

