#       Name:                EN300-104126_i001
#       Creating user name   aseyller
#       Creation time:       Fri Apr 21 19:55:36 2023


#       File generated by GOLD software.
#

@<TRIPOS>MOLECULE
EN300-104126_i001|benzaldehydes|mol2|985|dock10
    16    17     1
SMALL
USER_CHARGES


@<TRIPOS>ATOM
      1 O1          32.1071  33.5432  38.2074 O.2            1 <1>                0.0000
      2 C2          31.3936  34.3808  38.7202 C.2            1 <1>                0.0000
      3 C3          31.2595  35.6597  38.1231 C.2            1 <1>                0.0000
      4 C4          30.4100  36.6727  38.5163 C.2            1 <1>                0.0000
      5 N5          30.5687  37.7368  37.7060 N.pl3          1 <1>                0.0000
      6 C6          31.5223  37.4815  36.7460 C.ar           1 <1>                0.0000
      7 N7          32.0173  38.2015  35.7472 N.ar           1 <1>                0.0000
      8 C8          32.9486  37.6894  34.9647 C.ar           1 <1>                0.0000
      9 C9          33.4183  36.4019  35.1751 C.ar           1 <1>                0.0000
     10 N10         32.9368  35.6714  36.1638 N.ar           1 <1>                0.0000
     11 C11         32.0050  36.1772  36.9603 C.ar           1 <1>                0.0000
     12 H12         30.8574  34.1502  39.6289 H              1 <1>                0.0000
     13 H13         29.7220  36.6205  39.3472 H              1 <1>                0.0000
     14 H14         33.3485  38.2786  34.1528 H              1 <1>                0.0000
     15 H15         34.1806  35.9950  34.5274 H              1 <1>                0.0000
     16 H16         30.0777  38.5694  37.7872 H              1 <1>                0.0000
@<TRIPOS>BOND
    1    1    2 2     
    2    2    3 1     
    3    2   12 1     
    4    3    4 2     
    5    3   11 1     
    6    4    5 1     
    7    4   13 1     
    8    5    6 1     
    9    5   16 1     
   10    6    7 ar    
   11    6   11 ar    
   12    7    8 ar    
   13    8    9 ar    
   14    8   14 1     
   15    9   10 ar    
   16    9   15 1     
   17   10   11 ar    
@<TRIPOS>SUBSTRUCTURE
      1 ****           1
@<TRIPOS>SET
DONOR_HYDROGENS      STATIC     ATOMS    <user>   **** ""
1 16
ATOM$RED        STATIC     ATOMS    COLORGROUP SYSTEM
1 16
@<TRIPOS>COMMENT
> <Gold.Version>
2022.2.0

> <Gold.Id.Protein>
1qkm|1qkm_protein|mol2

> <Gold.Protein.RotatedTorsions>
[  496  491  490  487 ] final -165.93 input  -89.99 | X-H torsion

> <Gold.Protein.ActiveResidues>
 MET295  LEU298  THR299  LEU301  ALA302  GLU305  TRP335  MET336  LEU339  MET340 
 GLY342  LEU343  ARG346  PHE356  ILE373  ILE376  PHE377  LEU380  LYS471  GLY472 
 MET473  HIS475  LEU476  LEU477  ASN478  MET479  VAL484  VAL487 

> <Gold.Protein.RotatedAtoms>
   37.2943   33.6712   40.7731 H   0  0  0  0  0  0  0  0  0  0  0  0  # atno 496  bound_to 491 

> <Gold.Score>
     Score     S(PLP)   S(hbond)     S(cho)   S(metal)  DE(clash)   DE(tors)     intcor
     34.55     -31.57       0.00       1.00       0.00       0.00       0.01       0.00

> <Gold.PLP.Fitness>
34.5516

> <Gold.PLP.PLP>
-31.5677

> <Gold.PLP.part.hbond>
0.0000

> <Gold.PLP.part.metal>
0.0000

> <Gold.PLP.part.buried>
-4.6088

> <Gold.PLP.part.nonpolar>
-27.1627

> <Gold.PLP.part.repulsive>
0.1034

> <Gold.PLP.ligand.clash>
0.0000

> <Gold.PLP.ligand.torsion>
0.0080

> <Gold.PLP.Chemscore.Hbond>
0.0000

> <Gold.PLP.Chemscore.CHOScore>
1.0000

> <Gold.PLP.Chemscore.Metal>
0.0000

> <Gold.Chemscore.Hbonds>
donor molecule, donor type, donor heavy atom, donor atom, acceptor molecule, acceptor atom, score
      L1  C     8    14       P1  3229  1.00

> <Gold.PLP.Chemscore.Internal.Correction>
0.0000

