#       Name:                EN300-104126_i001
#       Creating user name   aseyller
#       Creation time:       Fri Apr 21 19:55:34 2023


#       File generated by GOLD software.
#

@<TRIPOS>MOLECULE
EN300-104126_i001|benzaldehydes|mol2|985|dock1
    16    17     1
SMALL
USER_CHARGES


@<TRIPOS>ATOM
      1 O1          25.2460  36.9918  41.7893 O.2            1 <1>                0.0000
      2 C2          25.7604  36.9087  40.6928 C.2            1 <1>                0.0000
      3 C3          27.1509  36.6567  40.5794 C.2            1 <1>                0.0000
      4 C4          27.9715  36.0937  41.5345 C.2            1 <1>                0.0000
      5 N5          29.2300  36.0151  41.0609 N.pl3          1 <1>                0.0000
      6 C6          29.3022  36.5179  39.7810 C.ar           1 <1>                0.0000
      7 N7          30.2996  36.6535  38.9162 N.ar           1 <1>                0.0000
      8 C8          30.0738  37.1826  37.7283 C.ar           1 <1>                0.0000
      9 C9          28.8008  37.6004  37.3717 C.ar           1 <1>                0.0000
     10 N10         27.7970  37.4734  38.2198 N.ar           1 <1>                0.0000
     11 C11         28.0102  36.9379  39.4139 C.ar           1 <1>                0.0000
     12 H12         25.1578  37.0223  39.8038 H              1 <1>                0.0000
     13 H13         27.6535  35.7662  42.5133 H              1 <1>                0.0000
     14 H14         30.8884  37.2913  37.0277 H              1 <1>                0.0000
     15 H15         28.6299  38.0317  36.3965 H              1 <1>                0.0000
     16 H16         29.9829  35.6541  41.5544 H              1 <1>                0.0000
@<TRIPOS>BOND
    1    1    2 2     
    2    2    3 1     
    3    2   12 1     
    4    3    4 2     
    5    3   11 1     
    6    4    5 1     
    7    4   13 1     
    8    5    6 1     
    9    5   16 1     
   10    6    7 ar    
   11    6   11 ar    
   12    7    8 ar    
   13    8    9 ar    
   14    8   14 1     
   15    9   10 ar    
   16    9   15 1     
   17   10   11 ar    
@<TRIPOS>SUBSTRUCTURE
      1 ****           1
@<TRIPOS>SET
DONOR_HYDROGENS      STATIC     ATOMS    <user>   **** ""
1 16
ATOM$RED        STATIC     ATOMS    COLORGROUP SYSTEM
1 16
@<TRIPOS>COMMENT
> <Gold.Version>
2022.2.0

> <Gold.Id.Protein>
1qkm|1qkm_protein|mol2

> <Gold.Protein.RotatedTorsions>
[  496  491  490  487 ] final -156.48 input  -89.99 | X-H torsion

> <Gold.Protein.ActiveResidues>
 MET295  LEU298  THR299  LEU301  ALA302  GLU305  TRP335  MET336  LEU339  MET340 
 GLY342  LEU343  ARG346  PHE356  ILE373  ILE376  PHE377  LEU380  LYS471  GLY472 
 MET473  HIS475  LEU476  LEU477  ASN478  MET479  VAL484  VAL487 

> <Gold.Protein.RotatedAtoms>
   37.2613   33.8184   40.7357 H   0  0  0  0  0  0  0  0  0  0  0  0  # atno 496  bound_to 491 

> <Gold.Score>
     Score     S(PLP)   S(hbond)     S(cho)   S(metal)  DE(clash)   DE(tors)     intcor
     40.31     -33.53       1.32       1.00       0.00       0.00       0.10       0.00

> <Gold.PLP.Fitness>
40.3070

> <Gold.PLP.PLP>
-33.5273

> <Gold.PLP.part.hbond>
-2.0000

> <Gold.PLP.part.metal>
0.0000

> <Gold.PLP.part.buried>
-5.4354

> <Gold.PLP.part.nonpolar>
-26.7226

> <Gold.PLP.part.repulsive>
0.3894

> <Gold.PLP.ligand.clash>
0.0000

> <Gold.PLP.ligand.torsion>
0.0969

> <Gold.PLP.Chemscore.Hbond>
1.3245

> <Gold.PLP.Chemscore.CHOScore>
1.0000

> <Gold.PLP.Chemscore.Metal>
0.0000

> <Gold.Chemscore.Hbonds>
donor molecule, donor type, donor heavy atom, donor atom, acceptor molecule, acceptor atom, score
      L1  H     5    16       P1   470  1.00
      P1  H  1258  1270       L1     1  0.32
      L1  C     4    13       P1   582  1.00

> <Gold.PLP.Chemscore.Internal.Correction>
0.0000

