#       Name:                EN300-104126_i001
#       Creating user name   aseyller
#       Creation time:       Fri Apr 21 19:55:39 2023


#       File generated by GOLD software.
#

@<TRIPOS>MOLECULE
EN300-104126_i001|benzaldehydes|mol2|985|dock19
    16    17     1
SMALL
USER_CHARGES


@<TRIPOS>ATOM
      1 O1          29.3571  39.4687  36.1899 O.2            1 <1>                0.0000
      2 C2          28.4481  38.9394  36.7958 C.2            1 <1>                0.0000
      3 C3          28.7245  37.9131  37.7341 C.2            1 <1>                0.0000
      4 C4          29.9376  37.2934  37.9509 C.2            1 <1>                0.0000
      5 N5          29.8072  36.3702  38.9228 N.pl3          1 <1>                0.0000
      6 C6          28.5131  36.3347  39.3920 C.ar           1 <1>                0.0000
      7 N7          27.9073  35.6100  40.3241 N.ar           1 <1>                0.0000
      8 C8          26.6236  35.7936  40.5701 C.ar           1 <1>                0.0000
      9 C9          25.8972  36.7392  39.8626 C.ar           1 <1>                0.0000
     10 N10         26.4838  37.4687  38.9316 N.ar           1 <1>                0.0000
     11 C11         27.7743  37.2975  38.6796 C.ar           1 <1>                0.0000
     12 H12         27.4292  39.2534  36.6234 H              1 <1>                0.0000
     13 H13         30.8526  37.5145  37.4214 H              1 <1>                0.0000
     14 H14         26.1344  35.2015  41.3293 H              1 <1>                0.0000
     15 H15         24.8474  36.8793  40.0738 H              1 <1>                0.0000
     16 H16         30.5268  35.8067  39.2478 H              1 <1>                0.0000
@<TRIPOS>BOND
    1    1    2 2     
    2    2    3 1     
    3    2   12 1     
    4    3    4 2     
    5    3   11 1     
    6    4    5 1     
    7    4   13 1     
    8    5    6 1     
    9    5   16 1     
   10    6    7 ar    
   11    6   11 ar    
   12    7    8 ar    
   13    8    9 ar    
   14    8   14 1     
   15    9   10 ar    
   16    9   15 1     
   17   10   11 ar    
@<TRIPOS>SUBSTRUCTURE
      1 ****           1
@<TRIPOS>SET
DONOR_HYDROGENS      STATIC     ATOMS    <user>   **** ""
1 16
ATOM$RED        STATIC     ATOMS    COLORGROUP SYSTEM
1 16
@<TRIPOS>COMMENT
> <Gold.Version>
2022.2.0

> <Gold.Id.Protein>
1qkm|1qkm_protein|mol2

> <Gold.Protein.RotatedTorsions>
[  496  491  490  487 ] final  104.95 input  -89.99 | X-H torsion

> <Gold.Protein.ActiveResidues>
 MET295  LEU298  THR299  LEU301  ALA302  GLU305  TRP335  MET336  LEU339  MET340 
 GLY342  LEU343  ARG346  PHE356  ILE373  ILE376  PHE377  LEU380  LYS471  GLY472 
 MET473  HIS475  LEU476  LEU477  ASN478  MET479  VAL484  VAL487 

> <Gold.Protein.RotatedAtoms>
   36.9557   32.9526   41.8317 H   0  0  0  0  0  0  0  0  0  0  0  0  # atno 496  bound_to 491 

> <Gold.Score>
     Score     S(PLP)   S(hbond)     S(cho)   S(metal)  DE(clash)   DE(tors)     intcor
     35.41     -29.45       0.00       2.00       0.00       0.00       0.02       0.00

> <Gold.PLP.Fitness>
35.4106

> <Gold.PLP.PLP>
-29.4452

> <Gold.PLP.part.hbond>
0.0000

> <Gold.PLP.part.metal>
0.0000

> <Gold.PLP.part.buried>
-4.5767

> <Gold.PLP.part.nonpolar>
-25.4915

> <Gold.PLP.part.repulsive>
0.1169

> <Gold.PLP.ligand.clash>
0.0000

> <Gold.PLP.ligand.torsion>
0.0173

> <Gold.PLP.Chemscore.Hbond>
0.0000

> <Gold.PLP.Chemscore.CHOScore>
2.0000

> <Gold.PLP.Chemscore.Metal>
0.0000

> <Gold.Chemscore.Hbonds>
donor molecule, donor type, donor heavy atom, donor atom, acceptor molecule, acceptor atom, score
      L1  C     8    14       P1   582  1.00
      L1  C     9    15       P1  1131  1.00

> <Gold.PLP.Chemscore.Internal.Correction>
0.0000

