#       Name:                EN300-104126_i001
#       Creating user name   aseyller
#       Creation time:       Fri Apr 21 19:55:35 2023


#       File generated by GOLD software.
#

@<TRIPOS>MOLECULE
EN300-104126_i001|benzaldehydes|mol2|985|dock4
    16    17     1
SMALL
USER_CHARGES


@<TRIPOS>ATOM
      1 O1          30.3294  36.6294  38.2886 O.2            1 <1>                0.0000
      2 C2          30.3028  36.1453  39.4015 C.2            1 <1>                0.0000
      3 C3          29.1036  36.1714  40.1574 C.2            1 <1>                0.0000
      4 C4          28.9270  35.7152  41.4471 C.2            1 <1>                0.0000
      5 N5          27.6492  35.9106  41.8255 N.pl3          1 <1>                0.0000
      6 C6          26.9251  36.5003  40.8136 C.ar           1 <1>                0.0000
      7 N7          25.6582  36.8815  40.7099 N.ar           1 <1>                0.0000
      8 C8          25.2263  37.4345  39.5920 C.ar           1 <1>                0.0000
      9 C9          26.0847  37.6227  38.5197 C.ar           1 <1>                0.0000
     10 N10         27.3481  37.2491  38.6053 N.ar           1 <1>                0.0000
     11 C11         27.7952  36.6978  39.7253 C.ar           1 <1>                0.0000
     12 H12         31.1913  35.6907  39.8140 H              1 <1>                0.0000
     13 H13         29.6961  35.2688  42.0599 H              1 <1>                0.0000
     14 H14         24.1944  37.7430  39.5118 H              1 <1>                0.0000
     15 H15         25.7183  38.0764  37.6107 H              1 <1>                0.0000
     16 H16         27.2881  35.6685  42.6926 H              1 <1>                0.0000
@<TRIPOS>BOND
    1    1    2 2     
    2    2    3 1     
    3    2   12 1     
    4    3    4 2     
    5    3   11 1     
    6    4    5 1     
    7    4   13 1     
    8    5    6 1     
    9    5   16 1     
   10    6    7 ar    
   11    6   11 ar    
   12    7    8 ar    
   13    8    9 ar    
   14    8   14 1     
   15    9   10 ar    
   16    9   15 1     
   17   10   11 ar    
@<TRIPOS>SUBSTRUCTURE
      1 ****           1
@<TRIPOS>SET
DONOR_HYDROGENS      STATIC     ATOMS    <user>   **** ""
1 16
ATOM$RED        STATIC     ATOMS    COLORGROUP SYSTEM
1 16
@<TRIPOS>COMMENT
> <Gold.Version>
2022.2.0

> <Gold.Id.Protein>
1qkm|1qkm_protein|mol2

> <Gold.Protein.RotatedTorsions>
[  496  491  490  487 ] final   53.31 input  -89.99 | X-H torsion

> <Gold.Protein.ActiveResidues>
 MET295  LEU298  THR299  LEU301  ALA302  GLU305  TRP335  MET336  LEU339  MET340 
 GLY342  LEU343  ARG346  PHE356  ILE373  ILE376  PHE377  LEU380  LYS471  GLY472 
 MET473  HIS475  LEU476  LEU477  ASN478  MET479  VAL484  VAL487 

> <Gold.Protein.RotatedAtoms>
   36.4979   33.4082   42.3395 H   0  0  0  0  0  0  0  0  0  0  0  0  # atno 496  bound_to 491 

> <Gold.Score>
     Score     S(PLP)   S(hbond)     S(cho)   S(metal)  DE(clash)   DE(tors)     intcor
     38.94     -30.86       0.99       1.70       0.00       0.00       0.00       0.00

> <Gold.PLP.Fitness>
38.9355

> <Gold.PLP.PLP>
-30.8612

> <Gold.PLP.part.hbond>
-1.0000

> <Gold.PLP.part.metal>
0.0000

> <Gold.PLP.part.buried>
-2.3573

> <Gold.PLP.part.nonpolar>
-28.4106

> <Gold.PLP.part.repulsive>
0.2281

> <Gold.PLP.ligand.clash>
0.0000

> <Gold.PLP.ligand.torsion>
0.0016

> <Gold.PLP.Chemscore.Hbond>
0.9920

> <Gold.PLP.Chemscore.CHOScore>
1.7005

> <Gold.PLP.Chemscore.Metal>
0.0000

> <Gold.Chemscore.Hbonds>
donor molecule, donor type, donor heavy atom, donor atom, acceptor molecule, acceptor atom, score
      L1  H     5    16       P1   582  0.99
      L1  C     4    13       P1   470  1.00
      L1  C     8    14       P1  1131  0.70

> <Gold.PLP.Chemscore.Internal.Correction>
0.0000

