#       Name:                EN300-104126_i001
#       Creating user name   aseyller
#       Creation time:       Fri Apr 21 19:55:38 2023


#       File generated by GOLD software.
#

@<TRIPOS>MOLECULE
EN300-104126_i001|benzaldehydes|mol2|985|dock16
    16    17     1
SMALL
USER_CHARGES


@<TRIPOS>ATOM
      1 O1          30.7508  39.1204  34.9814 O.2            1 <1>                0.0000
      2 C2          31.7309  38.5312  34.5740 C.2            1 <1>                0.0000
      3 C3          32.2742  37.4569  35.3227 C.2            1 <1>                0.0000
      4 C4          33.4157  36.7388  35.0329 C.2            1 <1>                0.0000
      5 N5          33.6103  35.7975  35.9764 N.pl3          1 <1>                0.0000
      6 C6          32.6158  35.8468  36.9276 C.ar           1 <1>                0.0000
      7 N7          32.3774  35.1413  38.0259 N.ar           1 <1>                0.0000
      8 C8          31.3211  35.4153  38.7683 C.ar           1 <1>                0.0000
      9 C9          30.4535  36.4365  38.4123 C.ar           1 <1>                0.0000
     10 N10         30.6751  37.1482  37.3226 N.ar           1 <1>                0.0000
     11 C11         31.7363  36.8862  36.5720 C.ar           1 <1>                0.0000
     12 H12         32.1861  38.8225  33.6389 H              1 <1>                0.0000
     13 H13         34.0558  36.9057  34.1791 H              1 <1>                0.0000
     14 H14         31.1306  34.8385  39.6612 H              1 <1>                0.0000
     15 H15         29.5928  36.6502  39.0286 H              1 <1>                0.0000
     16 H16         34.3499  35.1700  35.9845 H              1 <1>                0.0000
@<TRIPOS>BOND
    1    1    2 2     
    2    2    3 1     
    3    2   12 1     
    4    3    4 2     
    5    3   11 1     
    6    4    5 1     
    7    4   13 1     
    8    5    6 1     
    9    5   16 1     
   10    6    7 ar    
   11    6   11 ar    
   12    7    8 ar    
   13    8    9 ar    
   14    8   14 1     
   15    9   10 ar    
   16    9   15 1     
   17   10   11 ar    
@<TRIPOS>SUBSTRUCTURE
      1 ****           1
@<TRIPOS>SET
DONOR_HYDROGENS      STATIC     ATOMS    <user>   **** ""
1 16
ATOM$RED        STATIC     ATOMS    COLORGROUP SYSTEM
1 16
@<TRIPOS>COMMENT
> <Gold.Version>
2022.2.0

> <Gold.Id.Protein>
1qkm|1qkm_protein|mol2

> <Gold.Protein.RotatedTorsions>
[  496  491  490  487 ] final  -98.67 input  -89.99 | X-H torsion

> <Gold.Protein.ActiveResidues>
 MET295  LEU298  THR299  LEU301  ALA302  GLU305  TRP335  MET336  LEU339  MET340 
 GLY342  LEU343  ARG346  PHE356  ILE373  ILE376  PHE377  LEU380  LYS471  GLY472 
 MET473  HIS475  LEU476  LEU477  ASN478  MET479  VAL484  VAL487 

> <Gold.Protein.RotatedAtoms>
   36.8375   34.5873   40.9815 H   0  0  0  0  0  0  0  0  0  0  0  0  # atno 496  bound_to 491 

> <Gold.Score>
     Score     S(PLP)   S(hbond)     S(cho)   S(metal)  DE(clash)   DE(tors)     intcor
     36.26     -30.27       0.00       2.00       0.00       0.00       0.00       0.00

> <Gold.PLP.Fitness>
36.2643

> <Gold.PLP.PLP>
-30.2701

> <Gold.PLP.part.hbond>
0.0000

> <Gold.PLP.part.metal>
0.0000

> <Gold.PLP.part.buried>
-4.3195

> <Gold.PLP.part.nonpolar>
-26.4198

> <Gold.PLP.part.repulsive>
0.0802

> <Gold.PLP.ligand.clash>
0.0000

> <Gold.PLP.ligand.torsion>
0.0029

> <Gold.PLP.Chemscore.Hbond>
0.0000

> <Gold.PLP.Chemscore.CHOScore>
2.0000

> <Gold.PLP.Chemscore.Metal>
0.0000

> <Gold.Chemscore.Hbonds>
donor molecule, donor type, donor heavy atom, donor atom, acceptor molecule, acceptor atom, score
      L1  C     4    13       P1  3229  1.00
      L1  C     8    14       P1   470  1.00

> <Gold.PLP.Chemscore.Internal.Correction>
0.0000

