#       Name:                EN300-104126_i001
#       Creating user name   aseyller
#       Creation time:       Fri Apr 21 19:55:38 2023


#       File generated by GOLD software.
#

@<TRIPOS>MOLECULE
EN300-104126_i001|benzaldehydes|mol2|985|dock17
    16    17     1
SMALL
USER_CHARGES


@<TRIPOS>ATOM
      1 O1          29.0579  38.3568  37.1785 O.2            1 <1>                0.0000
      2 C2          27.8443  38.3861  37.1818 C.2            1 <1>                0.0000
      3 C3          27.1226  37.7433  38.2191 C.2            1 <1>                0.0000
      4 C4          25.7523  37.6982  38.3701 C.2            1 <1>                0.0000
      5 N5          25.4416  36.9944  39.4757 N.pl3          1 <1>                0.0000
      6 C6          26.5810  36.5439  40.1040 C.ar           1 <1>                0.0000
      7 N7          26.7868  35.8256  41.2007 N.ar           1 <1>                0.0000
      8 C8          28.0183  35.5348  41.5760 C.ar           1 <1>                0.0000
      9 C9          29.1047  35.9731  40.8344 C.ar           1 <1>                0.0000
     10 N10         28.9184  36.6890  39.7408 N.ar           1 <1>                0.0000
     11 C11         27.6856  36.9825  39.3504 C.ar           1 <1>                0.0000
     12 H12         27.3146  38.9056  36.3970 H              1 <1>                0.0000
     13 H13         25.0374  38.1577  37.7037 H              1 <1>                0.0000
     14 H14         28.1812  34.9503  42.4693 H              1 <1>                0.0000
     15 H15         30.1071  35.7280  41.1527 H              1 <1>                0.0000
     16 H16         24.5382  36.8280  39.7872 H              1 <1>                0.0000
@<TRIPOS>BOND
    1    1    2 2     
    2    2    3 1     
    3    2   12 1     
    4    3    4 2     
    5    3   11 1     
    6    4    5 1     
    7    4   13 1     
    8    5    6 1     
    9    5   16 1     
   10    6    7 ar    
   11    6   11 ar    
   12    7    8 ar    
   13    8    9 ar    
   14    8   14 1     
   15    9   10 ar    
   16    9   15 1     
   17   10   11 ar    
@<TRIPOS>SUBSTRUCTURE
      1 ****           1
@<TRIPOS>SET
DONOR_HYDROGENS      STATIC     ATOMS    <user>   **** ""
1 16
ATOM$RED        STATIC     ATOMS    COLORGROUP SYSTEM
1 16
@<TRIPOS>COMMENT
> <Gold.Version>
2022.2.0

> <Gold.Id.Protein>
1qkm|1qkm_protein|mol2

> <Gold.Protein.RotatedTorsions>
[  496  491  490  487 ] final  171.04 input  -89.99 | X-H torsion

> <Gold.Protein.ActiveResidues>
 MET295  LEU298  THR299  LEU301  ALA302  GLU305  TRP335  MET336  LEU339  MET340 
 GLY342  LEU343  ARG346  PHE356  ILE373  ILE376  PHE377  LEU380  LYS471  GLY472 
 MET473  HIS475  LEU476  LEU477  ASN478  MET479  VAL484  VAL487 

> <Gold.Protein.RotatedAtoms>
   37.3163   33.3392   40.9494 H   0  0  0  0  0  0  0  0  0  0  0  0  # atno 496  bound_to 491 

> <Gold.Score>
     Score     S(PLP)   S(hbond)     S(cho)   S(metal)  DE(clash)   DE(tors)     intcor
     35.00     -28.42       0.51       1.68       0.00       0.00       0.00       0.00

> <Gold.PLP.Fitness>
34.9957

> <Gold.PLP.PLP>
-28.4191

> <Gold.PLP.part.hbond>
-0.7234

> <Gold.PLP.part.metal>
0.0000

> <Gold.PLP.part.buried>
-2.9146

> <Gold.PLP.part.nonpolar>
-26.1156

> <Gold.PLP.part.repulsive>
1.3262

> <Gold.PLP.ligand.clash>
0.0000

> <Gold.PLP.ligand.torsion>
0.0002

> <Gold.PLP.Chemscore.Hbond>
0.5119

> <Gold.PLP.Chemscore.CHOScore>
1.6804

> <Gold.PLP.Chemscore.Metal>
0.0000

> <Gold.Chemscore.Hbonds>
donor molecule, donor type, donor heavy atom, donor atom, acceptor molecule, acceptor atom, score
      L1  H     5    16       P1  1131  0.51
      L1  C     8    14       P1   582  0.68
      L1  C     9    15       P1   470  1.00

> <Gold.PLP.Chemscore.Internal.Correction>
0.0000

