#       Name:                EN300-104126_i001
#       Creating user name   aseyller
#       Creation time:       Fri Apr 21 19:55:38 2023


#       File generated by GOLD software.
#

@<TRIPOS>MOLECULE
EN300-104126_i001|benzaldehydes|mol2|985|dock15
    16    17     1
SMALL
USER_CHARGES


@<TRIPOS>ATOM
      1 O1          31.0465  35.4960  38.6803 O.2            1 <1>                0.0000
      2 C2          30.2495  35.9929  39.4495 C.2            1 <1>                0.0000
      3 C3          29.0422  36.5500  38.9573 C.2            1 <1>                0.0000
      4 C4          28.8155  37.0491  37.6916 C.2            1 <1>                0.0000
      5 N5          27.5465  37.4909  37.5997 N.pl3          1 <1>                0.0000
      6 C6          26.8781  37.3071  38.7895 C.ar           1 <1>                0.0000
      7 N7          25.6396  37.5752  39.1833 N.ar           1 <1>                0.0000
      8 C8          25.2621  37.2832  40.4138 C.ar           1 <1>                0.0000
      9 C9          26.1486  36.6967  41.3040 C.ar           1 <1>                0.0000
     10 N10         27.3847  36.4234  40.9293 N.ar           1 <1>                0.0000
     11 C11         27.7738  36.7068  39.6937 C.ar           1 <1>                0.0000
     12 H12         30.4581  36.0064  40.5090 H              1 <1>                0.0000
     13 H13         29.5448  37.0813  36.8956 H              1 <1>                0.0000
     14 H14         24.2533  37.5034  40.7303 H              1 <1>                0.0000
     15 H15         25.8267  36.4629  42.3081 H              1 <1>                0.0000
     16 H16         27.1565  37.8853  36.8039 H              1 <1>                0.0000
@<TRIPOS>BOND
    1    1    2 2     
    2    2    3 1     
    3    2   12 1     
    4    3    4 2     
    5    3   11 1     
    6    4    5 1     
    7    4   13 1     
    8    5    6 1     
    9    5   16 1     
   10    6    7 ar    
   11    6   11 ar    
   12    7    8 ar    
   13    8    9 ar    
   14    8   14 1     
   15    9   10 ar    
   16    9   15 1     
   17   10   11 ar    
@<TRIPOS>SUBSTRUCTURE
      1 ****           1
@<TRIPOS>SET
DONOR_HYDROGENS      STATIC     ATOMS    <user>   **** ""
1 16
ATOM$RED        STATIC     ATOMS    COLORGROUP SYSTEM
1 16
@<TRIPOS>COMMENT
> <Gold.Version>
2022.2.0

> <Gold.Id.Protein>
1qkm|1qkm_protein|mol2

> <Gold.Protein.RotatedTorsions>
[  496  491  490  487 ] final   99.73 input  -89.99 | X-H torsion

> <Gold.Protein.ActiveResidues>
 MET295  LEU298  THR299  LEU301  ALA302  GLU305  TRP335  MET336  LEU339  MET340 
 GLY342  LEU343  ARG346  PHE356  ILE373  ILE376  PHE377  LEU380  LYS471  GLY472 
 MET473  HIS475  LEU476  LEU477  ASN478  MET479  VAL484  VAL487 

> <Gold.Protein.RotatedAtoms>
   36.9092   32.9701   41.9017 H   0  0  0  0  0  0  0  0  0  0  0  0  # atno 496  bound_to 491 

> <Gold.Score>
     Score     S(PLP)   S(hbond)     S(cho)   S(metal)  DE(clash)   DE(tors)     intcor
     34.21     -29.52       0.00       1.65       0.00       0.00       0.14       0.00

> <Gold.PLP.Fitness>
34.2108

> <Gold.PLP.PLP>
-29.5242

> <Gold.PLP.part.hbond>
0.0000

> <Gold.PLP.part.metal>
0.0000

> <Gold.PLP.part.buried>
-2.8353

> <Gold.PLP.part.nonpolar>
-26.8432

> <Gold.PLP.part.repulsive>
0.2374

> <Gold.PLP.ligand.clash>
0.0000

> <Gold.PLP.ligand.torsion>
0.1384

> <Gold.PLP.Chemscore.Hbond>
0.0000

> <Gold.PLP.Chemscore.CHOScore>
1.6544

> <Gold.PLP.Chemscore.Metal>
0.0000

> <Gold.Chemscore.Hbonds>
donor molecule, donor type, donor heavy atom, donor atom, acceptor molecule, acceptor atom, score
      L1  C     8    14       P1  1131  0.65
      L1  C     9    15       P1   582  1.00

> <Gold.PLP.Chemscore.Internal.Correction>
0.0000

