#       Name:                EN300-104126_i001
#       Creating user name   aseyller
#       Creation time:       Fri Apr 21 19:55:34 2023


#       File generated by GOLD software.
#

@<TRIPOS>MOLECULE
EN300-104126_i001|benzaldehydes|mol2|985|dock2
    16    17     1
SMALL
USER_CHARGES


@<TRIPOS>ATOM
      1 O1          30.3997  38.2880  36.7530 O.2            1 <1>                0.0000
      2 C2          29.3075  38.0116  37.2051 C.2            1 <1>                0.0000
      3 C3          29.2057  37.2603  38.4032 C.2            1 <1>                0.0000
      4 C4          30.2364  36.6560  39.0923 C.2            1 <1>                0.0000
      5 N5          29.7488  36.0351  40.1836 N.pl3          1 <1>                0.0000
      6 C6          28.3840  36.1972  40.2685 C.ar           1 <1>                0.0000
      7 N7          27.4754  35.7826  41.1423 N.ar           1 <1>                0.0000
      8 C8          26.2048  36.0952  40.9694 C.ar           1 <1>                0.0000
      9 C9          25.8063  36.8552  39.8804 C.ar           1 <1>                0.0000
     10 N10         26.6968  37.2757  39.0010 N.ar           1 <1>                0.0000
     11 C11         27.9771  36.9731  39.1672 C.ar           1 <1>                0.0000
     12 H12         28.4135  38.3419  36.6972 H              1 <1>                0.0000
     13 H13         31.2762  36.6770  38.8009 H              1 <1>                0.0000
     14 H14         25.4686  35.7554  41.6827 H              1 <1>                0.0000
     15 H15         24.7634  37.1038  39.7508 H              1 <1>                0.0000
     16 H16         30.2857  35.5407  40.8224 H              1 <1>                0.0000
@<TRIPOS>BOND
    1    1    2 2     
    2    2    3 1     
    3    2   12 1     
    4    3    4 2     
    5    3   11 1     
    6    4    5 1     
    7    4   13 1     
    8    5    6 1     
    9    5   16 1     
   10    6    7 ar    
   11    6   11 ar    
   12    7    8 ar    
   13    8    9 ar    
   14    8   14 1     
   15    9   10 ar    
   16    9   15 1     
   17   10   11 ar    
@<TRIPOS>SUBSTRUCTURE
      1 ****           1
@<TRIPOS>SET
DONOR_HYDROGENS      STATIC     ATOMS    <user>   **** ""
1 16
ATOM$RED        STATIC     ATOMS    COLORGROUP SYSTEM
1 16
@<TRIPOS>COMMENT
> <Gold.Version>
2022.2.0

> <Gold.Id.Protein>
1qkm|1qkm_protein|mol2

> <Gold.Protein.RotatedTorsions>
[  496  491  490  487 ] final    0.97 input  -89.99 | X-H torsion

> <Gold.Protein.ActiveResidues>
 MET295  LEU298  THR299  LEU301  ALA302  GLU305  TRP335  MET336  LEU339  MET340 
 GLY342  LEU343  ARG346  PHE356  ILE373  ILE376  PHE377  LEU380  LYS471  GLY472 
 MET473  HIS475  LEU476  LEU477  ASN478  MET479  VAL484  VAL487 

> <Gold.Protein.RotatedAtoms>
   36.2603   34.1998   42.2439 H   0  0  0  0  0  0  0  0  0  0  0  0  # atno 496  bound_to 491 

> <Gold.Score>
     Score     S(PLP)   S(hbond)     S(cho)   S(metal)  DE(clash)   DE(tors)     intcor
     40.18     -31.60       1.00       1.87       0.00       0.00       0.01       0.00

> <Gold.PLP.Fitness>
40.1807

> <Gold.PLP.PLP>
-31.5950

> <Gold.PLP.part.hbond>
-1.0000

> <Gold.PLP.part.metal>
0.0000

> <Gold.PLP.part.buried>
-4.5621

> <Gold.PLP.part.nonpolar>
-26.3830

> <Gold.PLP.part.repulsive>
0.1929

> <Gold.PLP.ligand.clash>
0.0000

> <Gold.PLP.ligand.torsion>
0.0122

> <Gold.PLP.Chemscore.Hbond>
1.0000

> <Gold.PLP.Chemscore.CHOScore>
1.8701

> <Gold.PLP.Chemscore.Metal>
0.0000

> <Gold.Chemscore.Hbonds>
donor molecule, donor type, donor heavy atom, donor atom, acceptor molecule, acceptor atom, score
      L1  H     5    16       P1   470  1.00
      L1  C     8    14       P1   582  0.87
      L1  C     9    15       P1  1131  1.00

> <Gold.PLP.Chemscore.Internal.Correction>
0.0000

