#       Name:                EN300-104126_i001
#       Creating user name   aseyller
#       Creation time:       Fri Apr 21 19:55:36 2023


#       File generated by GOLD software.
#

@<TRIPOS>MOLECULE
EN300-104126_i001|benzaldehydes|mol2|985|dock8
    16    17     1
SMALL
USER_CHARGES


@<TRIPOS>ATOM
      1 O1          29.7738  40.0315  36.5415 O.2            1 <1>                0.0000
      2 C2          29.4676  39.1341  37.2995 C.2            1 <1>                0.0000
      3 C3          30.3084  38.0002  37.4318 C.2            1 <1>                0.0000
      4 C4          30.2391  37.0265  38.4064 C.2            1 <1>                0.0000
      5 N5          31.2045  36.1102  38.2005 N.pl3          1 <1>                0.0000
      6 C6          31.9526  36.4304  37.0896 C.ar           1 <1>                0.0000
      7 N7          32.9881  35.8496  36.4969 N.ar           1 <1>                0.0000
      8 C8          33.5184  36.3924  35.4171 C.ar           1 <1>                0.0000
      9 C9          33.0038  37.5680  34.8922 C.ar           1 <1>                0.0000
     10 N10         31.9742  38.1596  35.4692 N.ar           1 <1>                0.0000
     11 C11         31.4291  37.6205  36.5511 C.ar           1 <1>                0.0000
     12 H12         28.5572  39.2016  37.8764 H              1 <1>                0.0000
     13 H13         29.5204  37.0028  39.2122 H              1 <1>                0.0000
     14 H14         34.3613  35.9166  34.9381 H              1 <1>                0.0000
     15 H15         33.4473  38.0016  34.0081 H              1 <1>                0.0000
     16 H16         31.3530  35.3311  38.7589 H              1 <1>                0.0000
@<TRIPOS>BOND
    1    1    2 2     
    2    2    3 1     
    3    2   12 1     
    4    3    4 2     
    5    3   11 1     
    6    4    5 1     
    7    4   13 1     
    8    5    6 1     
    9    5   16 1     
   10    6    7 ar    
   11    6   11 ar    
   12    7    8 ar    
   13    8    9 ar    
   14    8   14 1     
   15    9   10 ar    
   16    9   15 1     
   17   10   11 ar    
@<TRIPOS>SUBSTRUCTURE
      1 ****           1
@<TRIPOS>SET
DONOR_HYDROGENS      STATIC     ATOMS    <user>   **** ""
1 16
ATOM$RED        STATIC     ATOMS    COLORGROUP SYSTEM
1 16
@<TRIPOS>COMMENT
> <Gold.Version>
2022.2.0

> <Gold.Id.Protein>
1qkm|1qkm_protein|mol2

> <Gold.Protein.RotatedTorsions>
[  496  491  490  487 ] final  -58.19 input  -89.99 | X-H torsion

> <Gold.Protein.ActiveResidues>
 MET295  LEU298  THR299  LEU301  ALA302  GLU305  TRP335  MET336  LEU339  MET340 
 GLY342  LEU343  ARG346  PHE356  ILE373  ILE376  PHE377  LEU380  LYS471  GLY472 
 MET473  HIS475  LEU476  LEU477  ASN478  MET479  VAL484  VAL487 

> <Gold.Protein.RotatedAtoms>
   36.4832   34.7290   41.5109 H   0  0  0  0  0  0  0  0  0  0  0  0  # atno 496  bound_to 491 

> <Gold.Score>
     Score     S(PLP)   S(hbond)     S(cho)   S(metal)  DE(clash)   DE(tors)     intcor
     32.56     -29.64       0.00       1.00       0.00       0.00       0.04       0.00

> <Gold.PLP.Fitness>
32.5635

> <Gold.PLP.PLP>
-29.6376

> <Gold.PLP.part.hbond>
0.0000

> <Gold.PLP.part.metal>
0.0000

> <Gold.PLP.part.buried>
-4.5040

> <Gold.PLP.part.nonpolar>
-25.0031

> <Gold.PLP.part.repulsive>
0.0803

> <Gold.PLP.ligand.clash>
0.0000

> <Gold.PLP.ligand.torsion>
0.0370

> <Gold.PLP.Chemscore.Hbond>
0.0000

> <Gold.PLP.Chemscore.CHOScore>
1.0000

> <Gold.PLP.Chemscore.Metal>
0.0000

> <Gold.Chemscore.Hbonds>
donor molecule, donor type, donor heavy atom, donor atom, acceptor molecule, acceptor atom, score
      L1  C     9    15       P1  3229  1.00

> <Gold.PLP.Chemscore.Internal.Correction>
0.0000

