#       Name:                EN300-104126_i001
#       Creating user name   aseyller
#       Creation time:       Fri Apr 21 19:55:39 2023


#       File generated by GOLD software.
#

@<TRIPOS>MOLECULE
EN300-104126_i001|benzaldehydes|mol2|985|dock20
    16    17     1
SMALL
USER_CHARGES


@<TRIPOS>ATOM
      1 O1          29.4681  39.0120  36.6953 O.2            1 <1>                0.0000
      2 C2          30.0615  39.2160  35.6561 C.2            1 <1>                0.0000
      3 C3          31.2267  38.4699  35.3469 C.2            1 <1>                0.0000
      4 C4          32.0647  38.6519  34.2665 C.2            1 <1>                0.0000
      5 N5          33.0653  37.7514  34.3128 N.pl3          1 <1>                0.0000
      6 C6          32.9389  36.9374  35.4162 C.ar           1 <1>                0.0000
      7 N7          33.6603  35.9262  35.8830 N.ar           1 <1>                0.0000
      8 C8          33.2942  35.3134  36.9932 C.ar           1 <1>                0.0000
      9 C9          32.1594  35.7157  37.6807 C.ar           1 <1>                0.0000
     10 N10         31.4297  36.7196  37.2304 N.ar           1 <1>                0.0000
     11 C11         31.7907  37.3469  36.1193 C.ar           1 <1>                0.0000
     12 H12         29.6992  39.9628  34.9651 H              1 <1>                0.0000
     13 H13         31.9376  39.4019  33.4999 H              1 <1>                0.0000
     14 H14         33.8840  34.4906  37.3694 H              1 <1>                0.0000
     15 H15         31.8711  35.2056  38.5879 H              1 <1>                0.0000
     16 H16         33.7777  37.6851  33.6578 H              1 <1>                0.0000
@<TRIPOS>BOND
    1    1    2 2     
    2    2    3 1     
    3    2   12 1     
    4    3    4 2     
    5    3   11 1     
    6    4    5 1     
    7    4   13 1     
    8    5    6 1     
    9    5   16 1     
   10    6    7 ar    
   11    6   11 ar    
   12    7    8 ar    
   13    8    9 ar    
   14    8   14 1     
   15    9   10 ar    
   16    9   15 1     
   17   10   11 ar    
@<TRIPOS>SUBSTRUCTURE
      1 ****           1
@<TRIPOS>SET
DONOR_HYDROGENS      STATIC     ATOMS    <user>   **** ""
1 16
ATOM$RED        STATIC     ATOMS    COLORGROUP SYSTEM
1 16
@<TRIPOS>COMMENT
> <Gold.Version>
2022.2.0

> <Gold.Id.Protein>
1qkm|1qkm_protein|mol2

> <Gold.Protein.RotatedTorsions>
[  496  491  490  487 ] final -152.15 input  -89.99 | X-H torsion

> <Gold.Protein.ActiveResidues>
 MET295  LEU298  THR299  LEU301  ALA302  GLU305  TRP335  MET336  LEU339  MET340 
 GLY342  LEU343  ARG346  PHE356  ILE373  ILE376  PHE377  LEU380  LYS471  GLY472 
 MET473  HIS475  LEU476  LEU477  ASN478  MET479  VAL484  VAL487 

> <Gold.Protein.RotatedAtoms>
   37.2419   33.8862   40.7260 H   0  0  0  0  0  0  0  0  0  0  0  0  # atno 496  bound_to 491 

> <Gold.Score>
     Score     S(PLP)   S(hbond)     S(cho)   S(metal)  DE(clash)   DE(tors)     intcor
     32.91     -29.94       0.99       0.00       0.00       0.00       0.01       0.00

> <Gold.PLP.Fitness>
32.9051

> <Gold.PLP.PLP>
-29.9439

> <Gold.PLP.part.hbond>
-1.0000

> <Gold.PLP.part.metal>
0.0000

> <Gold.PLP.part.buried>
-4.8585

> <Gold.PLP.part.nonpolar>
-24.4103

> <Gold.PLP.part.repulsive>
0.1207

> <Gold.PLP.ligand.clash>
0.0000

> <Gold.PLP.ligand.torsion>
0.0063

> <Gold.PLP.Chemscore.Hbond>
0.9913

> <Gold.PLP.Chemscore.CHOScore>
0.0000

> <Gold.PLP.Chemscore.Metal>
0.0000

> <Gold.Chemscore.Hbonds>
donor molecule, donor type, donor heavy atom, donor atom, acceptor molecule, acceptor atom, score
      L1  H     5    16       P1  3229  0.99

> <Gold.PLP.Chemscore.Internal.Correction>
0.0000

