#       Name:                EN300-104126_i001
#       Creating user name   aseyller
#       Creation time:       Fri Apr 21 19:55:35 2023


#       File generated by GOLD software.
#

@<TRIPOS>MOLECULE
EN300-104126_i001|benzaldehydes|mol2|985|dock5
    16    17     1
SMALL
USER_CHARGES


@<TRIPOS>ATOM
      1 O1          25.5008  37.1977  39.4784 O.2            1 <1>                0.0000
      2 C2          26.1698  36.4648  40.1777 C.2            1 <1>                0.0000
      3 C3          27.5777  36.4224  40.0169 C.2            1 <1>                0.0000
      4 C4          28.4901  35.8215  40.8589 C.2            1 <1>                0.0000
      5 N5          29.7349  35.9913  40.3731 N.pl3          1 <1>                0.0000
      6 C6          29.7064  36.7063  39.1966 C.ar           1 <1>                0.0000
      7 N7          30.6539  37.1160  38.3627 N.ar           1 <1>                0.0000
      8 C8          30.3292  37.8018  37.2828 C.ar           1 <1>                0.0000
      9 C9          29.0035  38.1006  37.0081 C.ar           1 <1>                0.0000
     10 N10         28.0480  37.7012  37.8269 N.ar           1 <1>                0.0000
     11 C11         28.3613  37.0064  38.9120 C.ar           1 <1>                0.0000
     12 H12         25.6928  35.8485  40.9254 H              1 <1>                0.0000
     13 H13         28.2440  35.2954  41.7694 H              1 <1>                0.0000
     14 H14         31.1035  38.1336  36.6070 H              1 <1>                0.0000
     15 H15         28.7516  38.6625  36.1209 H              1 <1>                0.0000
     16 H16         30.5415  35.6559  40.7947 H              1 <1>                0.0000
@<TRIPOS>BOND
    1    1    2 2     
    2    2    3 1     
    3    2   12 1     
    4    3    4 2     
    5    3   11 1     
    6    4    5 1     
    7    4   13 1     
    8    5    6 1     
    9    5   16 1     
   10    6    7 ar    
   11    6   11 ar    
   12    7    8 ar    
   13    8    9 ar    
   14    8   14 1     
   15    9   10 ar    
   16    9   15 1     
   17   10   11 ar    
@<TRIPOS>SUBSTRUCTURE
      1 ****           1
@<TRIPOS>SET
DONOR_HYDROGENS      STATIC     ATOMS    <user>   **** ""
1 16
ATOM$RED        STATIC     ATOMS    COLORGROUP SYSTEM
1 16
@<TRIPOS>COMMENT
> <Gold.Version>
2022.2.0

> <Gold.Id.Protein>
1qkm|1qkm_protein|mol2

> <Gold.Protein.RotatedTorsions>
[  496  491  490  487 ] final   66.71 input  -89.99 | X-H torsion

> <Gold.Protein.ActiveResidues>
 MET295  LEU298  THR299  LEU301  ALA302  GLU305  TRP335  MET336  LEU339  MET340 
 GLY342  LEU343  ARG346  PHE356  ILE373  ILE376  PHE377  LEU380  LYS471  GLY472 
 MET473  HIS475  LEU476  LEU477  ASN478  MET479  VAL484  VAL487 

> <Gold.Protein.RotatedAtoms>
   36.6085   33.2371   42.2563 H   0  0  0  0  0  0  0  0  0  0  0  0  # atno 496  bound_to 491 

> <Gold.Score>
     Score     S(PLP)   S(hbond)     S(cho)   S(metal)  DE(clash)   DE(tors)     intcor
     34.02     -31.08       1.00       0.00       0.00       0.00       0.03       0.00

> <Gold.PLP.Fitness>
34.0216

> <Gold.PLP.PLP>
-31.0805

> <Gold.PLP.part.hbond>
-1.0000

> <Gold.PLP.part.metal>
0.0000

> <Gold.PLP.part.buried>
-5.0983

> <Gold.PLP.part.nonpolar>
-25.7699

> <Gold.PLP.part.repulsive>
0.1842

> <Gold.PLP.ligand.clash>
0.0000

> <Gold.PLP.ligand.torsion>
0.0295

> <Gold.PLP.Chemscore.Hbond>
1.0000

> <Gold.PLP.Chemscore.CHOScore>
0.0000

> <Gold.PLP.Chemscore.Metal>
0.0000

> <Gold.Chemscore.Hbonds>
donor molecule, donor type, donor heavy atom, donor atom, acceptor molecule, acceptor atom, score
      L1  H     5    16       P1   470  1.00

> <Gold.PLP.Chemscore.Internal.Correction>
0.0000

