#       Name:                EN300-104126_i001
#       Creating user name   aseyller
#       Creation time:       Fri Apr 21 19:55:38 2023


#       File generated by GOLD software.
#

@<TRIPOS>MOLECULE
EN300-104126_i001|benzaldehydes|mol2|985|dock14
    16    17     1
SMALL
USER_CHARGES


@<TRIPOS>ATOM
      1 O1          25.6196  37.2736  39.3269 O.2            1 <1>                0.0000
      2 C2          26.1162  37.0026  40.4010 C.2            1 <1>                0.0000
      3 C3          27.4708  36.5903  40.4718 C.2            1 <1>                0.0000
      4 C4          28.1340  36.1110  41.5822 C.2            1 <1>                0.0000
      5 N5          29.4092  35.8226  41.2585 N.pl3          1 <1>                0.0000
      6 C6          29.6492  36.0946  39.9301 C.ar           1 <1>                0.0000
      7 N7          30.7250  35.9783  39.1619 N.ar           1 <1>                0.0000
      8 C8          30.6656  36.3228  37.8892 C.ar           1 <1>                0.0000
      9 C9          29.4869  36.8071  37.3429 C.ar           1 <1>                0.0000
     10 N10         28.4072  36.9296  38.0927 N.ar           1 <1>                0.0000
     11 C11         28.4529  36.5811  39.3713 C.ar           1 <1>                0.0000
     12 H12         25.5273  37.0800  41.3030 H              1 <1>                0.0000
     13 H13         27.6974  35.9866  42.5622 H              1 <1>                0.0000
     14 H14         31.5436  36.2269  37.2676 H              1 <1>                0.0000
     15 H15         29.4521  37.0854  36.3000 H              1 <1>                0.0000
     16 H16         30.0689  35.4715  41.8770 H              1 <1>                0.0000
@<TRIPOS>BOND
    1    1    2 2     
    2    2    3 1     
    3    2   12 1     
    4    3    4 2     
    5    3   11 1     
    6    4    5 1     
    7    4   13 1     
    8    5    6 1     
    9    5   16 1     
   10    6    7 ar    
   11    6   11 ar    
   12    7    8 ar    
   13    8    9 ar    
   14    8   14 1     
   15    9   10 ar    
   16    9   15 1     
   17   10   11 ar    
@<TRIPOS>SUBSTRUCTURE
      1 ****           1
@<TRIPOS>SET
DONOR_HYDROGENS      STATIC     ATOMS    <user>   **** ""
1 16
ATOM$RED        STATIC     ATOMS    COLORGROUP SYSTEM
1 16
@<TRIPOS>COMMENT
> <Gold.Version>
2022.2.0

> <Gold.Id.Protein>
1qkm|1qkm_protein|mol2

> <Gold.Protein.RotatedTorsions>
[  496  491  490  487 ] final  -83.52 input  -89.99 | X-H torsion

> <Gold.Protein.ActiveResidues>
 MET295  LEU298  THR299  LEU301  ALA302  GLU305  TRP335  MET336  LEU339  MET340 
 GLY342  LEU343  ARG346  PHE356  ILE373  ILE376  PHE377  LEU380  LYS471  GLY472 
 MET473  HIS475  LEU476  LEU477  ASN478  MET479  VAL484  VAL487 

> <Gold.Protein.RotatedAtoms>
   36.6978   34.6905   41.1595 H   0  0  0  0  0  0  0  0  0  0  0  0  # atno 496  bound_to 491 

> <Gold.Score>
     Score     S(PLP)   S(hbond)     S(cho)   S(metal)  DE(clash)   DE(tors)     intcor
     35.96     -30.30       0.90       1.00       0.00       0.00       0.01       0.00

> <Gold.PLP.Fitness>
35.9593

> <Gold.PLP.PLP>
-30.2973

> <Gold.PLP.part.hbond>
-1.0000

> <Gold.PLP.part.metal>
0.0000

> <Gold.PLP.part.buried>
-4.6345

> <Gold.PLP.part.nonpolar>
-25.8275

> <Gold.PLP.part.repulsive>
0.2700

> <Gold.PLP.ligand.clash>
0.0000

> <Gold.PLP.ligand.torsion>
0.0130

> <Gold.PLP.Chemscore.Hbond>
0.8960

> <Gold.PLP.Chemscore.CHOScore>
1.0000

> <Gold.PLP.Chemscore.Metal>
0.0000

> <Gold.Chemscore.Hbonds>
donor molecule, donor type, donor heavy atom, donor atom, acceptor molecule, acceptor atom, score
      L1  H     5    16       P1   470  0.90
      L1  C     4    13       P1   582  1.00

> <Gold.PLP.Chemscore.Internal.Correction>
0.0000

