#       Name:                EN300-104126_i001
#       Creating user name   aseyller
#       Creation time:       Fri Apr 21 19:55:37 2023


#       File generated by GOLD software.
#

@<TRIPOS>MOLECULE
EN300-104126_i001|benzaldehydes|mol2|985|dock12
    16    17     1
SMALL
USER_CHARGES


@<TRIPOS>ATOM
      1 O1          27.8505  38.7399  37.0610 O.2            1 <1>                0.0000
      2 C2          28.5987  37.8047  37.2590 C.2            1 <1>                0.0000
      3 C3          28.7637  37.2945  38.5715 C.2            1 <1>                0.0000
      4 C4          29.9479  36.9220  39.1728 C.2            1 <1>                0.0000
      5 N5          29.7032  36.4869  40.4238 N.pl3          1 <1>                0.0000
      6 C6          28.3573  36.5500  40.7081 C.ar           1 <1>                0.0000
      7 N7          27.6433  36.2399  41.7828 N.ar           1 <1>                0.0000
      8 C8          26.3342  36.4077  41.7745 C.ar           1 <1>                0.0000
      9 C9          25.6932  36.9066  40.6508 C.ar           1 <1>                0.0000
     10 N10         26.3880  37.2200  39.5728 N.ar           1 <1>                0.0000
     11 C11         27.7045  37.0613  39.5712 C.ar           1 <1>                0.0000
     12 H12         29.1350  37.3584  36.4347 H              1 <1>                0.0000
     13 H13         30.9228  36.9711  38.7106 H              1 <1>                0.0000
     14 H14         25.7568  36.1538  42.6511 H              1 <1>                0.0000
     15 H15         24.6214  37.0390  40.6574 H              1 <1>                0.0000
     16 H16         30.3824  36.1716  41.0403 H              1 <1>                0.0000
@<TRIPOS>BOND
    1    1    2 2     
    2    2    3 1     
    3    2   12 1     
    4    3    4 2     
    5    3   11 1     
    6    4    5 1     
    7    4   13 1     
    8    5    6 1     
    9    5   16 1     
   10    6    7 ar    
   11    6   11 ar    
   12    7    8 ar    
   13    8    9 ar    
   14    8   14 1     
   15    9   10 ar    
   16    9   15 1     
   17   10   11 ar    
@<TRIPOS>SUBSTRUCTURE
      1 ****           1
@<TRIPOS>SET
DONOR_HYDROGENS      STATIC     ATOMS    <user>   **** ""
1 16
ATOM$RED        STATIC     ATOMS    COLORGROUP SYSTEM
1 16
@<TRIPOS>COMMENT
> <Gold.Version>
2022.2.0

> <Gold.Id.Protein>
1qkm|1qkm_protein|mol2

> <Gold.Protein.RotatedTorsions>
[  496  491  490  487 ] final  -87.41 input  -89.99 | X-H torsion

> <Gold.Protein.ActiveResidues>
 MET295  LEU298  THR299  LEU301  ALA302  GLU305  TRP335  MET336  LEU339  MET340 
 GLY342  LEU343  ARG346  PHE356  ILE373  ILE376  PHE377  LEU380  LYS471  GLY472 
 MET473  HIS475  LEU476  LEU477  ASN478  MET479  VAL484  VAL487 

> <Gold.Protein.RotatedAtoms>
   36.7334   34.6695   41.1107 H   0  0  0  0  0  0  0  0  0  0  0  0  # atno 496  bound_to 491 

> <Gold.Score>
     Score     S(PLP)   S(hbond)     S(cho)   S(metal)  DE(clash)   DE(tors)     intcor
     35.46     -28.00       0.94       1.77       0.00       0.00       0.34       0.00

> <Gold.PLP.Fitness>
35.4569

> <Gold.PLP.PLP>
-28.0006

> <Gold.PLP.part.hbond>
-1.0000

> <Gold.PLP.part.metal>
0.0000

> <Gold.PLP.part.buried>
-2.2903

> <Gold.PLP.part.nonpolar>
-25.9461

> <Gold.PLP.part.repulsive>
0.7143

> <Gold.PLP.ligand.clash>
0.0000

> <Gold.PLP.ligand.torsion>
0.3445

> <Gold.PLP.Chemscore.Hbond>
0.9425

> <Gold.PLP.Chemscore.CHOScore>
1.7726

> <Gold.PLP.Chemscore.Metal>
0.0000

> <Gold.Chemscore.Hbonds>
donor molecule, donor type, donor heavy atom, donor atom, acceptor molecule, acceptor atom, score
      L1  H     5    16       P1   470  0.94
      L1  C     8    14       P1   582  0.79
      L1  C     9    15       P1  1131  0.98

> <Gold.PLP.Chemscore.Internal.Correction>
0.0000

