#       Name:                EN300-104126_i001
#       Creating user name   aseyller
#       Creation time:       Fri Apr 21 19:55:36 2023


#       File generated by GOLD software.
#

@<TRIPOS>MOLECULE
EN300-104126_i001|benzaldehydes|mol2|985|dock9
    16    17     1
SMALL
USER_CHARGES


@<TRIPOS>ATOM
      1 O1          30.7623  37.2797  35.9062 O.2            1 <1>                0.0000
      2 C2          29.7431  37.2177  36.5628 C.2            1 <1>                0.0000
      3 C3          29.7639  36.6224  37.8494 C.2            1 <1>                0.0000
      4 C4          30.8615  36.1052  38.5054 C.2            1 <1>                0.0000
      5 N5          30.4869  35.6273  39.7076 N.pl3          1 <1>                0.0000
      6 C6          29.1353  35.8036  39.9035 C.ar           1 <1>                0.0000
      7 N7          28.3189  35.5048  40.9061 N.ar           1 <1>                0.0000
      8 C8          27.0350  35.7978  40.8195 C.ar           1 <1>                0.0000
      9 C9          26.5267  36.4172  39.6879 C.ar           1 <1>                0.0000
     10 N10         27.3245  36.7213  38.6809 N.ar           1 <1>                0.0000
     11 C11         28.6173  36.4373  38.7587 C.ar           1 <1>                0.0000
     12 H12         28.8216  37.6200  36.1688 H              1 <1>                0.0000
     13 H13         31.8681  36.0859  38.1143 H              1 <1>                0.0000
     14 H14         26.3740  35.5526  41.6376 H              1 <1>                0.0000
     15 H15         25.4740  36.6514  39.6301 H              1 <1>                0.0000
     16 H16         31.0872  35.2147  40.3481 H              1 <1>                0.0000
@<TRIPOS>BOND
    1    1    2 2     
    2    2    3 1     
    3    2   12 1     
    4    3    4 2     
    5    3   11 1     
    6    4    5 1     
    7    4   13 1     
    8    5    6 1     
    9    5   16 1     
   10    6    7 ar    
   11    6   11 ar    
   12    7    8 ar    
   13    8    9 ar    
   14    8   14 1     
   15    9   10 ar    
   16    9   15 1     
   17   10   11 ar    
@<TRIPOS>SUBSTRUCTURE
      1 ****           1
@<TRIPOS>SET
DONOR_HYDROGENS      STATIC     ATOMS    <user>   **** ""
1 16
ATOM$RED        STATIC     ATOMS    COLORGROUP SYSTEM
1 16
@<TRIPOS>COMMENT
> <Gold.Version>
2022.2.0

> <Gold.Id.Protein>
1qkm|1qkm_protein|mol2

> <Gold.Protein.RotatedTorsions>
[  496  491  490  487 ] final   76.92 input  -89.99 | X-H torsion

> <Gold.Protein.ActiveResidues>
 MET295  LEU298  THR299  LEU301  ALA302  GLU305  TRP335  MET336  LEU339  MET340 
 GLY342  LEU343  ARG346  PHE356  ILE373  ILE376  PHE377  LEU380  LYS471  GLY472 
 MET473  HIS475  LEU476  LEU477  ASN478  MET479  VAL484  VAL487 

> <Gold.Protein.RotatedAtoms>
   36.6997   33.1282   42.1668 H   0  0  0  0  0  0  0  0  0  0  0  0  # atno 496  bound_to 491 

> <Gold.Score>
     Score     S(PLP)   S(hbond)     S(cho)   S(metal)  DE(clash)   DE(tors)     intcor
     35.42     -29.42       1.00       1.00       0.00       0.00       0.00       0.00

> <Gold.PLP.Fitness>
35.4153

> <Gold.PLP.PLP>
-29.4167

> <Gold.PLP.part.hbond>
-1.0000

> <Gold.PLP.part.metal>
0.0000

> <Gold.PLP.part.buried>
-4.4599

> <Gold.PLP.part.nonpolar>
-24.6014

> <Gold.PLP.part.repulsive>
0.2211

> <Gold.PLP.ligand.clash>
0.0000

> <Gold.PLP.ligand.torsion>
0.0007

> <Gold.PLP.Chemscore.Hbond>
1.0000

> <Gold.PLP.Chemscore.CHOScore>
1.0000

> <Gold.PLP.Chemscore.Metal>
0.0000

> <Gold.Chemscore.Hbonds>
donor molecule, donor type, donor heavy atom, donor atom, acceptor molecule, acceptor atom, score
      L1  H     5    16       P1   470  1.00
      L1  C     8    14       P1   582  1.00

> <Gold.PLP.Chemscore.Internal.Correction>
0.0000

