#       Name:                plp ligand
#       Creating user name   aseyller
#       Creation time:       Fri Apr 21 19:55:33 2023


#       File generated by GOLD software.
#

@<TRIPOS>MOLECULE
plp ligand
    16    17     1
SMALL
USER_CHARGES


@<TRIPOS>ATOM
      1 O1          -3.6638  -0.5738  -0.0003 ACCEPTOR       1 <1>                0.0000
      2 C2          -2.5175  -0.9734  -0.0007 NONPOLAR       1 <1>                0.0000
      3 C3          -1.4440  -0.0473  -0.0011 NONPOLAR       1 <1>                0.0000
      4 C4          -1.5370   1.3289  -0.0006 NONPOLAR       1 <1>                0.0000
      5 N5          -0.3019   1.8662  -0.0004 DONOR          1 <1>                0.0000
      6 C6           0.6594   0.8803  -0.0007 NONPOLAR       1 <1>                0.0000
      7 N7           1.9861   0.9090  -0.0003 ACCEPTOR       1 <1>                0.0000
      8 C8           2.6692  -0.2203  -0.0003 NONPOLAR       1 <1>                0.0000
      9 C9           2.0138  -1.4421  -0.0007 NONPOLAR       1 <1>                0.0000
     10 N10          0.6944  -1.4893  -0.0015 ACCEPTOR       1 <1>                0.0000
     11 C11         -0.0028  -0.3614   0.0045 NONPOLAR       1 <1>                0.0000
     12 H12         -2.3155  -2.0343   0.0038                1 <1>                0.0000
     13 H13         -2.4597   1.8902  -0.0009                1 <1>                0.0000
     14 H14          3.7488  -0.1924  -0.0003                1 <1>                0.0000
     15 H15          2.5849  -2.3587  -0.0007                1 <1>                0.0000
     16 H16         -0.1150   2.8180  -0.0005                1 <1>                0.0000
@<TRIPOS>BOND
    1    1    2 2     
    2    2    3 1     
    3    2   12 1     
    4    3    4 2     
    5    3   11 1     
    6    4    5 1     
    7    4   13 1     
    8    5    6 1     
    9    5   16 1     
   10    6    7 ar    
   11    6   11 ar    
   12    7    8 ar    
   13    8    9 ar    
   14    8   14 1     
   15    9   10 ar    
   16    9   15 1     
   17   10   11 ar    
@<TRIPOS>SUBSTRUCTURE
      1 ****           1
@<TRIPOS>SET
DONOR_HYDROGENS      STATIC     ATOMS    <user>   **** ""
1 16
ATOM$RED        STATIC     ATOMS    COLORGROUP SYSTEM
1 16
