#       Name:                EN300-703997_i001
#       Creating user name   fsindt
#       Creation time:       Mon Feb 27 21:20:27 2023


#       File generated by GOLD software.
#

@<TRIPOS>MOLECULE
EN300-703997_i001|amine_3|mol2|817|dock13
    27    27     1
SMALL
USER_CHARGES


@<TRIPOS>ATOM
      1 C1          -1.1814 -18.6017   9.2572 C.3            1 <1>                0.0000
      2 O2          -0.1787 -18.0877  10.1731 O.3            1 <1>                0.0000
      3 C3          -0.5811 -17.8081  11.4227 C.2            1 <1>                0.0000
      4 O4          -1.4865 -18.4346  11.9203 O.2            1 <1>                0.0000
      5 C5           0.0965 -16.7128  12.2051 C.3            1 <1>                0.0000
      6 N6           1.0282 -15.9701  11.3289 N.4            1 <1>                1.0000
      7 C7           2.1822 -15.5988  12.1872 C.3            1 <1>                0.0000
      8 C8           2.3840 -16.8543  13.0725 C.3            1 <1>                0.0000
      9 C9           0.9358 -17.3229  13.3429 C.3            1 <1>                0.0000
     10 C10          0.4531 -16.8010  14.6977 C.3            1 <1>                0.0000
     11 C11          0.8556 -18.8503  13.3018 C.3            1 <1>                0.0000
     12 H12         -1.5879 -19.5339   9.6494 H              1 <1>                0.0000
     13 H13         -1.9839 -17.8720   9.1501 H              1 <1>                0.0000
     14 H14         -0.7249 -18.7852   8.2845 H              1 <1>                0.0000
     15 H15         -0.6504 -16.0325  12.6143 H              1 <1>                0.0000
     16 H16          3.0677 -15.4096  11.5805 H              1 <1>                0.0000
     17 H17          1.9420 -14.7303  12.8004 H              1 <1>                0.0000
     18 H18          2.9430 -17.6199  12.5344 H              1 <1>                0.0000
     19 H19          2.8851 -16.5927  14.0044 H              1 <1>                0.0000
     20 H20          0.5047 -15.7123  14.7069 H              1 <1>                0.0000
     21 H21         -0.5769 -17.1173  14.8629 H              1 <1>                0.0000
     22 H22          1.0874 -17.2015  15.4884 H              1 <1>                0.0000
     23 H23          1.4934 -19.2688  14.0804 H              1 <1>                0.0000
     24 H24         -0.1748 -19.1645  13.4684 H              1 <1>                0.0000
     25 H25          1.1908 -19.2057  12.3275 H              1 <1>                0.0000
     26 H26          1.3350 -16.5586  10.5690 H              1 <1>                0.0000
     27 H27          0.5809 -15.1402  10.9694 H              1 <1>                0.0000
@<TRIPOS>BOND
    1    1    2 1     
    2    1   12 1     
    3    1   13 1     
    4    1   14 1     
    5    2    3 1     
    6    3    4 2     
    7    3    5 1     
    8    5    6 1     
    9    5    9 1     
   10    5   15 1     
   11    6    7 1     
   12    6   26 1     
   13    6   27 1     
   14    7    8 1     
   15    7   16 1     
   16    7   17 1     
   17    8    9 1     
   18    8   18 1     
   19    8   19 1     
   20    9   10 1     
   21    9   11 1     
   22   10   20 1     
   23   10   21 1     
   24   10   22 1     
   25   11   23 1     
   26   11   24 1     
   27   11   25 1     
@<TRIPOS>SUBSTRUCTURE
      1 ****           1
@<TRIPOS>SET
DONOR_HYDROGENS      STATIC     ATOMS    <user>   **** ""
2 26 27
ATOM$RED        STATIC     ATOMS    COLORGROUP SYSTEM
2 26 27
@<TRIPOS>COMMENT
> <Gold.Version>
2022.2.0

> <Gold.Id.Protein>
3pbl|protein|mol2

> <Gold.Protein.RotatedTorsions>
[ 1303 1298 1297 1294 ] final   10.48 input  179.99 | X-H torsion
[ 2461 2456 2455 2452 ] final  -35.16 input   30.03 | X-H torsion
[ 2515 2510 2509 2506 ] final -121.33 input  -89.99 | X-H torsion
[ 3721 3712 3711 3710 ] final   73.93 input -179.91 | X-H torsion
[ 3841 3832 3831 3830 ] final -174.78 input -179.91 | X-H torsion
[ 3767 3762 3761 3758 ] final  -29.03 input  -89.99 | X-H torsion
[ 2472 2467 2466 2463 ] final -138.41 input  -89.97 | X-H torsion

> <Gold.Protein.ActiveResidues>
 VAL82   VAL86   LEU89   PHE106  VAL107  ASP110  VAL111  MET112  CYS114  THR115 
 CYS181  SER182  ILE183  PHE188  VAL189  ILE190  SER192  SER193  SER196  TRP342 
 PHE345  PHE346  HIS349  VAL350  TYR365  THR369  GLY372  TYR373 

> <Gold.Protein.RotatedAtoms>
    3.4519  -10.0001    4.1426 H   0  0  0  0  0  0  0  0  0  0  0  0  # atno 1303 bound_to 1298
    0.5645   -8.2760    7.1518 H   0  0  0  0  0  0  0  0  0  0  0  0  # atno 2461 bound_to 2456
   -4.8004   -5.4639    9.3985 H   0  0  0  0  0  0  0  0  0  0  0  0  # atno 2472 bound_to 2467
    2.7078   -9.2108    5.0207 H   0  0  0  0  0  0  0  0  0  0  0  0  # atno 2515 bound_to 2510
   -2.6730  -17.7888   13.2312 H   0  0  0  0  0  0  0  0  0  0  0  0  # atno 3721 bound_to 3712
   -5.4964  -22.3632   10.4088 H   0  0  0  0  0  0  0  0  0  0  0  0  # atno 3767 bound_to 3762
    2.9102  -19.9915    8.3885 H   0  0  0  0  0  0  0  0  0  0  0  0  # atno 3841 bound_to 3832
    4.0890   -8.5030    4.0037 LP  0  0  0  0  0  0  0  0  0  0  0  0  # atno 4297 bound_to 1298
    4.8215   -9.6180    4.9454 LP  0  0  0  0  0  0  0  0  0  0  0  0  # atno 4298 bound_to 1298
    1.0571   -9.2883    8.3350 LP  0  0  0  0  0  0  0  0  0  0  0  0  # atno 4299 bound_to 2456
    2.1160   -8.2437    7.6611 LP  0  0  0  0  0  0  0  0  0  0  0  0  # atno 4300 bound_to 2456
    2.0389   -8.1450    6.0611 LP  0  0  0  0  0  0  0  0  0  0  0  0  # atno 4301 bound_to 2510
    2.5498   -7.6429    4.5935 LP  0  0  0  0  0  0  0  0  0  0  0  0  # atno 4302 bound_to 2510
   -2.8741  -17.6185   14.8150 LP  0  0  0  0  0  0  0  0  0  0  0  0  # atno 4306 bound_to 3712
   -3.5675  -16.5703   13.7724 LP  0  0  0  0  0  0  0  0  0  0  0  0  # atno 4307 bound_to 3712
    2.4513  -21.1509    9.3990 LP  0  0  0  0  0  0  0  0  0  0  0  0  # atno 4314 bound_to 3832
    1.4163  -19.9612    8.9747 LP  0  0  0  0  0  0  0  0  0  0  0  0  # atno 4315 bound_to 3832
   -4.4483  -22.1837   11.6482 LP  0  0  0  0  0  0  0  0  0  0  0  0  # atno 4318 bound_to 3762
   -4.1830  -23.3281   10.5139 LP  0  0  0  0  0  0  0  0  0  0  0  0  # atno 4319 bound_to 3762
   -5.2460   -4.9742    7.9059 LP  0  0  0  0  0  0  0  0  0  0  0  0  # atno 4320 bound_to 2467
   -3.6705   -4.9555    8.3349 LP  0  0  0  0  0  0  0  0  0  0  0  0  # atno 4321 bound_to 2467

> <Gold.Score>
     Score     S(PLP)   S(hbond)     S(cho)   S(metal)  DE(clash)   DE(tors)     intcor
     32.97     -24.89       3.00       0.00       0.00       0.00       0.54       0.17

> <Gold.PLP.Fitness>
32.9670

> <Gold.PLP.PLP>
-24.8865

> <Gold.PLP.part.hbond>
-2.0000

> <Gold.PLP.part.metal>
0.0000

> <Gold.PLP.part.buried>
-2.1906

> <Gold.PLP.part.nonpolar>
-22.6711

> <Gold.PLP.part.repulsive>
1.4454

> <Gold.PLP.ligand.clash>
0.0000

> <Gold.PLP.ligand.torsion>
0.5426

> <Gold.PLP.Chemscore.Hbond>
3.0000

> <Gold.PLP.Chemscore.CHOScore>
0.0000

> <Gold.PLP.Chemscore.Metal>
0.0000

> <Gold.Chemscore.Hbonds>
donor molecule, donor type, donor heavy atom, donor atom, acceptor molecule, acceptor atom, score
      L1  H     6    26       P1  1227  2.00
      P1  H  3712  3721       L1     4  1.00

> <Gold.PLP.Chemscore.Internal.Correction>
0.1656

