#       Name:                EN300-703997_i001
#       Creating user name   fsindt
#       Creation time:       Mon Feb 27 21:20:28 2023


#       File generated by GOLD software.
#

@<TRIPOS>MOLECULE
EN300-703997_i001|amine_3|mol2|817|dock15
    27    27     1
SMALL
USER_CHARGES


@<TRIPOS>ATOM
      1 C1          -5.2007 -11.0546   9.7165 C.3            1 <1>                0.0000
      2 O2          -3.8207 -11.4236   9.4567 O.3            1 <1>                0.0000
      3 C3          -2.8816 -10.5062   9.7366 C.2            1 <1>                0.0000
      4 O4          -3.1995  -9.4417  10.2117 O.2            1 <1>                0.0000
      5 C5          -1.4307 -10.8040   9.4584 C.3            1 <1>                0.0000
      6 N6          -1.3123 -12.0682   8.7000 N.4            1 <1>                1.0000
      7 C7          -0.0700 -12.7191   9.1892 C.3            1 <1>                0.0000
      8 C8          -0.0954 -12.4322  10.7116 C.3            1 <1>                0.0000
      9 C9          -0.6717 -10.9996  10.7839 C.3            1 <1>                0.0000
     10 C10          0.4602  -9.9772  10.9036 C.3            1 <1>                0.0000
     11 C11         -1.6311 -10.8724  11.9690 C.3            1 <1>                0.0000
     12 H12         -5.3223 -10.8247  10.7750 H              1 <1>                0.0000
     13 H13         -5.4608 -10.1786   9.1223 H              1 <1>                0.0000
     14 H14         -5.8553 -11.8836   9.4473 H              1 <1>                0.0000
     15 H15         -0.9866  -9.9869   8.8898 H              1 <1>                0.0000
     16 H16         -0.0974 -13.7920   8.9994 H              1 <1>                0.0000
     17 H17          0.8082 -12.2679   8.7274 H              1 <1>                0.0000
     18 H18         -0.7485 -13.1371  11.2261 H              1 <1>                0.0000
     19 H19          0.9118 -12.4642  11.1270 H              1 <1>                0.0000
     20 H20          1.1275 -10.0721  10.0469 H              1 <1>                0.0000
     21 H21          0.0405  -8.9715  10.9275 H              1 <1>                0.0000
     22 H22          1.0191 -10.1596  11.8214 H              1 <1>                0.0000
     23 H23         -1.0905 -11.0625  12.8962 H              1 <1>                0.0000
     24 H24         -2.0488  -9.8658  11.9918 H              1 <1>                0.0000
     25 H25         -2.4375 -11.5980  11.8632 H              1 <1>                0.0000
     26 H26         -2.1096 -12.6592   8.8821 H              1 <1>                0.0000
     27 H27         -1.2386 -11.8759   7.7123 H              1 <1>                0.0000
@<TRIPOS>BOND
    1    1    2 1     
    2    1   12 1     
    3    1   13 1     
    4    1   14 1     
    5    2    3 1     
    6    3    4 2     
    7    3    5 1     
    8    5    6 1     
    9    5    9 1     
   10    5   15 1     
   11    6    7 1     
   12    6   26 1     
   13    6   27 1     
   14    7    8 1     
   15    7   16 1     
   16    7   17 1     
   17    8    9 1     
   18    8   18 1     
   19    8   19 1     
   20    9   10 1     
   21    9   11 1     
   22   10   20 1     
   23   10   21 1     
   24   10   22 1     
   25   11   23 1     
   26   11   24 1     
   27   11   25 1     
@<TRIPOS>SUBSTRUCTURE
      1 ****           1
@<TRIPOS>SET
DONOR_HYDROGENS      STATIC     ATOMS    <user>   **** ""
2 26 27
ATOM$RED        STATIC     ATOMS    COLORGROUP SYSTEM
2 26 27
@<TRIPOS>COMMENT
> <Gold.Version>
2022.2.0

> <Gold.Id.Protein>
3pbl|protein|mol2

> <Gold.Protein.RotatedTorsions>
[ 1303 1298 1297 1294 ] final  109.14 input  179.99 | X-H torsion
[ 2461 2456 2455 2452 ] final   69.03 input   30.03 | X-H torsion
[ 2515 2510 2509 2506 ] final   12.05 input  -89.99 | X-H torsion
[ 3721 3712 3711 3710 ] final  -69.81 input -179.91 | X-H torsion
[ 3841 3832 3831 3830 ] final  139.41 input -179.91 | X-H torsion
[ 3767 3762 3761 3758 ] final  -67.55 input  -89.99 | X-H torsion
[ 2472 2467 2466 2463 ] final   17.30 input  -89.97 | X-H torsion

> <Gold.Protein.ActiveResidues>
 VAL82   VAL86   LEU89   PHE106  VAL107  ASP110  VAL111  MET112  CYS114  THR115 
 CYS181  SER182  ILE183  PHE188  VAL189  ILE190  SER192  SER193  SER196  TRP342 
 PHE345  PHE346  HIS349  VAL350  TYR365  THR369  GLY372  TYR373 

> <Gold.Protein.RotatedAtoms>
    4.6392   -9.9157    4.9349 H   0  0  0  0  0  0  0  0  0  0  0  0  # atno 1303 bound_to 1298
    2.0058   -8.0979    7.4770 H   0  0  0  0  0  0  0  0  0  0  0  0  # atno 2461 bound_to 2456
   -3.9901   -4.8244    7.8713 H   0  0  0  0  0  0  0  0  0  0  0  0  # atno 2472 bound_to 2467
    2.4574   -7.5195    4.7499 H   0  0  0  0  0  0  0  0  0  0  0  0  # atno 2515 bound_to 2510
   -2.8734  -17.2023   14.7565 H   0  0  0  0  0  0  0  0  0  0  0  0  # atno 3721 bound_to 3712
   -5.4203  -22.0085   10.9143 H   0  0  0  0  0  0  0  0  0  0  0  0  # atno 3767 bound_to 3762
    3.1330  -20.5276    8.7306 H   0  0  0  0  0  0  0  0  0  0  0  0  # atno 3841 bound_to 3832
    3.3440   -9.7230    3.9594 LP  0  0  0  0  0  0  0  0  0  0  0  0  # atno 4297 bound_to 1298
    4.3788   -8.4824    4.1971 LP  0  0  0  0  0  0  0  0  0  0  0  0  # atno 4298 bound_to 1298
    0.4239   -8.4528    7.2794 LP  0  0  0  0  0  0  0  0  0  0  0  0  # atno 4299 bound_to 2456
    1.3083   -9.2573    8.3917 LP  0  0  0  0  0  0  0  0  0  0  0  0  # atno 4300 bound_to 2456
    2.7686   -9.1203    4.8301 LP  0  0  0  0  0  0  0  0  0  0  0  0  # atno 4301 bound_to 2510
    2.0707   -8.3596    6.0954 LP  0  0  0  0  0  0  0  0  0  0  0  0  # atno 4302 bound_to 2510
   -3.5137  -16.7278   13.3626 LP  0  0  0  0  0  0  0  0  0  0  0  0  # atno 4306 bound_to 3712
   -2.6966  -18.1381   13.4638 LP  0  0  0  0  0  0  0  0  0  0  0  0  # atno 4307 bound_to 3712
    1.7850  -20.8483    9.5406 LP  0  0  0  0  0  0  0  0  0  0  0  0  # atno 4314 bound_to 3832
    1.8252  -19.6445    8.4379 LP  0  0  0  0  0  0  0  0  0  0  0  0  # atno 4315 bound_to 3832
   -4.0327  -22.6265   11.5137 LP  0  0  0  0  0  0  0  0  0  0  0  0  # atno 4318 bound_to 3762
   -4.6746  -23.2398   10.1431 LP  0  0  0  0  0  0  0  0  0  0  0  0  # atno 4319 bound_to 3762
   -4.2267   -5.3944    9.3831 LP  0  0  0  0  0  0  0  0  0  0  0  0  # atno 4320 bound_to 2467
   -5.5001   -5.1747    8.3847 LP  0  0  0  0  0  0  0  0  0  0  0  0  # atno 4321 bound_to 2467

> <Gold.Score>
     Score     S(PLP)   S(hbond)     S(cho)   S(metal)  DE(clash)   DE(tors)     intcor
     32.21     -32.40       0.00       0.00       0.00       0.00       0.18       0.17

> <Gold.PLP.Fitness>
32.2055

> <Gold.PLP.PLP>
-32.4006

> <Gold.PLP.part.hbond>
0.0000

> <Gold.PLP.part.metal>
0.0000

> <Gold.PLP.part.buried>
-4.5435

> <Gold.PLP.part.nonpolar>
-31.2489

> <Gold.PLP.part.repulsive>
1.7822

> <Gold.PLP.ligand.clash>
0.0000

> <Gold.PLP.ligand.torsion>
0.1803

> <Gold.PLP.Chemscore.Hbond>
0.0000

> <Gold.PLP.Chemscore.CHOScore>
0.0000

> <Gold.PLP.Chemscore.Metal>
0.0000

> <Gold.PLP.Chemscore.Internal.Correction>
0.1656

