#       Name:                EN300-703997_i001
#       Creating user name   fsindt
#       Creation time:       Mon Feb 27 21:20:23 2023


#       File generated by GOLD software.
#

@<TRIPOS>MOLECULE
EN300-703997_i001|amine_3|mol2|817|dock3
    27    27     1
SMALL
USER_CHARGES


@<TRIPOS>ATOM
      1 C1           1.2265 -21.3350  13.3071 C.3            1 <1>                0.0000
      2 O2           0.5859 -20.0388  13.4409 O.3            1 <1>                0.0000
      3 C3           0.6692 -19.2067  12.3910 C.2            1 <1>                0.0000
      4 O4           1.2258 -19.5637  11.3797 O.2            1 <1>                0.0000
      5 C5           0.0685 -17.8270  12.4736 C.3            1 <1>                0.0000
      6 N6           0.1791 -17.1502  11.1632 N.4            1 <1>                1.0000
      7 C7           0.4182 -15.7160  11.4671 C.3            1 <1>                0.0000
      8 C8           1.3782 -15.7664  12.6822 C.3            1 <1>                0.0000
      9 C9           0.8505 -16.9743  13.4898 C.3            1 <1>                0.0000
     10 C10         -0.0772 -16.4996  14.6101 C.3            1 <1>                0.0000
     11 C11          2.0176 -17.7762  14.0694 C.3            1 <1>                0.0000
     12 H12          0.7836 -21.8745  12.4699 H              1 <1>                0.0000
     13 H13          2.2926 -21.1967  13.1269 H              1 <1>                0.0000
     14 H14          1.0843 -21.9070  14.2240 H              1 <1>                0.0000
     15 H15         -0.9784 -17.8952  12.7692 H              1 <1>                0.0000
     16 H16          0.8930 -15.2177  10.6220 H              1 <1>                0.0000
     17 H17         -0.5143 -15.2187  11.7339 H              1 <1>                0.0000
     18 H18          2.4040 -15.9387  12.3564 H              1 <1>                0.0000
     19 H19          1.3072 -14.8500  13.2681 H              1 <1>                0.0000
     20 H20         -0.9090 -15.9411  14.1807 H              1 <1>                0.0000
     21 H21         -0.4613 -17.3627  15.1539 H              1 <1>                0.0000
     22 H22          0.4777 -15.8570  15.2936 H              1 <1>                0.0000
     23 H23          2.5908 -17.1447  14.7482 H              1 <1>                0.0000
     24 H24          1.6314 -18.6380  14.6138 H              1 <1>                0.0000
     25 H25          2.6619 -18.1173  13.2591 H              1 <1>                0.0000
     26 H26          0.9544 -17.5289  10.6403 H              1 <1>                0.0000
     27 H27         -0.6786 -17.2573  10.6428 H              1 <1>                0.0000
@<TRIPOS>BOND
    1    1    2 1     
    2    1   12 1     
    3    1   13 1     
    4    1   14 1     
    5    2    3 1     
    6    3    4 2     
    7    3    5 1     
    8    5    6 1     
    9    5    9 1     
   10    5   15 1     
   11    6    7 1     
   12    6   26 1     
   13    6   27 1     
   14    7    8 1     
   15    7   16 1     
   16    7   17 1     
   17    8    9 1     
   18    8   18 1     
   19    8   19 1     
   20    9   10 1     
   21    9   11 1     
   22   10   20 1     
   23   10   21 1     
   24   10   22 1     
   25   11   23 1     
   26   11   24 1     
   27   11   25 1     
@<TRIPOS>SUBSTRUCTURE
      1 ****           1
@<TRIPOS>SET
DONOR_HYDROGENS      STATIC     ATOMS    <user>   **** ""
2 26 27
ATOM$RED        STATIC     ATOMS    COLORGROUP SYSTEM
2 26 27
@<TRIPOS>COMMENT
> <Gold.Version>
2022.2.0

> <Gold.Id.Protein>
3pbl|protein|mol2

> <Gold.Protein.RotatedTorsions>
[ 1303 1298 1297 1294 ] final  -86.16 input  179.99 | X-H torsion
[ 2461 2456 2455 2452 ] final  111.09 input   30.03 | X-H torsion
[ 2515 2510 2509 2506 ] final -125.47 input  -89.99 | X-H torsion
[ 3721 3712 3711 3710 ] final   20.03 input -179.91 | X-H torsion
[ 3841 3832 3831 3830 ] final  -15.64 input -179.91 | X-H torsion
[ 3767 3762 3761 3758 ] final  -29.98 input  -89.99 | X-H torsion
[ 2472 2467 2466 2463 ] final   31.24 input  -89.97 | X-H torsion

> <Gold.Protein.ActiveResidues>
 VAL82   VAL86   LEU89   PHE106  VAL107  ASP110  VAL111  MET112  CYS114  THR115 
 CYS181  SER182  ILE183  PHE188  VAL189  ILE190  SER192  SER193  SER196  TRP342 
 PHE345  PHE346  HIS349  VAL350  TYR365  THR369  GLY372  TYR373 

> <Gold.Protein.RotatedAtoms>
    3.7779   -8.6619    3.8498 H   0  0  0  0  0  0  0  0  0  0  0  0  # atno 1303 bound_to 1298
    2.1522   -8.5392    7.9690 H   0  0  0  0  0  0  0  0  0  0  0  0  # atno 2461 bound_to 2456
   -4.1844   -4.8028    7.7522 H   0  0  0  0  0  0  0  0  0  0  0  0  # atno 2472 bound_to 2467
    2.6858   -9.2295    5.0824 H   0  0  0  0  0  0  0  0  0  0  0  0  # atno 2515 bound_to 2510
   -2.4709  -18.0299   13.9505 H   0  0  0  0  0  0  0  0  0  0  0  0  # atno 3721 bound_to 3712
   -5.4988  -22.3522   10.4198 H   0  0  0  0  0  0  0  0  0  0  0  0  # atno 3767 bound_to 3762
    1.6259  -20.3025    9.4622 H   0  0  0  0  0  0  0  0  0  0  0  0  # atno 3841 bound_to 3832
    4.9098   -9.2554    4.8661 LP  0  0  0  0  0  0  0  0  0  0  0  0  # atno 4297 bound_to 1298
    3.6745  -10.2043    4.3758 LP  0  0  0  0  0  0  0  0  0  0  0  0  # atno 4298 bound_to 1298
    0.9053   -8.0431    7.0381 LP  0  0  0  0  0  0  0  0  0  0  0  0  # atno 4299 bound_to 2456
    0.6805   -9.2259    8.1412 LP  0  0  0  0  0  0  0  0  0  0  0  0  # atno 4300 bound_to 2456
    2.0334   -8.0801    6.0411 LP  0  0  0  0  0  0  0  0  0  0  0  0  # atno 4301 bound_to 2510
    2.5774   -7.6892    4.5518 LP  0  0  0  0  0  0  0  0  0  0  0  0  # atno 4302 bound_to 2510
   -3.3094  -16.8781   14.6908 LP  0  0  0  0  0  0  0  0  0  0  0  0  # atno 4306 bound_to 3712
   -3.3656  -17.0323   13.0661 LP  0  0  0  0  0  0  0  0  0  0  0  0  # atno 4307 bound_to 3712
    2.3812  -19.7275    8.1680 LP  0  0  0  0  0  0  0  0  0  0  0  0  # atno 4314 bound_to 3832
    2.9700  -21.0253    8.9653 LP  0  0  0  0  0  0  0  0  0  0  0  0  # atno 4315 bound_to 3832
   -4.4356  -22.1930   11.6491 LP  0  0  0  0  0  0  0  0  0  0  0  0  # atno 4318 bound_to 3762
   -4.1932  -23.3297   10.5020 LP  0  0  0  0  0  0  0  0  0  0  0  0  # atno 4319 bound_to 3762
   -4.0267   -5.3378    9.2870 LP  0  0  0  0  0  0  0  0  0  0  0  0  # atno 4320 bound_to 2467
   -5.5057   -5.2528    8.5998 LP  0  0  0  0  0  0  0  0  0  0  0  0  # atno 4321 bound_to 2467

> <Gold.Score>
     Score     S(PLP)   S(hbond)     S(cho)   S(metal)  DE(clash)   DE(tors)     intcor
     34.40     -25.41       3.00       0.00       0.00       0.00       0.09       0.17

> <Gold.PLP.Fitness>
34.3983

> <Gold.PLP.PLP>
-25.4064

> <Gold.PLP.part.hbond>
-2.0000

> <Gold.PLP.part.metal>
0.0000

> <Gold.PLP.part.buried>
-3.6386

> <Gold.PLP.part.nonpolar>
-21.2645

> <Gold.PLP.part.repulsive>
0.8575

> <Gold.PLP.ligand.clash>
0.0000

> <Gold.PLP.ligand.torsion>
0.0868

> <Gold.PLP.Chemscore.Hbond>
3.0000

> <Gold.PLP.Chemscore.CHOScore>
0.0000

> <Gold.PLP.Chemscore.Metal>
0.0000

> <Gold.Chemscore.Hbonds>
donor molecule, donor type, donor heavy atom, donor atom, acceptor molecule, acceptor atom, score
      L1  H     6    26       P1  1227  2.00
      P1  H  3832  3841       L1     4  1.00

> <Gold.PLP.Chemscore.Internal.Correction>
0.1656

