#       Name:                EN300-703997_i001
#       Creating user name   fsindt
#       Creation time:       Mon Feb 27 21:20:23 2023


#       File generated by GOLD software.
#

@<TRIPOS>MOLECULE
EN300-703997_i001|amine_3|mol2|817|dock4
    27    27     1
SMALL
USER_CHARGES


@<TRIPOS>ATOM
      1 C1          -0.6971 -21.4979  12.2126 C.3            1 <1>                0.0000
      2 O2          -0.7338 -20.1429  12.7333 O.3            1 <1>                0.0000
      3 C3          -0.0740 -19.2043  12.0367 C.2            1 <1>                0.0000
      4 O4           0.5026 -19.5021  11.0175 O.2            1 <1>                0.0000
      5 C5          -0.0522 -17.7791  12.5258 C.3            1 <1>                0.0000
      6 N6           0.6165 -16.9146  11.5294 N.4            1 <1>                1.0000
      7 C7           1.3530 -15.8893  12.3120 C.3            1 <1>                0.0000
      8 C8           1.9099 -16.6933  13.5138 C.3            1 <1>                0.0000
      9 C9           0.7650 -17.6835  13.8275 C.3            1 <1>                0.0000
     10 C10         -0.1068 -17.1448  14.9636 C.3            1 <1>                0.0000
     11 C11          1.3351 -19.0541  14.1984 C.3            1 <1>                0.0000
     12 H12         -1.1319 -21.5150  11.2133 H              1 <1>                0.0000
     13 H13          0.3364 -21.8410  12.1650 H              1 <1>                0.0000
     14 H14         -1.2681 -22.1548  12.8687 H              1 <1>                0.0000
     15 H15         -1.0705 -17.4298  12.6967 H              1 <1>                0.0000
     16 H16          2.1661 -15.4660  11.7224 H              1 <1>                0.0000
     17 H17          0.6760 -15.1063  12.6536 H              1 <1>                0.0000
     18 H18          2.8168 -17.2286  13.2327 H              1 <1>                0.0000
     19 H19          2.0960 -16.0369  14.3639 H              1 <1>                0.0000
     20 H20         -0.5148 -16.1747  14.6796 H              1 <1>                0.0000
     21 H21         -0.9237 -17.8403  15.1560 H              1 <1>                0.0000
     22 H22          0.4970 -17.0353  15.8644 H              1 <1>                0.0000
     23 H23          1.9515 -18.9613  15.0926 H              1 <1>                0.0000
     24 H24          0.5168 -19.7478  14.3916 H              1 <1>                0.0000
     25 H25          1.9431 -19.4295  13.3754 H              1 <1>                0.0000
     26 H26          1.2606 -17.4575  10.9742 H              1 <1>                0.0000
     27 H27         -0.0695 -16.4727  10.9359 H              1 <1>                0.0000
@<TRIPOS>BOND
    1    1    2 1     
    2    1   12 1     
    3    1   13 1     
    4    1   14 1     
    5    2    3 1     
    6    3    4 2     
    7    3    5 1     
    8    5    6 1     
    9    5    9 1     
   10    5   15 1     
   11    6    7 1     
   12    6   26 1     
   13    6   27 1     
   14    7    8 1     
   15    7   16 1     
   16    7   17 1     
   17    8    9 1     
   18    8   18 1     
   19    8   19 1     
   20    9   10 1     
   21    9   11 1     
   22   10   20 1     
   23   10   21 1     
   24   10   22 1     
   25   11   23 1     
   26   11   24 1     
   27   11   25 1     
@<TRIPOS>SUBSTRUCTURE
      1 ****           1
@<TRIPOS>SET
DONOR_HYDROGENS      STATIC     ATOMS    <user>   **** ""
2 26 27
ATOM$RED        STATIC     ATOMS    COLORGROUP SYSTEM
2 26 27
@<TRIPOS>COMMENT
> <Gold.Version>
2022.2.0

> <Gold.Id.Protein>
3pbl|protein|mol2

> <Gold.Protein.RotatedTorsions>
[ 1303 1298 1297 1294 ] final -129.90 input  179.99 | X-H torsion
[ 2461 2456 2455 2452 ] final -158.96 input   30.03 | X-H torsion
[ 2515 2510 2509 2506 ] final  -83.83 input  -89.99 | X-H torsion
[ 3721 3712 3711 3710 ] final   36.84 input -179.91 | X-H torsion
[ 3841 3832 3831 3830 ] final  -18.72 input -179.91 | X-H torsion
[ 3767 3762 3761 3758 ] final -120.40 input  -89.99 | X-H torsion
[ 2472 2467 2466 2463 ] final  155.97 input  -89.97 | X-H torsion

> <Gold.Protein.ActiveResidues>
 VAL82   VAL86   LEU89   PHE106  VAL107  ASP110  VAL111  MET112  CYS114  THR115 
 CYS181  SER182  ILE183  PHE188  VAL189  ILE190  SER192  SER193  SER196  TRP342 
 PHE345  PHE346  HIS349  VAL350  TYR365  THR369  GLY372  TYR373 

> <Gold.Protein.RotatedAtoms>
    4.3660   -8.4807    4.1882 H   0  0  0  0  0  0  0  0  0  0  0  0  # atno 1303 bound_to 1298
    1.1168   -9.2858    8.3534 H   0  0  0  0  0  0  0  0  0  0  0  0  # atno 2461 bound_to 2456
   -5.4949   -5.2786    8.6724 H   0  0  0  0  0  0  0  0  0  0  0  0  # atno 2472 bound_to 2467
    2.8304   -8.8530    4.5473 H   0  0  0  0  0  0  0  0  0  0  0  0  # atno 2515 bound_to 2510
   -2.4980  -18.0216   13.6989 H   0  0  0  0  0  0  0  0  0  0  0  0  # atno 3721 bound_to 3712
   -4.8430  -21.9703   11.5223 H   0  0  0  0  0  0  0  0  0  0  0  0  # atno 3767 bound_to 3762
    1.6102  -20.2655    9.4388 H   0  0  0  0  0  0  0  0  0  0  0  0  # atno 3841 bound_to 3832
    4.6495   -9.9039    4.9368 LP  0  0  0  0  0  0  0  0  0  0  0  0  # atno 4297 bound_to 1298
    3.3466   -9.7370    3.9667 LP  0  0  0  0  0  0  0  0  0  0  0  0  # atno 4298 bound_to 1298
    2.0952   -8.2058    7.6159 LP  0  0  0  0  0  0  0  0  0  0  0  0  # atno 4299 bound_to 2456
    0.5257   -8.3168    7.1790 LP  0  0  0  0  0  0  0  0  0  0  0  0  # atno 4300 bound_to 2456
    2.1758   -8.7351    6.0384 LP  0  0  0  0  0  0  0  0  0  0  0  0  # atno 4301 bound_to 2510
    2.2904   -7.4108    5.0898 LP  0  0  0  0  0  0  0  0  0  0  0  0  # atno 4302 bound_to 2510
   -3.1768  -17.0900   14.8166 LP  0  0  0  0  0  0  0  0  0  0  0  0  # atno 4306 bound_to 3712
   -3.4669  -16.8300   13.2308 LP  0  0  0  0  0  0  0  0  0  0  0  0  # atno 4307 bound_to 3712
    2.4272  -19.7481    8.1579 LP  0  0  0  0  0  0  0  0  0  0  0  0  # atno 4314 bound_to 3832
    2.9422  -21.0474    9.0024 LP  0  0  0  0  0  0  0  0  0  0  0  0  # atno 4315 bound_to 3832
   -3.9573  -23.1923   10.8986 LP  0  0  0  0  0  0  0  0  0  0  0  0  # atno 4318 bound_to 3762
   -5.3271  -22.7122   10.1504 LP  0  0  0  0  0  0  0  0  0  0  0  0  # atno 4319 bound_to 3762
   -4.2563   -4.7992    7.7225 LP  0  0  0  0  0  0  0  0  0  0  0  0  # atno 4320 bound_to 2467
   -3.9659   -5.3157    9.2442 LP  0  0  0  0  0  0  0  0  0  0  0  0  # atno 4321 bound_to 2467

> <Gold.Score>
     Score     S(PLP)   S(hbond)     S(cho)   S(metal)  DE(clash)   DE(tors)     intcor
     33.64     -24.66       3.00       0.00       0.00       0.00       0.10       0.17

> <Gold.PLP.Fitness>
33.6358

> <Gold.PLP.PLP>
-24.6613

> <Gold.PLP.part.hbond>
-2.0000

> <Gold.PLP.part.metal>
0.0000

> <Gold.PLP.part.buried>
-3.7544

> <Gold.PLP.part.nonpolar>
-19.3330

> <Gold.PLP.part.repulsive>
0.1200

> <Gold.PLP.ligand.clash>
0.0000

> <Gold.PLP.ligand.torsion>
0.0955

> <Gold.PLP.Chemscore.Hbond>
3.0000

> <Gold.PLP.Chemscore.CHOScore>
0.0000

> <Gold.PLP.Chemscore.Metal>
0.0000

> <Gold.Chemscore.Hbonds>
donor molecule, donor type, donor heavy atom, donor atom, acceptor molecule, acceptor atom, score
      L1  H     6    26       P1  1227  2.00
      P1  H  3832  3841       L1     4  1.00

> <Gold.PLP.Chemscore.Internal.Correction>
0.1656

