#       Name:                EN300-703997_i001
#       Creating user name   fsindt
#       Creation time:       Mon Feb 27 21:20:25 2023


#       File generated by GOLD software.
#

@<TRIPOS>MOLECULE
EN300-703997_i001|amine_3|mol2|817|dock10
    27    27     1
SMALL
USER_CHARGES


@<TRIPOS>ATOM
      1 C1          -2.2343  -9.8634   9.8714 C.3            1 <1>                0.0000
      2 O2          -1.9098 -11.0889   9.1636 O.3            1 <1>                0.0000
      3 C3          -0.6594 -11.5578   9.2986 C.2            1 <1>                0.0000
      4 O4           0.2441 -10.8011   9.5653 O.2            1 <1>                0.0000
      5 C5          -0.3823 -13.0280   9.1175 C.3            1 <1>                0.0000
      6 N6           0.5014 -13.5113  10.2005 N.4            1 <1>                1.0000
      7 C7           1.3812 -14.5341   9.5793 C.3            1 <1>                0.0000
      8 C8           1.6968 -13.9319   8.1871 C.3            1 <1>                0.0000
      9 C9           0.3614 -13.2620   7.7895 C.3            1 <1>                0.0000
     10 C10         -0.4493 -14.1905   6.8832 C.3            1 <1>                0.0000
     11 C11          0.6249 -11.9289   7.0863 C.3            1 <1>                0.0000
     12 H12         -2.0916 -10.0132  10.9416 H              1 <1>                0.0000
     13 H13         -1.5818  -9.0610   9.5268 H              1 <1>                0.0000
     14 H14         -3.2729  -9.5957   9.6773 H              1 <1>                0.0000
     15 H15         -1.3187 -13.5858   9.1254 H              1 <1>                0.0000
     16 H16          2.2949 -14.6597  10.1602 H              1 <1>                0.0000
     17 H17          0.8553 -15.4834   9.4776 H              1 <1>                0.0000
     18 H18          2.4934 -13.1914   8.2587 H              1 <1>                0.0000
     19 H19          1.9607 -14.7166   7.4781 H              1 <1>                0.0000
     20 H20         -0.6390 -15.1301   7.4023 H              1 <1>                0.0000
     21 H21         -1.3981 -13.7161   6.6324 H              1 <1>                0.0000
     22 H22          0.1114 -14.3870   5.9694 H              1 <1>                0.0000
     23 H23          1.1949 -12.1056   6.1742 H              1 <1>                0.0000
     24 H24         -0.3250 -11.4567   6.8353 H              1 <1>                0.0000
     25 H25          1.1921 -11.2747   7.7483 H              1 <1>                0.0000
     26 H26          1.0553 -12.7500  10.5634 H              1 <1>                0.0000
     27 H27         -0.0476 -13.9264  10.9383 H              1 <1>                0.0000
@<TRIPOS>BOND
    1    1    2 1     
    2    1   12 1     
    3    1   13 1     
    4    1   14 1     
    5    2    3 1     
    6    3    4 2     
    7    3    5 1     
    8    5    6 1     
    9    5    9 1     
   10    5   15 1     
   11    6    7 1     
   12    6   26 1     
   13    6   27 1     
   14    7    8 1     
   15    7   16 1     
   16    7   17 1     
   17    8    9 1     
   18    8   18 1     
   19    8   19 1     
   20    9   10 1     
   21    9   11 1     
   22   10   20 1     
   23   10   21 1     
   24   10   22 1     
   25   11   23 1     
   26   11   24 1     
   27   11   25 1     
@<TRIPOS>SUBSTRUCTURE
      1 ****           1
@<TRIPOS>SET
DONOR_HYDROGENS      STATIC     ATOMS    <user>   **** ""
2 26 27
ATOM$RED        STATIC     ATOMS    COLORGROUP SYSTEM
2 26 27
@<TRIPOS>COMMENT
> <Gold.Version>
2022.2.0

> <Gold.Id.Protein>
3pbl|protein|mol2

> <Gold.Protein.RotatedTorsions>
[ 1303 1298 1297 1294 ] final   -7.15 input  179.99 | X-H torsion
[ 2461 2456 2455 2452 ] final -149.23 input   30.03 | X-H torsion
[ 2515 2510 2509 2506 ] final -177.54 input  -89.99 | X-H torsion
[ 3721 3712 3711 3710 ] final   23.48 input -179.91 | X-H torsion
[ 3841 3832 3831 3830 ] final   30.76 input -179.91 | X-H torsion
[ 3767 3762 3761 3758 ] final  138.79 input  -89.99 | X-H torsion
[ 2472 2467 2466 2463 ] final   90.77 input  -89.97 | X-H torsion

> <Gold.Protein.ActiveResidues>
 VAL82   VAL86   LEU89   PHE106  VAL107  ASP110  VAL111  MET112  CYS114  THR115 
 CYS181  SER182  ILE183  PHE188  VAL189  ILE190  SER192  SER193  SER196  TRP342 
 PHE345  PHE346  HIS349  VAL350  TYR365  THR369  GLY372  TYR373 

> <Gold.Protein.RotatedAtoms>
    3.3553   -9.7757    3.9883 H   0  0  0  0  0  0  0  0  0  0  0  0  # atno 1303 bound_to 1298
    0.9655   -9.2868    8.3015 H   0  0  0  0  0  0  0  0  0  0  0  0  # atno 2461 bound_to 2456
   -5.1115   -4.9226    7.8016 H   0  0  0  0  0  0  0  0  0  0  0  0  # atno 2472 bound_to 2467
    2.3405   -9.0620    5.8154 H   0  0  0  0  0  0  0  0  0  0  0  0  # atno 2515 bound_to 2510
   -2.4735  -18.0335   13.8986 H   0  0  0  0  0  0  0  0  0  0  0  0  # atno 3721 bound_to 3712
   -3.9068  -23.0197   11.1564 H   0  0  0  0  0  0  0  0  0  0  0  0  # atno 3767 bound_to 3762
    2.0758  -20.7901    9.6202 H   0  0  0  0  0  0  0  0  0  0  0  0  # atno 3841 bound_to 3832
    4.3300   -8.4771    4.1611 LP  0  0  0  0  0  0  0  0  0  0  0  0  # atno 4297 bound_to 1298
    4.6772   -9.8684    4.9423 LP  0  0  0  0  0  0  0  0  0  0  0  0  # atno 4298 bound_to 1298
    2.1407   -8.3060    7.7320 LP  0  0  0  0  0  0  0  0  0  0  0  0  # atno 4299 bound_to 2456
    0.6315   -8.2156    7.1148 LP  0  0  0  0  0  0  0  0  0  0  0  0  # atno 4300 bound_to 2456
    2.1377   -7.4760    5.4850 LP  0  0  0  0  0  0  0  0  0  0  0  0  # atno 4301 bound_to 2510
    2.8185   -8.4608    4.3746 LP  0  0  0  0  0  0  0  0  0  0  0  0  # atno 4302 bound_to 2510
   -3.2834  -16.9186   14.7225 LP  0  0  0  0  0  0  0  0  0  0  0  0  # atno 4306 bound_to 3712
   -3.3886  -16.9878   13.0944 LP  0  0  0  0  0  0  0  0  0  0  0  0  # atno 4307 bound_to 3712
    1.7199  -19.6706    8.5265 LP  0  0  0  0  0  0  0  0  0  0  0  0  # atno 4314 bound_to 3832
    3.1115  -20.5190    8.4244 LP  0  0  0  0  0  0  0  0  0  0  0  0  # atno 4315 bound_to 3832
   -5.1244  -22.9393   10.0712 LP  0  0  0  0  0  0  0  0  0  0  0  0  # atno 4318 bound_to 3762
   -5.0959  -21.9162   11.3436 LP  0  0  0  0  0  0  0  0  0  0  0  0  # atno 4319 bound_to 3762
   -3.6383   -5.0116    8.5004 LP  0  0  0  0  0  0  0  0  0  0  0  0  # atno 4320 bound_to 2467
   -4.9673   -5.4593    9.3370 LP  0  0  0  0  0  0  0  0  0  0  0  0  # atno 4321 bound_to 2467

> <Gold.Score>
     Score     S(PLP)   S(hbond)     S(cho)   S(metal)  DE(clash)   DE(tors)     intcor
     35.28     -33.46       1.00       0.00       0.00       0.00       0.67       0.17

> <Gold.PLP.Fitness>
35.2818

> <Gold.PLP.PLP>
-33.4645

> <Gold.PLP.part.hbond>
-1.0000

> <Gold.PLP.part.metal>
0.0000

> <Gold.PLP.part.buried>
-2.2860

> <Gold.PLP.part.nonpolar>
-31.1311

> <Gold.PLP.part.repulsive>
0.0067

> <Gold.PLP.ligand.clash>
0.0019

> <Gold.PLP.ligand.torsion>
0.6732

> <Gold.PLP.Chemscore.Hbond>
1.0000

> <Gold.PLP.Chemscore.CHOScore>
0.0000

> <Gold.PLP.Chemscore.Metal>
0.0000

> <Gold.Chemscore.Hbonds>
donor molecule, donor type, donor heavy atom, donor atom, acceptor molecule, acceptor atom, score
      P1  H  2456  2461       L1     4  1.00

> <Gold.PLP.Chemscore.Internal.Correction>
0.1656

