#       Name:                EN300-703997_i001
#       Creating user name   fsindt
#       Creation time:       Mon Feb 27 21:20:22 2023


#       File generated by GOLD software.
#

@<TRIPOS>MOLECULE
EN300-703997_i001|amine_3|mol2|817|dock2
    27    27     1
SMALL
USER_CHARGES


@<TRIPOS>ATOM
      1 C1          -2.1443 -10.6109   9.6423 C.3            1 <1>                0.0000
      2 O2          -1.4326 -11.7561   9.1035 O.3            1 <1>                0.0000
      3 C3          -0.0916 -11.7120   9.1388 C.2            1 <1>                0.0000
      4 O4           0.4691 -10.7540   9.6161 O.2            1 <1>                0.0000
      5 C5           0.7149 -12.8574   8.5831 C.3            1 <1>                0.0000
      6 N6           0.2078 -13.2277   7.2440 N.4            1 <1>                1.0000
      7 C7           0.3541 -14.7028   7.1493 C.3            1 <1>                0.0000
      8 C8          -0.0372 -15.1896   8.5672 C.3            1 <1>                0.0000
      9 C9           0.5570 -14.0961   9.4843 C.3            1 <1>                0.0000
     10 C10          1.9191 -14.5376  10.0236 C.3            1 <1>                0.0000
     11 C11         -0.4000 -13.7940  10.6392 C.3            1 <1>                0.0000
     12 H12         -1.8831 -10.4821  10.6927 H              1 <1>                0.0000
     13 H13         -1.8660  -9.7156   9.0863 H              1 <1>                0.0000
     14 H14         -3.2181 -10.7753   9.5524 H              1 <1>                0.0000
     15 H15          1.7654 -12.5740   8.5171 H              1 <1>                0.0000
     16 H16         -0.3265 -15.1096   6.4014 H              1 <1>                0.0000
     17 H17          1.3849 -14.9733   6.9205 H              1 <1>                0.0000
     18 H18         -1.1210 -15.2354   8.6739 H              1 <1>                0.0000
     19 H19          0.4139 -16.1587   8.7805 H              1 <1>                0.0000
     20 H20          2.5924 -14.7371   9.1899 H              1 <1>                0.0000
     21 H21          2.3368 -13.7469  10.6468 H              1 <1>                0.0000
     22 H22          1.7984 -15.4433  10.6179 H              1 <1>                0.0000
     23 H23         -0.5409 -14.6932  11.2390 H              1 <1>                0.0000
     24 H24          0.0200 -13.0041  11.2619 H              1 <1>                0.0000
     25 H25         -1.3607 -13.4695  10.2397 H              1 <1>                0.0000
     26 H26         -0.7631 -12.9680   7.1556 H              1 <1>                0.0000
     27 H27          0.7566 -12.7769   6.5273 H              1 <1>                0.0000
@<TRIPOS>BOND
    1    1    2 1     
    2    1   12 1     
    3    1   13 1     
    4    1   14 1     
    5    2    3 1     
    6    3    4 2     
    7    3    5 1     
    8    5    6 1     
    9    5    9 1     
   10    5   15 1     
   11    6    7 1     
   12    6   26 1     
   13    6   27 1     
   14    7    8 1     
   15    7   16 1     
   16    7   17 1     
   17    8    9 1     
   18    8   18 1     
   19    8   19 1     
   20    9   10 1     
   21    9   11 1     
   22   10   20 1     
   23   10   21 1     
   24   10   22 1     
   25   11   23 1     
   26   11   24 1     
   27   11   25 1     
@<TRIPOS>SUBSTRUCTURE
      1 ****           1
@<TRIPOS>SET
DONOR_HYDROGENS      STATIC     ATOMS    <user>   **** ""
2 26 27
ATOM$RED        STATIC     ATOMS    COLORGROUP SYSTEM
2 26 27
@<TRIPOS>COMMENT
> <Gold.Version>
2022.2.0

> <Gold.Id.Protein>
3pbl|protein|mol2

> <Gold.Protein.RotatedTorsions>
[ 1303 1298 1297 1294 ] final   92.33 input  179.99 | X-H torsion
[ 2461 2456 2455 2452 ] final -135.96 input   30.03 | X-H torsion
[ 2515 2510 2509 2506 ] final  -49.78 input  -89.99 | X-H torsion
[ 3721 3712 3711 3710 ] final  130.35 input -179.91 | X-H torsion
[ 3841 3832 3831 3830 ] final   91.08 input -179.91 | X-H torsion
[ 3767 3762 3761 3758 ] final  -88.03 input  -89.99 | X-H torsion
[ 2472 2467 2466 2463 ] final   15.31 input  -89.97 | X-H torsion

> <Gold.Protein.ActiveResidues>
 VAL82   VAL86   LEU89   PHE106  VAL107  ASP110  VAL111  MET112  CYS114  THR115 
 CYS181  SER182  ILE183  PHE188  VAL189  ILE190  SER192  SER193  SER196  TRP342 
 PHE345  PHE346  HIS349  VAL350  TYR365  THR369  GLY372  TYR373 

> <Gold.Protein.RotatedAtoms>
    4.4443  -10.0996    4.8708 H   0  0  0  0  0  0  0  0  0  0  0  0  # atno 1303 bound_to 1298
    0.7729   -9.2565    8.2041 H   0  0  0  0  0  0  0  0  0  0  0  0  # atno 2461 bound_to 2456
   -3.9650   -4.8289    7.8917 H   0  0  0  0  0  0  0  0  0  0  0  0  # atno 2472 bound_to 2467
    2.7992   -8.3359    4.3570 H   0  0  0  0  0  0  0  0  0  0  0  0  # atno 2515 bound_to 2510
   -3.0828  -17.0992   13.0669 H   0  0  0  0  0  0  0  0  0  0  0  0  # atno 3721 bound_to 3712
   -5.2457  -21.9236   11.1875 H   0  0  0  0  0  0  0  0  0  0  0  0  # atno 3767 bound_to 3762
    2.8538  -20.9174    9.2524 H   0  0  0  0  0  0  0  0  0  0  0  0  # atno 3841 bound_to 3832
    3.3336   -9.4688    3.8535 LP  0  0  0  0  0  0  0  0  0  0  0  0  # atno 4297 bound_to 1298
    4.5841   -8.5527    4.3670 LP  0  0  0  0  0  0  0  0  0  0  0  0  # atno 4298 bound_to 1298
    2.1611   -8.4559    7.8888 LP  0  0  0  0  0  0  0  0  0  0  0  0  # atno 4299 bound_to 2456
    0.8037   -8.0959    7.0554 LP  0  0  0  0  0  0  0  0  0  0  0  0  # atno 4300 bound_to 2456
    2.3943   -9.1325    5.7235 LP  0  0  0  0  0  0  0  0  0  0  0  0  # atno 4301 bound_to 2510
    2.1031   -7.5308    5.5952 LP  0  0  0  0  0  0  0  0  0  0  0  0  # atno 4302 bound_to 2510
   -2.6108  -18.1803   14.1560 LP  0  0  0  0  0  0  0  0  0  0  0  0  # atno 4306 bound_to 3712
   -3.3577  -16.8047   14.6211 LP  0  0  0  0  0  0  0  0  0  0  0  0  # atno 4307 bound_to 3712
    1.3994  -20.2388    9.2336 LP  0  0  0  0  0  0  0  0  0  0  0  0  # atno 4314 bound_to 3832
    2.5333  -19.8037    8.1420 LP  0  0  0  0  0  0  0  0  0  0  0  0  # atno 4315 bound_to 3832
   -3.9247  -22.8750   11.3164 LP  0  0  0  0  0  0  0  0  0  0  0  0  # atno 4318 bound_to 3762
   -4.9571  -23.0763   10.0673 LP  0  0  0  0  0  0  0  0  0  0  0  0  # atno 4319 bound_to 3762
   -4.2571   -5.4013    9.3928 LP  0  0  0  0  0  0  0  0  0  0  0  0  # atno 4320 bound_to 2467
   -5.4948   -5.1633    8.3545 LP  0  0  0  0  0  0  0  0  0  0  0  0  # atno 4321 bound_to 2467

> <Gold.Score>
     Score     S(PLP)   S(hbond)     S(cho)   S(metal)  DE(clash)   DE(tors)     intcor
     34.92     -32.15       1.00       0.00       0.00       0.00       0.22       0.21

> <Gold.PLP.Fitness>
34.9248

> <Gold.PLP.PLP>
-32.1506

> <Gold.PLP.part.hbond>
-1.0000

> <Gold.PLP.part.metal>
0.0000

> <Gold.PLP.part.buried>
-3.0468

> <Gold.PLP.part.nonpolar>
-28.4431

> <Gold.PLP.part.repulsive>
0.0000

> <Gold.PLP.ligand.clash>
0.0000

> <Gold.PLP.ligand.torsion>
0.2154

> <Gold.PLP.Chemscore.Hbond>
1.0000

> <Gold.PLP.Chemscore.CHOScore>
0.0000

> <Gold.PLP.Chemscore.Metal>
0.0000

> <Gold.Chemscore.Hbonds>
donor molecule, donor type, donor heavy atom, donor atom, acceptor molecule, acceptor atom, score
      P1  H  2456  2461       L1     4  1.00

> <Gold.PLP.Chemscore.Internal.Correction>
0.2051

