#       Name:                EN300-703997_i001
#       Creating user name   fsindt
#       Creation time:       Mon Feb 27 21:20:31 2023


#       File generated by GOLD software.
#

@<TRIPOS>MOLECULE
EN300-703997_i001|amine_3|mol2|817|dock20
    27    27     1
SMALL
USER_CHARGES


@<TRIPOS>ATOM
      1 C1           1.0163 -11.7081   7.0062 C.3            1 <1>                0.0000
      2 O2          -0.0143 -11.3650   7.9696 O.3            1 <1>                0.0000
      3 C3          -0.3457 -12.3053   8.8683 C.2            1 <1>                0.0000
      4 O4           0.3007 -13.3234   8.9439 O.2            1 <1>                0.0000
      5 C5          -1.5240 -12.0913   9.7832 C.3            1 <1>                0.0000
      6 N6          -2.6923 -11.6325   9.0009 N.4            1 <1>                1.0000
      7 C7          -3.4167 -10.6771   9.8777 C.3            1 <1>                0.0000
      8 C8          -2.2730  -9.8953  10.5713 C.3            1 <1>                0.0000
      9 C9          -1.2012 -10.9847  10.8043 C.3            1 <1>                0.0000
     10 C10         -1.3011 -11.5318  12.2296 C.3            1 <1>                0.0000
     11 C11          0.1967 -10.4176  10.5487 C.3            1 <1>                0.0000
     12 H12          1.9401 -11.9487   7.5324 H              1 <1>                0.0000
     13 H13          0.6955 -12.5709   6.4225 H              1 <1>                0.0000
     14 H14          1.1873 -10.8622   6.3403 H              1 <1>                0.0000
     15 H15         -1.7651 -13.0197  10.3010 H              1 <1>                0.0000
     16 H16         -4.0374 -10.0055   9.2847 H              1 <1>                0.0000
     17 H17         -4.0192 -11.2105  10.6130 H              1 <1>                0.0000
     18 H18         -1.8903  -9.1112   9.9180 H              1 <1>                0.0000
     19 H19         -2.6110  -9.4777  11.5197 H              1 <1>                0.0000
     20 H20         -2.2976 -11.9427  12.3920 H              1 <1>                0.0000
     21 H21         -0.5573 -12.3160  12.3708 H              1 <1>                0.0000
     22 H22         -1.1197 -10.7265  12.9414 H              1 <1>                0.0000
     23 H23          0.3912  -9.6027  11.2459 H              1 <1>                0.0000
     24 H24          0.9390 -11.2029  10.6916 H              1 <1>                0.0000
     25 H25          0.2557 -10.0434   9.5267 H              1 <1>                0.0000
     26 H26         -2.3867 -11.1686   8.1587 H              1 <1>                0.0000
     27 H27         -3.2871 -12.4149   8.7726 H              1 <1>                0.0000
@<TRIPOS>BOND
    1    1    2 1     
    2    1   12 1     
    3    1   13 1     
    4    1   14 1     
    5    2    3 1     
    6    3    4 2     
    7    3    5 1     
    8    5    6 1     
    9    5    9 1     
   10    5   15 1     
   11    6    7 1     
   12    6   26 1     
   13    6   27 1     
   14    7    8 1     
   15    7   16 1     
   16    7   17 1     
   17    8    9 1     
   18    8   18 1     
   19    8   19 1     
   20    9   10 1     
   21    9   11 1     
   22   10   20 1     
   23   10   21 1     
   24   10   22 1     
   25   11   23 1     
   26   11   24 1     
   27   11   25 1     
@<TRIPOS>SUBSTRUCTURE
      1 ****           1
@<TRIPOS>SET
DONOR_HYDROGENS      STATIC     ATOMS    <user>   **** ""
2 26 27
ATOM$RED        STATIC     ATOMS    COLORGROUP SYSTEM
2 26 27
@<TRIPOS>COMMENT
> <Gold.Version>
2022.2.0

> <Gold.Id.Protein>
3pbl|protein|mol2

> <Gold.Protein.RotatedTorsions>
[ 1303 1298 1297 1294 ] final  -50.20 input  179.99 | X-H torsion
[ 2461 2456 2455 2452 ] final  165.88 input   30.03 | X-H torsion
[ 2515 2510 2509 2506 ] final -147.57 input  -89.99 | X-H torsion
[ 3721 3712 3711 3710 ] final    0.78 input -179.91 | X-H torsion
[ 3841 3832 3831 3830 ] final  -39.20 input -179.91 | X-H torsion
[ 3767 3762 3761 3758 ] final   96.06 input  -89.99 | X-H torsion
[ 2472 2467 2466 2463 ] final  -68.07 input  -89.97 | X-H torsion

> <Gold.Protein.ActiveResidues>
 VAL82   VAL86   LEU89   PHE106  VAL107  ASP110  VAL111  MET112  CYS114  THR115 
 CYS181  SER182  ILE183  PHE188  VAL189  ILE190  SER192  SER193  SER196  TRP342 
 PHE345  PHE346  HIS349  VAL350  TYR365  THR369  GLY372  TYR373 

> <Gold.Protein.RotatedAtoms>
    3.4245   -9.1192    3.7817 H   0  0  0  0  0  0  0  0  0  0  0  0  # atno 1303 bound_to 1298
    1.6624   -9.1242    8.3824 H   0  0  0  0  0  0  0  0  0  0  0  0  # atno 2461 bound_to 2456
   -3.7924   -5.2333    9.0663 H   0  0  0  0  0  0  0  0  0  0  0  0  # atno 2472 bound_to 2467
    2.5491   -9.2485    5.4162 H   0  0  0  0  0  0  0  0  0  0  0  0  # atno 2515 bound_to 2510
   -2.4853  -17.9611   14.2315 H   0  0  0  0  0  0  0  0  0  0  0  0  # atno 3721 bound_to 3712
   -4.1308  -23.3157   10.5783 H   0  0  0  0  0  0  0  0  0  0  0  0  # atno 3767 bound_to 3762
    1.5612  -20.0247    9.2535 H   0  0  0  0  0  0  0  0  0  0  0  0  # atno 3841 bound_to 3832
    4.7946   -8.7551    4.5919 LP  0  0  0  0  0  0  0  0  0  0  0  0  # atno 4297 bound_to 1298
    4.1433  -10.2472    4.7183 LP  0  0  0  0  0  0  0  0  0  0  0  0  # atno 4298 bound_to 1298
    1.7437   -7.9561    7.2438 LP  0  0  0  0  0  0  0  0  0  0  0  0  # atno 4299 bound_to 2456
    0.3318   -8.7281    7.5221 LP  0  0  0  0  0  0  0  0  0  0  0  0  # atno 4300 bound_to 2456
    2.0391   -7.7641    5.8659 LP  0  0  0  0  0  0  0  0  0  0  0  0  # atno 4301 bound_to 2510
    2.7084   -7.9861    4.3930 LP  0  0  0  0  0  0  0  0  0  0  0  0  # atno 4302 bound_to 2510
   -3.4374  -16.6897   14.4658 LP  0  0  0  0  0  0  0  0  0  0  0  0  # atno 4306 bound_to 3712
   -3.2210  -17.3001   12.9667 LP  0  0  0  0  0  0  0  0  0  0  0  0  # atno 4307 bound_to 3712
    2.7151  -19.9292    8.1419 LP  0  0  0  0  0  0  0  0  0  0  0  0  # atno 4314 bound_to 3832
    2.7108  -21.1445    9.2326 LP  0  0  0  0  0  0  0  0  0  0  0  0  # atno 4315 bound_to 3832
   -5.4799  -22.4235   10.3529 LP  0  0  0  0  0  0  0  0  0  0  0  0  # atno 4318 bound_to 3762
   -4.5165  -22.1361   11.6397 LP  0  0  0  0  0  0  0  0  0  0  0  0  # atno 4319 bound_to 3762
   -5.4133   -5.3543    8.9094 LP  0  0  0  0  0  0  0  0  0  0  0  0  # atno 4320 bound_to 2467
   -4.5110   -4.8060    7.6636 LP  0  0  0  0  0  0  0  0  0  0  0  0  # atno 4321 bound_to 2467

> <Gold.Score>
     Score     S(PLP)   S(hbond)     S(cho)   S(metal)  DE(clash)   DE(tors)     intcor
     32.76     -33.16       0.00       0.00       0.00       0.00       0.28       0.16

> <Gold.PLP.Fitness>
32.7595

> <Gold.PLP.PLP>
-33.1599

> <Gold.PLP.part.hbond>
-0.6147

> <Gold.PLP.part.metal>
0.0000

> <Gold.PLP.part.buried>
0.5661

> <Gold.PLP.part.nonpolar>
-33.5272

> <Gold.PLP.part.repulsive>
0.0053

> <Gold.PLP.ligand.clash>
0.0000

> <Gold.PLP.ligand.torsion>
0.2825

> <Gold.PLP.Chemscore.Hbond>
0.0000

> <Gold.PLP.Chemscore.CHOScore>
0.0000

> <Gold.PLP.Chemscore.Metal>
0.0000

> <Gold.PLP.Chemscore.Internal.Correction>
0.1646

