#       Name:                EN300-703997_i001
#       Creating user name   fsindt
#       Creation time:       Mon Feb 27 21:20:22 2023


#       File generated by GOLD software.
#

@<TRIPOS>MOLECULE
EN300-703997_i001|amine_3|mol2|817|dock1
    27    27     1
SMALL
USER_CHARGES


@<TRIPOS>ATOM
      1 C1          -0.1565 -21.5324  12.6801 C.3            1 <1>                0.0000
      2 O2           0.6499 -20.3250  12.6930 O.3            1 <1>                0.0000
      3 C3          -0.0062 -19.1543  12.7138 C.2            1 <1>                0.0000
      4 O4          -1.2097 -19.1379  12.8199 O.2            1 <1>                0.0000
      5 C5           0.7582 -17.8601  12.6047 C.3            1 <1>                0.0000
      6 N6           2.1770 -18.1378  12.2926 N.4            1 <1>                1.0000
      7 C7           2.9604 -17.1024  13.0141 C.3            1 <1>                0.0000
      8 C8           2.2122 -16.9685  14.3642 C.3            1 <1>                0.0000
      9 C9           0.7293 -17.1184  13.9539 C.3            1 <1>                0.0000
     10 C10          0.0820 -15.7418  13.7895 C.3            1 <1>                0.0000
     11 C11         -0.0294 -17.9420  14.9965 C.3            1 <1>                0.0000
     12 H12         -0.7805 -21.5622  13.5733 H              1 <1>                0.0000
     13 H13         -0.7908 -21.5364  11.7936 H              1 <1>                0.0000
     14 H14          0.4963 -22.4052  12.6637 H              1 <1>                0.0000
     15 H15          0.3217 -17.2358  11.8250 H              1 <1>                0.0000
     16 H16          3.9853 -17.4373  13.1738 H              1 <1>                0.0000
     17 H17          2.9436 -16.1583  12.4696 H              1 <1>                0.0000
     18 H18          2.5055 -17.7647  15.0484 H              1 <1>                0.0000
     19 H19          2.3921 -15.9900  14.8095 H              1 <1>                0.0000
     20 H20          0.6258 -15.1725  13.0357 H              1 <1>                0.0000
     21 H21         -0.9548 -15.8630  13.4754 H              1 <1>                0.0000
     22 H22          0.1139 -15.2094  14.7400 H              1 <1>                0.0000
     23 H23          0.0014 -17.4288  15.9577 H              1 <1>                0.0000
     24 H24         -1.0661 -18.0610  14.6813 H              1 <1>                0.0000
     25 H25          0.4357 -18.9229  15.0934 H              1 <1>                0.0000
     26 H26          2.4317 -19.0576  12.6198 H              1 <1>                0.0000
     27 H27          2.3354 -18.0643  11.2989 H              1 <1>                0.0000
@<TRIPOS>BOND
    1    1    2 1     
    2    1   12 1     
    3    1   13 1     
    4    1   14 1     
    5    2    3 1     
    6    3    4 2     
    7    3    5 1     
    8    5    6 1     
    9    5    9 1     
   10    5   15 1     
   11    6    7 1     
   12    6   26 1     
   13    6   27 1     
   14    7    8 1     
   15    7   16 1     
   16    7   17 1     
   17    8    9 1     
   18    8   18 1     
   19    8   19 1     
   20    9   10 1     
   21    9   11 1     
   22   10   20 1     
   23   10   21 1     
   24   10   22 1     
   25   11   23 1     
   26   11   24 1     
   27   11   25 1     
@<TRIPOS>SUBSTRUCTURE
      1 ****           1
@<TRIPOS>SET
DONOR_HYDROGENS      STATIC     ATOMS    <user>   **** ""
2 26 27
ATOM$RED        STATIC     ATOMS    COLORGROUP SYSTEM
2 26 27
@<TRIPOS>COMMENT
> <Gold.Version>
2022.2.0

> <Gold.Id.Protein>
3pbl|protein|mol2

> <Gold.Protein.RotatedTorsions>
[ 1303 1298 1297 1294 ] final   54.88 input  179.99 | X-H torsion
[ 2461 2456 2455 2452 ] final  111.04 input   30.03 | X-H torsion
[ 2515 2510 2509 2506 ] final    6.21 input  -89.99 | X-H torsion
[ 3721 3712 3711 3710 ] final   55.07 input -179.91 | X-H torsion
[ 3841 3832 3831 3830 ] final   -9.16 input -179.91 | X-H torsion
[ 3767 3762 3761 3758 ] final  -84.11 input  -89.99 | X-H torsion
[ 2472 2467 2466 2463 ] final   37.48 input  -89.97 | X-H torsion

> <Gold.Protein.ActiveResidues>
 VAL82   VAL86   LEU89   PHE106  VAL107  ASP110  VAL111  MET112  CYS114  THR115 
 CYS181  SER182  ILE183  PHE188  VAL189  ILE190  SER192  SER193  SER196  TRP342 
 PHE345  PHE346  HIS349  VAL350  TYR365  THR369  GLY372  TYR373 

> <Gold.Protein.RotatedAtoms>
    3.9386  -10.2715    4.5861 H   0  0  0  0  0  0  0  0  0  0  0  0  # atno 1303 bound_to 1298
    2.1523   -8.5386    7.9685 H   0  0  0  0  0  0  0  0  0  0  0  0  # atno 2461 bound_to 2456
   -4.2795   -4.7995    7.7139 H   0  0  0  0  0  0  0  0  0  0  0  0  # atno 2472 bound_to 2467
    2.4983   -7.5684    4.6781 H   0  0  0  0  0  0  0  0  0  0  0  0  # atno 2515 bound_to 2510
   -2.5665  -17.9414   13.4457 H   0  0  0  0  0  0  0  0  0  0  0  0  # atno 3721 bound_to 3712
   -5.2851  -21.9331   11.1375 H   0  0  0  0  0  0  0  0  0  0  0  0  # atno 3767 bound_to 3762
    1.6658  -20.3800    9.5069 H   0  0  0  0  0  0  0  0  0  0  0  0  # atno 3841 bound_to 3832
    3.5449   -8.9059    3.7820 LP  0  0  0  0  0  0  0  0  0  0  0  0  # atno 4297 bound_to 1298
    4.8787   -8.9435    4.7234 LP  0  0  0  0  0  0  0  0  0  0  0  0  # atno 4298 bound_to 1298
    0.9047   -8.0434    7.0381 LP  0  0  0  0  0  0  0  0  0  0  0  0  # atno 4299 bound_to 2456
    0.6810   -9.2261    8.1416 LP  0  0  0  0  0  0  0  0  0  0  0  0  # atno 4300 bound_to 2456
    2.7441   -9.1656    4.9113 LP  0  0  0  0  0  0  0  0  0  0  0  0  # atno 4301 bound_to 2510
    2.0543   -8.2654    6.0862 LP  0  0  0  0  0  0  0  0  0  0  0  0  # atno 4302 bound_to 2510
   -3.0247  -17.3479   14.8654 LP  0  0  0  0  0  0  0  0  0  0  0  0  # atno 4306 bound_to 3712
   -3.5398  -16.6648   13.4744 LP  0  0  0  0  0  0  0  0  0  0  0  0  # atno 4307 bound_to 3712
    2.2832  -19.6906    8.1956 LP  0  0  0  0  0  0  0  0  0  0  0  0  # atno 4314 bound_to 3832
    3.0220  -20.9727    8.8861 LP  0  0  0  0  0  0  0  0  0  0  0  0  # atno 4315 bound_to 3832
   -3.9379  -22.8290   11.3595 LP  0  0  0  0  0  0  0  0  0  0  0  0  # atno 4318 bound_to 3762
   -4.9045  -23.1127   10.0742 LP  0  0  0  0  0  0  0  0  0  0  0  0  # atno 4319 bound_to 3762
   -3.9471   -5.3083    9.2294 LP  0  0  0  0  0  0  0  0  0  0  0  0  # atno 4320 bound_to 2467
   -5.4903   -5.2857    8.6957 LP  0  0  0  0  0  0  0  0  0  0  0  0  # atno 4321 bound_to 2467

> <Gold.Score>
     Score     S(PLP)   S(hbond)     S(cho)   S(metal)  DE(clash)   DE(tors)     intcor
     37.55     -28.74       3.00       0.00       0.00       0.01       0.19       0.21

> <Gold.PLP.Fitness>
37.5515

> <Gold.PLP.PLP>
-28.7443

> <Gold.PLP.part.hbond>
-2.0000

> <Gold.PLP.part.metal>
0.0000

> <Gold.PLP.part.buried>
-4.2189

> <Gold.PLP.part.nonpolar>
-23.0436

> <Gold.PLP.part.repulsive>
0.0191

> <Gold.PLP.ligand.clash>
0.0086

> <Gold.PLP.ligand.torsion>
0.1946

> <Gold.PLP.Chemscore.Hbond>
3.0000

> <Gold.PLP.Chemscore.CHOScore>
0.0000

> <Gold.PLP.Chemscore.Metal>
0.0000

> <Gold.Chemscore.Hbonds>
donor molecule, donor type, donor heavy atom, donor atom, acceptor molecule, acceptor atom, score
      L1  H     6    27       P1  1227  2.00
      P1  H  3712  3721       L1     4  1.00

> <Gold.PLP.Chemscore.Internal.Correction>
0.2051

