#       Name:                EN300-703997_i001
#       Creating user name   fsindt
#       Creation time:       Mon Feb 27 21:20:26 2023


#       File generated by GOLD software.
#

@<TRIPOS>MOLECULE
EN300-703997_i001|amine_3|mol2|817|dock11
    27    27     1
SMALL
USER_CHARGES


@<TRIPOS>ATOM
      1 C1           1.0029 -20.6586  12.0487 C.3            1 <1>                0.0000
      2 O2           0.9762 -19.2087  11.9760 O.3            1 <1>                0.0000
      3 C3          -0.1656 -18.6014  12.3353 C.2            1 <1>                0.0000
      4 O4          -1.1221 -19.2609  12.6673 O.2            1 <1>                0.0000
      5 C5          -0.2547 -17.0971  12.3246 C.3            1 <1>                0.0000
      6 N6           0.2851 -16.5694  11.0528 N.4            1 <1>                1.0000
      7 C7           0.9574 -15.2907  11.3977 C.3            1 <1>                0.0000
      8 C8           1.6402 -15.6035  12.7529 C.3            1 <1>                0.0000
      9 C9           0.6078 -16.5124  13.4585 C.3            1 <1>                0.0000
     10 C10         -0.2584 -15.6897  14.4144 C.3            1 <1>                0.0000
     11 C11          1.3192 -17.6346  14.2172 C.3            1 <1>                0.0000
     12 H12          0.8135 -20.9745  13.0746 H              1 <1>                0.0000
     13 H13          0.2342 -21.0695  11.3943 H              1 <1>                0.0000
     14 H14          1.9812 -21.0203  11.7319 H              1 <1>                0.0000
     15 H15         -1.2924 -16.7859  12.4452 H              1 <1>                0.0000
     16 H16          1.7003 -15.0309  10.6436 H              1 <1>                0.0000
     17 H17          0.2265 -14.4900  11.5110 H              1 <1>                0.0000
     18 H18          2.5794 -16.1345  12.5981 H              1 <1>                0.0000
     19 H19          1.8024 -14.6889  13.3233 H              1 <1>                0.0000
     20 H20         -0.7674 -14.9030  13.8575 H              1 <1>                0.0000
     21 H21         -0.9975 -16.3385  14.8846 H              1 <1>                0.0000
     22 H22          0.3725 -15.2416  15.1820 H              1 <1>                0.0000
     23 H23          1.9638 -17.2034  14.9832 H              1 <1>                0.0000
     24 H24          0.5785 -18.2813  14.6876 H              1 <1>                0.0000
     25 H25          1.9218 -18.2183  13.5216 H              1 <1>                0.0000
     26 H26          0.9514 -17.2183  10.6617 H              1 <1>                0.0000
     27 H27         -0.4651 -16.4028  10.3990 H              1 <1>                0.0000
@<TRIPOS>BOND
    1    1    2 1     
    2    1   12 1     
    3    1   13 1     
    4    1   14 1     
    5    2    3 1     
    6    3    4 2     
    7    3    5 1     
    8    5    6 1     
    9    5    9 1     
   10    5   15 1     
   11    6    7 1     
   12    6   26 1     
   13    6   27 1     
   14    7    8 1     
   15    7   16 1     
   16    7   17 1     
   17    8    9 1     
   18    8   18 1     
   19    8   19 1     
   20    9   10 1     
   21    9   11 1     
   22   10   20 1     
   23   10   21 1     
   24   10   22 1     
   25   11   23 1     
   26   11   24 1     
   27   11   25 1     
@<TRIPOS>SUBSTRUCTURE
      1 ****           1
@<TRIPOS>SET
DONOR_HYDROGENS      STATIC     ATOMS    <user>   **** ""
2 26 27
ATOM$RED        STATIC     ATOMS    COLORGROUP SYSTEM
2 26 27
@<TRIPOS>COMMENT
> <Gold.Version>
2022.2.0

> <Gold.Id.Protein>
3pbl|protein|mol2

> <Gold.Protein.RotatedTorsions>
[ 1303 1298 1297 1294 ] final   30.69 input  179.99 | X-H torsion
[ 2461 2456 2455 2452 ] final   76.02 input   30.03 | X-H torsion
[ 2515 2510 2509 2506 ] final  102.76 input  -89.99 | X-H torsion
[ 3721 3712 3711 3710 ] final   48.02 input -179.91 | X-H torsion
[ 3841 3832 3831 3830 ] final  166.82 input -179.91 | X-H torsion
[ 3767 3762 3761 3758 ] final  126.04 input  -89.99 | X-H torsion
[ 2472 2467 2466 2463 ] final   45.02 input  -89.97 | X-H torsion

> <Gold.Protein.ActiveResidues>
 VAL82   VAL86   LEU89   PHE106  VAL107  ASP110  VAL111  MET112  CYS114  THR115 
 CYS181  SER182  ILE183  PHE188  VAL189  ILE190  SER192  SER193  SER196  TRP342 
 PHE345  PHE346  HIS349  VAL350  TYR365  THR369  GLY372  TYR373 

> <Gold.Protein.RotatedAtoms>
    3.6392  -10.1839    4.3440 H   0  0  0  0  0  0  0  0  0  0  0  0  # atno 1303 bound_to 1298
    2.0623   -8.1582    7.5570 H   0  0  0  0  0  0  0  0  0  0  0  0  # atno 2461 bound_to 2456
   -4.3989   -4.8006    7.6806 H   0  0  0  0  0  0  0  0  0  0  0  0  # atno 2472 bound_to 2467
    2.0293   -7.9041    5.9612 H   0  0  0  0  0  0  0  0  0  0  0  0  # atno 2515 bound_to 2510
   -2.5356  -17.9808   13.5395 H   0  0  0  0  0  0  0  0  0  0  0  0  # atno 3721 bound_to 3712
   -3.9302  -23.1404   10.9868 H   0  0  0  0  0  0  0  0  0  0  0  0  # atno 3767 bound_to 3762
    3.0546  -20.2048    8.4900 H   0  0  0  0  0  0  0  0  0  0  0  0  # atno 3841 bound_to 3832
    3.8178   -8.6329    3.8656 LP  0  0  0  0  0  0  0  0  0  0  0  0  # atno 4297 bound_to 1298
    4.9054   -9.3043    4.8820 LP  0  0  0  0  0  0  0  0  0  0  0  0  # atno 4298 bound_to 1298
    0.4790   -8.3725    7.2183 LP  0  0  0  0  0  0  0  0  0  0  0  0  # atno 4299 bound_to 2456
    1.1967   -9.2774    8.3728 LP  0  0  0  0  0  0  0  0  0  0  0  0  # atno 4300 bound_to 2456
    2.6512   -7.8382    4.4530 LP  0  0  0  0  0  0  0  0  0  0  0  0  # atno 4301 bound_to 2510
    2.6164   -9.2570    5.2607 LP  0  0  0  0  0  0  0  0  0  0  0  0  # atno 4302 bound_to 2510
   -3.0836  -17.2463   14.8578 LP  0  0  0  0  0  0  0  0  0  0  0  0  # atno 4306 bound_to 3712
   -3.5167  -16.7208   13.3736 LP  0  0  0  0  0  0  0  0  0  0  0  0  # atno 4307 bound_to 3712
    2.1738  -21.0798    9.5072 LP  0  0  0  0  0  0  0  0  0  0  0  0  # atno 4314 bound_to 3832
    1.5270  -19.7860    8.7492 LP  0  0  0  0  0  0  0  0  0  0  0  0  # atno 4315 bound_to 3832
   -5.2656  -22.7909   10.1143 LP  0  0  0  0  0  0  0  0  0  0  0  0  # atno 4318 bound_to 3762
   -4.9313  -21.9440   11.4699 LP  0  0  0  0  0  0  0  0  0  0  0  0  # atno 4319 bound_to 3762
   -3.8608   -5.2699    9.1492 LP  0  0  0  0  0  0  0  0  0  0  0  0  # atno 4320 bound_to 2467
   -5.4571   -5.3230    8.8092 LP  0  0  0  0  0  0  0  0  0  0  0  0  # atno 4321 bound_to 2467

> <Gold.Score>
     Score     S(PLP)   S(hbond)     S(cho)   S(metal)  DE(clash)   DE(tors)     intcor
     33.93     -25.27       2.98       0.00       0.00       0.00       0.23       0.17

> <Gold.PLP.Fitness>
33.9250

> <Gold.PLP.PLP>
-25.2720

> <Gold.PLP.part.hbond>
-2.0000

> <Gold.PLP.part.metal>
0.0000

> <Gold.PLP.part.buried>
-2.0721

> <Gold.PLP.part.nonpolar>
-22.1768

> <Gold.PLP.part.repulsive>
0.0914

> <Gold.PLP.ligand.clash>
0.0000

> <Gold.PLP.ligand.torsion>
0.2323

> <Gold.PLP.Chemscore.Hbond>
2.9840

> <Gold.PLP.Chemscore.CHOScore>
0.0000

> <Gold.PLP.Chemscore.Metal>
0.0000

> <Gold.Chemscore.Hbonds>
donor molecule, donor type, donor heavy atom, donor atom, acceptor molecule, acceptor atom, score
      L1  H     6    26       P1  1227  1.98
      P1  H  3712  3721       L1     4  1.00

> <Gold.PLP.Chemscore.Internal.Correction>
0.1656

