#       Name:                EN300-703997_i001
#       Creating user name   fsindt
#       Creation time:       Mon Feb 27 21:20:23 2023


#       File generated by GOLD software.
#

@<TRIPOS>MOLECULE
EN300-703997_i001|amine_3|mol2|817|dock5
    27    27     1
SMALL
USER_CHARGES


@<TRIPOS>ATOM
      1 C1           0.7867 -13.1731   6.5896 C.3            1 <1>                0.0000
      2 O2          -0.0105 -12.8996   7.7719 O.3            1 <1>                0.0000
      3 C3           0.3314 -11.8268   8.5026 C.2            1 <1>                0.0000
      4 O4           0.8393 -10.8692   7.9688 O.2            1 <1>                0.0000
      5 C5           0.0817 -11.8167   9.9888 C.3            1 <1>                0.0000
      6 N6          -0.3622 -13.1553  10.4342 N.4            1 <1>                1.0000
      7 C7          -1.3485 -12.9149  11.5185 C.3            1 <1>                0.0000
      8 C8          -2.1422 -11.6855  11.0094 C.3            1 <1>                0.0000
      9 C9          -1.0524 -10.8302  10.3235 C.3            1 <1>                0.0000
     10 C10         -0.5487  -9.7462  11.2786 C.3            1 <1>                0.0000
     11 C11         -1.6014 -10.1979   9.0430 C.3            1 <1>                0.0000
     12 H12          0.7292 -12.3243   5.9082 H              1 <1>                0.0000
     13 H13          1.8245 -13.3356   6.8806 H              1 <1>                0.0000
     14 H14          0.4049 -14.0648   6.0923 H              1 <1>                0.0000
     15 H15          0.9925 -11.5329  10.5161 H              1 <1>                0.0000
     16 H16         -2.0067 -13.7755  11.6376 H              1 <1>                0.0000
     17 H17         -0.8416 -12.6845  12.4555 H              1 <1>                0.0000
     18 H18         -2.9037 -11.9886  10.2909 H              1 <1>                0.0000
     19 H19         -2.5902 -11.1437  11.8424 H              1 <1>                0.0000
     20 H20         -0.1501 -10.2126  12.1795 H              1 <1>                0.0000
     21 H21          0.2364  -9.1684  10.7908 H              1 <1>                0.0000
     22 H22         -1.3734  -9.0855  11.5458 H              1 <1>                0.0000
     23 H23         -2.4353  -9.5411   9.2907 H              1 <1>                0.0000
     24 H24         -0.8153  -9.6196   8.5574 H              1 <1>                0.0000
     25 H25         -1.9446 -10.9823   8.3686 H              1 <1>                0.0000
     26 H26         -0.7986 -13.6493   9.6703 H              1 <1>                0.0000
     27 H27          0.4222 -13.6821  10.7879 H              1 <1>                0.0000
@<TRIPOS>BOND
    1    1    2 1     
    2    1   12 1     
    3    1   13 1     
    4    1   14 1     
    5    2    3 1     
    6    3    4 2     
    7    3    5 1     
    8    5    6 1     
    9    5    9 1     
   10    5   15 1     
   11    6    7 1     
   12    6   26 1     
   13    6   27 1     
   14    7    8 1     
   15    7   16 1     
   16    7   17 1     
   17    8    9 1     
   18    8   18 1     
   19    8   19 1     
   20    9   10 1     
   21    9   11 1     
   22   10   20 1     
   23   10   21 1     
   24   10   22 1     
   25   11   23 1     
   26   11   24 1     
   27   11   25 1     
@<TRIPOS>SUBSTRUCTURE
      1 ****           1
@<TRIPOS>SET
DONOR_HYDROGENS      STATIC     ATOMS    <user>   **** ""
2 26 27
ATOM$RED        STATIC     ATOMS    COLORGROUP SYSTEM
2 26 27
@<TRIPOS>COMMENT
> <Gold.Version>
2022.2.0

> <Gold.Id.Protein>
3pbl|protein|mol2

> <Gold.Protein.RotatedTorsions>
[ 1303 1298 1297 1294 ] final  -48.18 input  179.99 | X-H torsion
[ 2461 2456 2455 2452 ] final -146.47 input   30.03 | X-H torsion
[ 2515 2510 2509 2506 ] final  -93.19 input  -89.99 | X-H torsion
[ 3721 3712 3711 3710 ] final  163.06 input -179.91 | X-H torsion
[ 3841 3832 3831 3830 ] final   75.89 input -179.91 | X-H torsion
[ 3767 3762 3761 3758 ] final   19.99 input  -89.99 | X-H torsion
[ 2472 2467 2466 2463 ] final  110.13 input  -89.97 | X-H torsion

> <Gold.Protein.ActiveResidues>
 VAL82   VAL86   LEU89   PHE106  VAL107  ASP110  VAL111  MET112  CYS114  THR115 
 CYS181  SER182  ILE183  PHE188  VAL189  ILE190  SER192  SER193  SER196  TRP342 
 PHE345  PHE346  HIS349  VAL350  TYR365  THR369  GLY372  TYR373 

> <Gold.Protein.RotatedAtoms>
    3.4116   -9.1498    3.7846 H   0  0  0  0  0  0  0  0  0  0  0  0  # atno 1303 bound_to 1298
    0.9239   -9.2835    8.2837 H   0  0  0  0  0  0  0  0  0  0  0  0  # atno 2461 bound_to 2456
   -5.3354   -5.0202    8.0039 H   0  0  0  0  0  0  0  0  0  0  0  0  # atno 2472 bound_to 2467
    2.8143   -8.9704    4.6454 H   0  0  0  0  0  0  0  0  0  0  0  0  # atno 2515 bound_to 2510
   -3.2686  -16.7339   13.3314 H   0  0  0  0  0  0  0  0  0  0  0  0  # atno 3721 bound_to 3712
   -5.1097  -22.9521   10.0685 H   0  0  0  0  0  0  0  0  0  0  0  0  # atno 3767 bound_to 3762
    2.6786  -20.9552    9.3947 H   0  0  0  0  0  0  0  0  0  0  0  0  # atno 3841 bound_to 3832
    4.7796   -8.7324    4.5726 LP  0  0  0  0  0  0  0  0  0  0  0  0  # atno 4297 bound_to 1298
    4.1712  -10.2392    4.7346 LP  0  0  0  0  0  0  0  0  0  0  0  0  # atno 4298 bound_to 1298
    2.1489   -8.3361    7.7649 LP  0  0  0  0  0  0  0  0  0  0  0  0  # atno 4299 bound_to 2456
    0.6648   -8.1888    7.0997 LP  0  0  0  0  0  0  0  0  0  0  0  0  # atno 4300 bound_to 2456
    2.1285   -8.5943    6.0785 LP  0  0  0  0  0  0  0  0  0  0  0  0  # atno 4301 bound_to 2510
    2.3537   -7.4342    4.9516 LP  0  0  0  0  0  0  0  0  0  0  0  0  # atno 4302 bound_to 2510
   -2.6537  -18.1890   13.6186 LP  0  0  0  0  0  0  0  0  0  0  0  0  # atno 4306 bound_to 3712
   -3.1004  -17.2178   14.8531 LP  0  0  0  0  0  0  0  0  0  0  0  0  # atno 4307 bound_to 3712
    1.3952  -20.0490    9.0663 LP  0  0  0  0  0  0  0  0  0  0  0  0  # atno 4314 bound_to 3832
    2.7399  -19.9499    8.1450 LP  0  0  0  0  0  0  0  0  0  0  0  0  # atno 4315 bound_to 3832
   -5.1106  -21.9154   11.3303 LP  0  0  0  0  0  0  0  0  0  0  0  0  # atno 4318 bound_to 3762
   -3.9072  -23.0077   11.1720 LP  0  0  0  0  0  0  0  0  0  0  0  0  # atno 4319 bound_to 3762
   -3.7188   -4.9154    8.2091 LP  0  0  0  0  0  0  0  0  0  0  0  0  # atno 4320 bound_to 2467
   -4.6629   -5.4579    9.4261 LP  0  0  0  0  0  0  0  0  0  0  0  0  # atno 4321 bound_to 2467

> <Gold.Score>
     Score     S(PLP)   S(hbond)     S(cho)   S(metal)  DE(clash)   DE(tors)     intcor
     37.37     -35.45       0.94       0.00       0.00       0.01       0.54       0.17

> <Gold.PLP.Fitness>
37.3666

> <Gold.PLP.PLP>
-35.4534

> <Gold.PLP.part.hbond>
-0.7220

> <Gold.PLP.part.metal>
0.0000

> <Gold.PLP.part.buried>
-4.5362

> <Gold.PLP.part.nonpolar>
-30.9994

> <Gold.PLP.part.repulsive>
0.0116

> <Gold.PLP.ligand.clash>
0.0057

> <Gold.PLP.ligand.torsion>
0.5393

> <Gold.PLP.Chemscore.Hbond>
0.9440

> <Gold.PLP.Chemscore.CHOScore>
0.0000

> <Gold.PLP.Chemscore.Metal>
0.0000

> <Gold.Chemscore.Hbonds>
donor molecule, donor type, donor heavy atom, donor atom, acceptor molecule, acceptor atom, score
      P1  H  2456  2461       L1     4  0.94

> <Gold.PLP.Chemscore.Internal.Correction>
0.1656

