#       Name:                EN300-703997_i001
#       Creating user name   fsindt
#       Creation time:       Mon Feb 27 21:20:29 2023


#       File generated by GOLD software.
#

@<TRIPOS>MOLECULE
EN300-703997_i001|amine_3|mol2|817|dock17
    27    27     1
SMALL
USER_CHARGES


@<TRIPOS>ATOM
      1 C1          -0.3216 -20.9360  12.5224 C.3            1 <1>                0.0000
      2 O2          -0.4829 -19.5121  12.7567 O.3            1 <1>                0.0000
      3 C3          -0.0972 -18.6850  11.7724 C.2            1 <1>                0.0000
      4 O4           0.3964 -19.1337  10.7649 O.2            1 <1>                0.0000
      5 C5          -0.2799 -17.1968  11.9237 C.3            1 <1>                0.0000
      6 N6           0.0819 -16.5140  10.6627 N.4            1 <1>                1.0000
      7 C7           0.7078 -15.2280  11.0637 C.3            1 <1>                0.0000
      8 C8           1.5546 -15.6168  12.3016 C.3            1 <1>                0.0000
      9 C9           0.6650 -16.6606  13.0150 C.3            1 <1>                0.0000
     10 C10         -0.1392 -15.9965  14.1345 C.3            1 <1>                0.0000
     11 C11          1.5242 -17.7946  13.5777 C.3            1 <1>                0.0000
     12 H12         -0.9040 -21.2287  11.6488 H              1 <1>                0.0000
     13 H13          0.7312 -21.1587  12.3483 H              1 <1>                0.0000
     14 H14         -0.6707 -21.4895  13.3940 H              1 <1>                0.0000
     15 H15         -1.3151 -16.9745  12.1827 H              1 <1>                0.0000
     16 H16          1.3450 -14.8452  10.2665 H              1 <1>                0.0000
     17 H17         -0.0542 -14.4967  11.3331 H              1 <1>                0.0000
     18 H18          2.5020 -16.0613  11.9967 H              1 <1>                0.0000
     19 H19          1.7220 -14.7507  12.9419 H              1 <1>                0.0000
     20 H20         -0.7545 -15.1999  13.7164 H              1 <1>                0.0000
     21 H21         -0.7801 -16.7385  14.6109 H              1 <1>                0.0000
     22 H22          0.5439 -15.5781  14.8737 H              1 <1>                0.0000
     23 H23          2.2218 -17.3920  14.3121 H              1 <1>                0.0000
     24 H24          0.8817 -18.5348  14.0547 H              1 <1>                0.0000
     25 H25          2.0810 -18.2651  12.7674 H              1 <1>                0.0000
     26 H26          0.7397 -17.0731  10.1406 H              1 <1>                0.0000
     27 H27         -0.7450 -16.3413  10.1109 H              1 <1>                0.0000
@<TRIPOS>BOND
    1    1    2 1     
    2    1   12 1     
    3    1   13 1     
    4    1   14 1     
    5    2    3 1     
    6    3    4 2     
    7    3    5 1     
    8    5    6 1     
    9    5    9 1     
   10    5   15 1     
   11    6    7 1     
   12    6   26 1     
   13    6   27 1     
   14    7    8 1     
   15    7   16 1     
   16    7   17 1     
   17    8    9 1     
   18    8   18 1     
   19    8   19 1     
   20    9   10 1     
   21    9   11 1     
   22   10   20 1     
   23   10   21 1     
   24   10   22 1     
   25   11   23 1     
   26   11   24 1     
   27   11   25 1     
@<TRIPOS>SUBSTRUCTURE
      1 ****           1
@<TRIPOS>SET
DONOR_HYDROGENS      STATIC     ATOMS    <user>   **** ""
2 26 27
ATOM$RED        STATIC     ATOMS    COLORGROUP SYSTEM
2 26 27
@<TRIPOS>COMMENT
> <Gold.Version>
2022.2.0

> <Gold.Id.Protein>
3pbl|protein|mol2

> <Gold.Protein.RotatedTorsions>
[ 1303 1298 1297 1294 ] final   60.49 input  179.99 | X-H torsion
[ 2461 2456 2455 2452 ] final  171.79 input   30.03 | X-H torsion
[ 2515 2510 2509 2506 ] final  -28.54 input  -89.99 | X-H torsion
[ 3721 3712 3711 3710 ] final   -6.04 input -179.91 | X-H torsion
[ 3841 3832 3831 3830 ] final  -34.65 input -179.91 | X-H torsion
[ 3767 3762 3761 3758 ] final  -14.59 input  -89.99 | X-H torsion
[ 2472 2467 2466 2463 ] final   66.74 input  -89.97 | X-H torsion

> <Gold.Protein.ActiveResidues>
 VAL82   VAL86   LEU89   PHE106  VAL107  ASP110  VAL111  MET112  CYS114  THR115 
 CYS181  SER182  ILE183  PHE188  VAL189  ILE190  SER192  SER193  SER196  TRP342 
 PHE345  PHE346  HIS349  VAL350  TYR365  THR369  GLY372  TYR373 

> <Gold.Protein.RotatedAtoms>
    4.0147  -10.2693    4.6381 H   0  0  0  0  0  0  0  0  0  0  0  0  # atno 1303 bound_to 1298
    1.5762   -9.1673    8.3954 H   0  0  0  0  0  0  0  0  0  0  0  0  # atno 2461 bound_to 2456
   -4.7524   -4.8355    7.6694 H   0  0  0  0  0  0  0  0  0  0  0  0  # atno 2472 bound_to 2467
    2.7134   -8.0009    4.3891 H   0  0  0  0  0  0  0  0  0  0  0  0  # atno 2515 bound_to 2510
   -2.5019  -17.9178   14.3237 H   0  0  0  0  0  0  0  0  0  0  0  0  # atno 3721 bound_to 3712
   -5.4333  -22.5363   10.2596 H   0  0  0  0  0  0  0  0  0  0  0  0  # atno 3767 bound_to 3762
    1.5635  -20.0766    9.2986 H   0  0  0  0  0  0  0  0  0  0  0  0  # atno 3841 bound_to 3832
    3.4947   -8.9831    3.7770 LP  0  0  0  0  0  0  0  0  0  0  0  0  # atno 4297 bound_to 1298
    4.8528   -8.8685    4.6763 LP  0  0  0  0  0  0  0  0  0  0  0  0  # atno 4298 bound_to 1298
    1.8201   -7.9831    7.2975 LP  0  0  0  0  0  0  0  0  0  0  0  0  # atno 4299 bound_to 2456
    0.3415   -8.6579    7.4555 LP  0  0  0  0  0  0  0  0  0  0  0  0  # atno 4300 bound_to 2456
    2.5424   -9.2466    5.4307 LP  0  0  0  0  0  0  0  0  0  0  0  0  # atno 4301 bound_to 2510
    2.0408   -7.7518    5.8558 LP  0  0  0  0  0  0  0  0  0  0  0  0  # atno 4302 bound_to 2510
   -3.4740  -16.6408   14.3695 LP  0  0  0  0  0  0  0  0  0  0  0  0  # atno 4306 bound_to 3712
   -3.1652  -17.3991   12.9566 LP  0  0  0  0  0  0  0  0  0  0  0  0  # atno 4307 bound_to 3712
    2.6548  -19.8829    8.1377 LP  0  0  0  0  0  0  0  0  0  0  0  0  # atno 4314 bound_to 3832
    2.7684  -21.1309    9.1847 LP  0  0  0  0  0  0  0  0  0  0  0  0  # atno 4315 bound_to 3832
   -4.6456  -22.0588   11.6081 LP  0  0  0  0  0  0  0  0  0  0  0  0  # atno 4318 bound_to 3762
   -4.0487  -23.2800   10.7031 LP  0  0  0  0  0  0  0  0  0  0  0  0  # atno 4319 bound_to 3762
   -3.6853   -5.1482    8.8652 LP  0  0  0  0  0  0  0  0  0  0  0  0  # atno 4320 bound_to 2467
   -5.2793   -5.4098    9.1043 LP  0  0  0  0  0  0  0  0  0  0  0  0  # atno 4321 bound_to 2467

> <Gold.Score>
     Score     S(PLP)   S(hbond)     S(cho)   S(metal)  DE(clash)   DE(tors)     intcor
     33.22     -24.27       3.00       0.00       0.00       0.00       0.11       0.17

> <Gold.PLP.Fitness>
33.2175

> <Gold.PLP.PLP>
-24.2713

> <Gold.PLP.part.hbond>
-2.0000

> <Gold.PLP.part.metal>
0.0000

> <Gold.PLP.part.buried>
-3.6602

> <Gold.PLP.part.nonpolar>
-21.1637

> <Gold.PLP.part.repulsive>
1.1320

> <Gold.PLP.ligand.clash>
0.0000

> <Gold.PLP.ligand.torsion>
0.1097

> <Gold.PLP.Chemscore.Hbond>
3.0000

> <Gold.PLP.Chemscore.CHOScore>
0.0000

> <Gold.PLP.Chemscore.Metal>
0.0000

> <Gold.Chemscore.Hbonds>
donor molecule, donor type, donor heavy atom, donor atom, acceptor molecule, acceptor atom, score
      L1  H     6    26       P1  1227  2.00
      P1  H  3832  3841       L1     4  1.00

> <Gold.PLP.Chemscore.Internal.Correction>
0.1656

