#       Name:                EN300-703997_i001
#       Creating user name   fsindt
#       Creation time:       Mon Feb 27 21:20:30 2023


#       File generated by GOLD software.
#

@<TRIPOS>MOLECULE
EN300-703997_i001|amine_3|mol2|817|dock18
    27    27     1
SMALL
USER_CHARGES


@<TRIPOS>ATOM
      1 C1          -0.3998 -14.5122  12.2946 C.3            1 <1>                0.0000
      2 O2          -0.2607 -15.9559  12.3640 O.3            1 <1>                0.0000
      3 C3           0.6082 -16.4418  13.2642 C.2            1 <1>                0.0000
      4 O4           0.9223 -15.7751  14.2218 O.2            1 <1>                0.0000
      5 C5           1.1922 -17.8189  13.0808 C.3            1 <1>                0.0000
      6 N6           0.8255 -18.3483  11.7494 N.4            1 <1>                1.0000
      7 C7           0.6259 -19.8084  11.9351 C.3            1 <1>                0.0000
      8 C8          -0.0864 -19.8970  13.3082 C.3            1 <1>                0.0000
      9 C9           0.6031 -18.7822  14.1278 C.3            1 <1>                0.0000
     10 C10          1.7182 -19.3721  14.9936 C.3            1 <1>                0.0000
     11 C11         -0.4209 -18.0551  15.0018 C.3            1 <1>                0.0000
     12 H12         -0.7353 -14.1328  13.2598 H              1 <1>                0.0000
     13 H13          0.5624 -14.0660  12.0434 H              1 <1>                0.0000
     14 H14         -1.1311 -14.2541  11.5287 H              1 <1>                0.0000
     15 H15          2.2770 -17.7780  13.1783 H              1 <1>                0.0000
     16 H16         -0.0077 -20.2135  11.1461 H              1 <1>                0.0000
     17 H17          1.5841 -20.3271  11.9647 H              1 <1>                0.0000
     18 H18         -1.1525 -19.6954  13.2034 H              1 <1>                0.0000
     19 H19          0.0797 -20.8718  13.7668 H              1 <1>                0.0000
     20 H20          2.4451 -19.8756  14.3562 H              1 <1>                0.0000
     21 H21          2.2115 -18.5719  15.5455 H              1 <1>                0.0000
     22 H22          1.2925 -20.0889  15.6957 H              1 <1>                0.0000
     23 H23         -0.8653 -18.7604  15.7041 H              1 <1>                0.0000
     24 H24          0.0745 -17.2563  15.5537 H              1 <1>                0.0000
     25 H25         -1.2013 -17.6306  14.3703 H              1 <1>                0.0000
     26 H26         -0.0286 -17.9187  11.4272 H              1 <1>                0.0000
     27 H27          1.5711 -18.1801  11.0907 H              1 <1>                0.0000
@<TRIPOS>BOND
    1    1    2 1     
    2    1   12 1     
    3    1   13 1     
    4    1   14 1     
    5    2    3 1     
    6    3    4 2     
    7    3    5 1     
    8    5    6 1     
    9    5    9 1     
   10    5   15 1     
   11    6    7 1     
   12    6   26 1     
   13    6   27 1     
   14    7    8 1     
   15    7   16 1     
   16    7   17 1     
   17    8    9 1     
   18    8   18 1     
   19    8   19 1     
   20    9   10 1     
   21    9   11 1     
   22   10   20 1     
   23   10   21 1     
   24   10   22 1     
   25   11   23 1     
   26   11   24 1     
   27   11   25 1     
@<TRIPOS>SUBSTRUCTURE
      1 ****           1
@<TRIPOS>SET
DONOR_HYDROGENS      STATIC     ATOMS    <user>   **** ""
2 26 27
ATOM$RED        STATIC     ATOMS    COLORGROUP SYSTEM
2 26 27
@<TRIPOS>COMMENT
> <Gold.Version>
2022.2.0

> <Gold.Id.Protein>
3pbl|protein|mol2

> <Gold.Protein.RotatedTorsions>
[ 1303 1298 1297 1294 ] final  139.55 input  179.99 | X-H torsion
[ 2461 2456 2455 2452 ] final   -5.24 input   30.03 | X-H torsion
[ 2515 2510 2509 2506 ] final  179.13 input  -89.99 | X-H torsion
[ 3721 3712 3711 3710 ] final -101.71 input -179.91 | X-H torsion
[ 3841 3832 3831 3830 ] final  -33.36 input -179.91 | X-H torsion
[ 3767 3762 3761 3758 ] final -164.50 input  -89.99 | X-H torsion
[ 2472 2467 2466 2463 ] final  -45.25 input  -89.97 | X-H torsion

> <Gold.Protein.ActiveResidues>
 VAL82   VAL86   LEU89   PHE106  VAL107  ASP110  VAL111  MET112  CYS114  THR115 
 CYS181  SER182  ILE183  PHE188  VAL189  ILE190  SER192  SER193  SER196  TRP342 
 PHE345  PHE346  HIS349  VAL350  TYR365  THR369  GLY372  TYR373 

> <Gold.Protein.RotatedAtoms>
    4.8702   -9.4786    4.9258 H   0  0  0  0  0  0  0  0  0  0  0  0  # atno 1303 bound_to 1298
    0.9604   -8.0186    7.0329 H   0  0  0  0  0  0  0  0  0  0  0  0  # atno 2461 bound_to 2456
   -3.6514   -5.1026    8.7466 H   0  0  0  0  0  0  0  0  0  0  0  0  # atno 2472 bound_to 2467
    2.3178   -9.0277    5.8516 H   0  0  0  0  0  0  0  0  0  0  0  0  # atno 2515 bound_to 2510
   -3.1071  -16.8192   14.5980 H   0  0  0  0  0  0  0  0  0  0  0  0  # atno 3721 bound_to 3712
   -4.2548  -22.3477   11.6354 H   0  0  0  0  0  0  0  0  0  0  0  0  # atno 3767 bound_to 3762
    1.5651  -20.0915    9.3109 H   0  0  0  0  0  0  0  0  0  0  0  0  # atno 3841 bound_to 3832
    3.5270  -10.0940    4.2305 LP  0  0  0  0  0  0  0  0  0  0  0  0  # atno 4297 bound_to 1298
    3.9646   -8.5487    3.9350 LP  0  0  0  0  0  0  0  0  0  0  0  0  # atno 4298 bound_to 1298
    0.6355   -9.2063    8.1059 LP  0  0  0  0  0  0  0  0  0  0  0  0  # atno 4299 bound_to 2456
    2.1418   -8.5831    8.0091 LP  0  0  0  0  0  0  0  0  0  0  0  0  # atno 4300 bound_to 2456
    2.1542   -7.4572    5.4363 LP  0  0  0  0  0  0  0  0  0  0  0  0  # atno 4301 bound_to 2510
    2.8247   -8.5138    4.3871 LP  0  0  0  0  0  0  0  0  0  0  0  0  # atno 4302 bound_to 2510
   -3.3325  -17.0952   13.0325 LP  0  0  0  0  0  0  0  0  0  0  0  0  # atno 4306 bound_to 3712
   -2.6080  -18.2131   13.9769 LP  0  0  0  0  0  0  0  0  0  0  0  0  # atno 4307 bound_to 3712
    2.6374  -19.8704    8.1373 LP  0  0  0  0  0  0  0  0  0  0  0  0  # atno 4314 bound_to 3832
    2.7841  -21.1262    9.1708 LP  0  0  0  0  0  0  0  0  0  0  0  0  # atno 4315 bound_to 3832
   -4.3635  -23.3303   10.3356 LP  0  0  0  0  0  0  0  0  0  0  0  0  # atno 4318 bound_to 3762
   -5.5089  -22.1969   10.6004 LP  0  0  0  0  0  0  0  0  0  0  0  0  # atno 4319 bound_to 3762
   -5.1865   -5.4323    9.1951 LP  0  0  0  0  0  0  0  0  0  0  0  0  # atno 4320 bound_to 2467
   -4.8788   -4.8587    7.6975 LP  0  0  0  0  0  0  0  0  0  0  0  0  # atno 4321 bound_to 2467

> <Gold.Score>
     Score     S(PLP)   S(hbond)     S(cho)   S(metal)  DE(clash)   DE(tors)     intcor
     31.38     -23.22       3.00       0.00       0.00       0.00       0.50       0.17

> <Gold.PLP.Fitness>
31.3752

> <Gold.PLP.PLP>
-23.2179

> <Gold.PLP.part.hbond>
-2.0000

> <Gold.PLP.part.metal>
0.0000

> <Gold.PLP.part.buried>
-2.9027

> <Gold.PLP.part.nonpolar>
-18.2136

> <Gold.PLP.part.repulsive>
0.0955

> <Gold.PLP.ligand.clash>
0.0000

> <Gold.PLP.ligand.torsion>
0.5041

> <Gold.PLP.Chemscore.Hbond>
3.0000

> <Gold.PLP.Chemscore.CHOScore>
0.0000

> <Gold.PLP.Chemscore.Metal>
0.0000

> <Gold.Chemscore.Hbonds>
donor molecule, donor type, donor heavy atom, donor atom, acceptor molecule, acceptor atom, score
      L1  H     6    27       P1  1227  2.00
      P1  H  2305  2313       L1     4  1.00

> <Gold.PLP.Chemscore.Internal.Correction>
0.1656

