#       Name:                EN300-703997_i001
#       Creating user name   fsindt
#       Creation time:       Mon Feb 27 21:20:25 2023


#       File generated by GOLD software.
#

@<TRIPOS>MOLECULE
EN300-703997_i001|amine_3|mol2|817|dock8
    27    27     1
SMALL
USER_CHARGES


@<TRIPOS>ATOM
      1 C1           1.3808 -12.2364   7.0835 C.3            1 <1>                0.0000
      2 O2           0.4926 -12.5334   8.1930 O.3            1 <1>                0.0000
      3 C3          -0.4043 -11.5915   8.5245 C.2            1 <1>                0.0000
      4 O4          -0.3529 -10.5000   8.0089 O.2            1 <1>                0.0000
      5 C5          -1.4757 -11.8953   9.5399 C.3            1 <1>                0.0000
      6 N6          -2.7831 -11.4014   9.0559 N.4            1 <1>                1.0000
      7 C7          -3.5096 -10.9296  10.2625 C.3            1 <1>                0.0000
      8 C8          -2.3994 -10.2473  11.1006 C.3            1 <1>                0.0000
      9 C9          -1.1740 -11.1579  10.8576 C.3            1 <1>                0.0000
     10 C10         -1.0212 -12.1597  12.0039 C.3            1 <1>                0.0000
     11 C11          0.0946 -10.3143  10.7157 C.3            1 <1>                0.0000
     12 H12          0.7918 -12.0631   6.1828 H              1 <1>                0.0000
     13 H13          1.9640 -11.3446   7.3133 H              1 <1>                0.0000
     14 H14          2.0536 -13.0786   6.9211 H              1 <1>                0.0000
     15 H15         -1.5266 -12.9699   9.7154 H              1 <1>                0.0000
     16 H16         -4.2823 -10.2109   9.9897 H              1 <1>                0.0000
     17 H17         -3.9398 -11.7708  10.8060 H              1 <1>                0.0000
     18 H18         -2.2076  -9.2376  10.7375 H              1 <1>                0.0000
     19 H19         -2.6667 -10.2342  12.1572 H              1 <1>                0.0000
     20 H20         -1.9271 -12.7606  12.0843 H              1 <1>                0.0000
     21 H21         -0.1697 -12.8109  11.8063 H              1 <1>                0.0000
     22 H22         -0.8582 -11.6215  12.9376 H              1 <1>                0.0000
     23 H23          0.2675  -9.7601  11.6382 H              1 <1>                0.0000
     24 H24          0.9450 -10.9674  10.5194 H              1 <1>                0.0000
     25 H25         -0.0249  -9.6148   9.8884 H              1 <1>                0.0000
     26 H26         -2.6492 -10.6381   8.4098 H              1 <1>                0.0000
     27 H27         -3.2948 -12.1491   8.6118 H              1 <1>                0.0000
@<TRIPOS>BOND
    1    1    2 1     
    2    1   12 1     
    3    1   13 1     
    4    1   14 1     
    5    2    3 1     
    6    3    4 2     
    7    3    5 1     
    8    5    6 1     
    9    5    9 1     
   10    5   15 1     
   11    6    7 1     
   12    6   26 1     
   13    6   27 1     
   14    7    8 1     
   15    7   16 1     
   16    7   17 1     
   17    8    9 1     
   18    8   18 1     
   19    8   19 1     
   20    9   10 1     
   21    9   11 1     
   22   10   20 1     
   23   10   21 1     
   24   10   22 1     
   25   11   23 1     
   26   11   24 1     
   27   11   25 1     
@<TRIPOS>SUBSTRUCTURE
      1 ****           1
@<TRIPOS>SET
DONOR_HYDROGENS      STATIC     ATOMS    <user>   **** ""
2 26 27
ATOM$RED        STATIC     ATOMS    COLORGROUP SYSTEM
2 26 27
@<TRIPOS>COMMENT
> <Gold.Version>
2022.2.0

> <Gold.Id.Protein>
3pbl|protein|mol2

> <Gold.Protein.RotatedTorsions>
[ 1303 1298 1297 1294 ] final   86.07 input  179.99 | X-H torsion
[ 2461 2456 2455 2452 ] final -105.10 input   30.03 | X-H torsion
[ 2515 2510 2509 2506 ] final  130.59 input  -89.99 | X-H torsion
[ 3721 3712 3711 3710 ] final -119.22 input -179.91 | X-H torsion
[ 3841 3832 3831 3830 ] final  -46.53 input -179.91 | X-H torsion
[ 3767 3762 3761 3758 ] final  146.70 input  -89.99 | X-H torsion
[ 2472 2467 2466 2463 ] final  -58.57 input  -89.97 | X-H torsion

> <Gold.Protein.ActiveResidues>
 VAL82   VAL86   LEU89   PHE106  VAL107  ASP110  VAL111  MET112  CYS114  THR115 
 CYS181  SER182  ILE183  PHE188  VAL189  ILE190  SER192  SER193  SER196  TRP342 
 PHE345  PHE346  HIS349  VAL350  TYR365  THR369  GLY372  TYR373 

> <Gold.Protein.RotatedAtoms>
    4.3636  -10.1530    4.8354 H   0  0  0  0  0  0  0  0  0  0  0  0  # atno 1303 bound_to 1298
    0.4378   -9.0573    7.8881 H   0  0  0  0  0  0  0  0  0  0  0  0  # atno 2461 bound_to 2456
   -3.7171   -5.1796    8.9403 H   0  0  0  0  0  0  0  0  0  0  0  0  # atno 2472 bound_to 2467
    2.0666   -8.3361    6.0937 H   0  0  0  0  0  0  0  0  0  0  0  0  # atno 2515 bound_to 2510
   -3.2133  -16.6622   14.4146 H   0  0  0  0  0  0  0  0  0  0  0  0  # atno 3721 bound_to 3712
   -3.9121  -22.9347   11.2546 H   0  0  0  0  0  0  0  0  0  0  0  0  # atno 3767 bound_to 3762
    1.5679  -19.9445    9.1776 H   0  0  0  0  0  0  0  0  0  0  0  0  # atno 3841 bound_to 3832
    3.3471   -9.3708    3.8249 LP  0  0  0  0  0  0  0  0  0  0  0  0  # atno 4297 bound_to 1298
    4.6513   -8.5973    4.4311 LP  0  0  0  0  0  0  0  0  0  0  0  0  # atno 4298 bound_to 1298
    2.0224   -8.8203    8.2045 LP  0  0  0  0  0  0  0  0  0  0  0  0  # atno 4299 bound_to 2456
    1.2773   -7.9306    7.0556 LP  0  0  0  0  0  0  0  0  0  0  0  0  # atno 4300 bound_to 2456
    2.4675   -7.5307    4.7313 LP  0  0  0  0  0  0  0  0  0  0  0  0  # atno 4301 bound_to 2510
    2.7628   -9.1323    4.8499 LP  0  0  0  0  0  0  0  0  0  0  0  0  # atno 4302 bound_to 2510
   -3.1969  -17.3431   12.9607 LP  0  0  0  0  0  0  0  0  0  0  0  0  # atno 4306 bound_to 3712
   -2.6210  -18.1465   14.2605 LP  0  0  0  0  0  0  0  0  0  0  0  0  # atno 4307 bound_to 3712
    2.8057  -20.0098    8.1579 LP  0  0  0  0  0  0  0  0  0  0  0  0  # atno 4314 bound_to 3832
    2.6125  -21.1566    9.3043 LP  0  0  0  0  0  0  0  0  0  0  0  0  # atno 4315 bound_to 3832
   -5.0261  -23.0240   10.0638 LP  0  0  0  0  0  0  0  0  0  0  0  0  # atno 4318 bound_to 3762
   -5.1889  -21.9165   11.2528 LP  0  0  0  0  0  0  0  0  0  0  0  0  # atno 4319 bound_to 3762
   -5.3332   -5.3919    9.0382 LP  0  0  0  0  0  0  0  0  0  0  0  0  # atno 4320 bound_to 2467
   -4.6664   -4.8221    7.6607 LP  0  0  0  0  0  0  0  0  0  0  0  0  # atno 4321 bound_to 2467

> <Gold.Score>
     Score     S(PLP)   S(hbond)     S(cho)   S(metal)  DE(clash)   DE(tors)     intcor
     36.61     -34.22       1.00       0.00       0.00       0.01       0.38       0.17

> <Gold.PLP.Fitness>
36.6119

> <Gold.PLP.PLP>
-34.2153

> <Gold.PLP.part.hbond>
-1.0000

> <Gold.PLP.part.metal>
0.0000

> <Gold.PLP.part.buried>
-0.1504

> <Gold.PLP.part.nonpolar>
-34.4969

> <Gold.PLP.part.repulsive>
0.0297

> <Gold.PLP.ligand.clash>
0.0077

> <Gold.PLP.ligand.torsion>
0.3807

> <Gold.PLP.Chemscore.Hbond>
1.0000

> <Gold.PLP.Chemscore.CHOScore>
0.0000

> <Gold.PLP.Chemscore.Metal>
0.0000

> <Gold.Chemscore.Hbonds>
donor molecule, donor type, donor heavy atom, donor atom, acceptor molecule, acceptor atom, score
      P1  H  2456  2461       L1     4  1.00

> <Gold.PLP.Chemscore.Internal.Correction>
0.1656

