#       Name:                EN300-703997_i001
#       Creating user name   fsindt
#       Creation time:       Mon Feb 27 21:20:30 2023


#       File generated by GOLD software.
#

@<TRIPOS>MOLECULE
EN300-703997_i001|amine_3|mol2|817|dock19
    27    27     1
SMALL
USER_CHARGES


@<TRIPOS>ATOM
      1 C1          -1.6161 -11.4417  11.3426 C.3            1 <1>                0.0000
      2 O2          -0.6053 -12.0655  10.5074 O.3            1 <1>                0.0000
      3 C3          -0.3011 -11.4482   9.3550 C.2            1 <1>                0.0000
      4 O4          -0.9823 -10.5305   8.9631 O.2            1 <1>                0.0000
      5 C5           0.8901 -11.8998   8.5499 C.3            1 <1>                0.0000
      6 N6           1.0919 -10.9947   7.3978 N.4            1 <1>                1.0000
      7 C7           1.5775 -11.8540   6.2879 C.3            1 <1>                0.0000
      8 C8           0.7361 -13.1455   6.4453 C.3            1 <1>                0.0000
      9 C9           0.6348 -13.3071   7.9794 C.3            1 <1>                0.0000
     10 C10          1.6988 -14.2850   8.4818 C.3            1 <1>                0.0000
     11 C11         -0.7621 -13.7934   8.3709 C.3            1 <1>                0.0000
     12 H12         -1.2879 -10.4411  11.6241 H              1 <1>                0.0000
     13 H13         -2.5532 -11.3746  10.7900 H              1 <1>                0.0000
     14 H14         -1.7659 -12.0410  12.2406 H              1 <1>                0.0000
     15 H15          1.7813 -11.9064   9.1776 H              1 <1>                0.0000
     16 H16          1.3836 -11.3836   5.3240 H              1 <1>                0.0000
     17 H17          2.6395 -12.0701   6.4049 H              1 <1>                0.0000
     18 H18         -0.2526 -13.0177   6.0047 H              1 <1>                0.0000
     19 H19          1.2505 -13.9975   6.0008 H              1 <1>                0.0000
     20 H20          2.6878 -13.9189   8.2060 H              1 <1>                0.0000
     21 H21          1.6319 -14.3690   9.5665 H              1 <1>                0.0000
     22 H22          1.5349 -15.2637   8.0308 H              1 <1>                0.0000
     23 H23         -0.9476 -14.7679   7.9190 H              1 <1>                0.0000
     24 H24         -0.8266 -13.8779   9.4557 H              1 <1>                0.0000
     25 H25         -1.5073 -13.0811   8.0171 H              1 <1>                0.0000
     26 H26          0.2197 -10.5566   7.1425 H              1 <1>                0.0000
     27 H27          1.7821 -10.2938   7.6227 H              1 <1>                0.0000
@<TRIPOS>BOND
    1    1    2 1     
    2    1   12 1     
    3    1   13 1     
    4    1   14 1     
    5    2    3 1     
    6    3    4 2     
    7    3    5 1     
    8    5    6 1     
    9    5    9 1     
   10    5   15 1     
   11    6    7 1     
   12    6   26 1     
   13    6   27 1     
   14    7    8 1     
   15    7   16 1     
   16    7   17 1     
   17    8    9 1     
   18    8   18 1     
   19    8   19 1     
   20    9   10 1     
   21    9   11 1     
   22   10   20 1     
   23   10   21 1     
   24   10   22 1     
   25   11   23 1     
   26   11   24 1     
   27   11   25 1     
@<TRIPOS>SUBSTRUCTURE
      1 ****           1
@<TRIPOS>SET
DONOR_HYDROGENS      STATIC     ATOMS    <user>   **** ""
2 26 27
ATOM$RED        STATIC     ATOMS    COLORGROUP SYSTEM
2 26 27
@<TRIPOS>COMMENT
> <Gold.Version>
2022.2.0

> <Gold.Id.Protein>
3pbl|protein|mol2

> <Gold.Protein.RotatedTorsions>
[ 1303 1298 1297 1294 ] final    9.87 input  179.99 | X-H torsion
[ 2461 2456 2455 2452 ] final   35.24 input   30.03 | X-H torsion
[ 2515 2510 2509 2506 ] final   98.85 input  -89.99 | X-H torsion
[ 3721 3712 3711 3710 ] final  -31.84 input -179.91 | X-H torsion
[ 3841 3832 3831 3830 ] final   22.24 input -179.91 | X-H torsion
[ 3767 3762 3761 3758 ] final   52.73 input  -89.99 | X-H torsion
[ 2472 2467 2466 2463 ] final   34.46 input  -89.97 | X-H torsion

> <Gold.Protein.ActiveResidues>
 VAL82   VAL86   LEU89   PHE106  VAL107  ASP110  VAL111  MET112  CYS114  THR115 
 CYS181  SER182  ILE183  PHE188  VAL189  ILE190  SER192  SER193  SER196  TRP342 
 PHE345  PHE346  HIS349  VAL350  TYR365  THR369  GLY372  TYR373 

> <Gold.Protein.RotatedAtoms>
    3.4475   -9.9932    4.1368 H   0  0  0  0  0  0  0  0  0  0  0  0  # atno 1303 bound_to 1298
    1.5934   -7.9248    7.1601 H   0  0  0  0  0  0  0  0  0  0  0  0  # atno 2461 bound_to 2456
   -4.2330   -4.8006    7.7312 H   0  0  0  0  0  0  0  0  0  0  0  0  # atno 2472 bound_to 2467
    2.0316   -7.8493    5.9278 H   0  0  0  0  0  0  0  0  0  0  0  0  # atno 2515 bound_to 2510
   -2.6133  -17.6795   14.6070 H   0  0  0  0  0  0  0  0  0  0  0  0  # atno 3721 bound_to 3712
   -4.6703  -23.2412   10.1443 H   0  0  0  0  0  0  0  0  0  0  0  0  # atno 3767 bound_to 3762
    1.9695  -20.7177    9.6212 H   0  0  0  0  0  0  0  0  0  0  0  0  # atno 3841 bound_to 3832
    4.0974   -8.5007    4.0086 LP  0  0  0  0  0  0  0  0  0  0  0  0  # atno 4297 bound_to 1298
    4.8176   -9.6272    4.9462 LP  0  0  0  0  0  0  0  0  0  0  0  0  # atno 4298 bound_to 1298
    0.3389   -8.8503    7.6468 LP  0  0  0  0  0  0  0  0  0  0  0  0  # atno 4299 bound_to 2456
    1.8056   -9.0328    8.3411 LP  0  0  0  0  0  0  0  0  0  0  0  0  # atno 4300 bound_to 2456
    2.6738   -7.8926    4.4272 LP  0  0  0  0  0  0  0  0  0  0  0  0  # atno 4301 bound_to 2510
    2.5915   -9.2575    5.3199 LP  0  0  0  0  0  0  0  0  0  0  0  0  # atno 4302 bound_to 2510
   -3.5594  -16.5554   13.9595 LP  0  0  0  0  0  0  0  0  0  0  0  0  # atno 4306 bound_to 3712
   -2.9512  -17.7596   13.0395 LP  0  0  0  0  0  0  0  0  0  0  0  0  # atno 4307 bound_to 3712
    1.8269  -19.6442    8.4366 LP  0  0  0  0  0  0  0  0  0  0  0  0  # atno 4314 bound_to 3832
    3.1273  -20.6290    8.5131 LP  0  0  0  0  0  0  0  0  0  0  0  0  # atno 4315 bound_to 3832
   -5.4224  -22.0109   10.9108 LP  0  0  0  0  0  0  0  0  0  0  0  0  # atno 4318 bound_to 3762
   -4.0347  -22.6232   11.5158 LP  0  0  0  0  0  0  0  0  0  0  0  0  # atno 4319 bound_to 3762
   -3.9848   -5.3229    9.2583 LP  0  0  0  0  0  0  0  0  0  0  0  0  # atno 4320 bound_to 2467
   -5.4991   -5.2700    8.6494 LP  0  0  0  0  0  0  0  0  0  0  0  0  # atno 4321 bound_to 2467

> <Gold.Score>
     Score     S(PLP)   S(hbond)     S(cho)   S(metal)  DE(clash)   DE(tors)     intcor
     35.64     -34.69       0.38       0.00       0.00       0.00       0.18       0.16

> <Gold.PLP.Fitness>
35.6427

> <Gold.PLP.PLP>
-34.6898

> <Gold.PLP.part.hbond>
-1.6344

> <Gold.PLP.part.metal>
0.0000

> <Gold.PLP.part.buried>
-5.0616

> <Gold.PLP.part.nonpolar>
-28.8292

> <Gold.PLP.part.repulsive>
0.0155

> <Gold.PLP.ligand.clash>
0.0000

> <Gold.PLP.ligand.torsion>
0.1818

> <Gold.PLP.Chemscore.Hbond>
0.3840

> <Gold.PLP.Chemscore.CHOScore>
0.0000

> <Gold.PLP.Chemscore.Metal>
0.0000

> <Gold.Chemscore.Hbonds>
donor molecule, donor type, donor heavy atom, donor atom, acceptor molecule, acceptor atom, score
      L1  H     6    27       P1  2456  0.38

> <Gold.PLP.Chemscore.Internal.Correction>
0.1646

