#       Name:                EN300-703997_i001
#       Creating user name   fsindt
#       Creation time:       Mon Feb 27 21:20:25 2023


#       File generated by GOLD software.
#

@<TRIPOS>MOLECULE
EN300-703997_i001|amine_3|mol2|817|dock9
    27    27     1
SMALL
USER_CHARGES


@<TRIPOS>ATOM
      1 C1           0.2507 -14.5941   7.5052 C.3            1 <1>                0.0000
      2 O2          -0.3960 -13.3593   7.9120 O.3            1 <1>                0.0000
      3 C3           0.0417 -12.7865   9.0443 C.2            1 <1>                0.0000
      4 O4           0.7977 -13.3861   9.7716 O.2            1 <1>                0.0000
      5 C5          -0.4097 -11.3956   9.4084 C.3            1 <1>                0.0000
      6 N6           0.7463 -10.5944   9.8659 N.4            1 <1>                1.0000
      7 C7           0.2252  -9.7064  10.9365 C.3            1 <1>                0.0000
      8 C8          -0.7609 -10.6205  11.7064 C.3            1 <1>                0.0000
      9 C9          -1.4079 -11.4577  10.5793 C.3            1 <1>                0.0000
     10 C10         -2.7488 -10.8470  10.1670 C.3            1 <1>                0.0000
     11 C11         -1.6006 -12.9050  11.0367 C.3            1 <1>                0.0000
     12 H12          1.3142 -14.4131   7.3496 H              1 <1>                0.0000
     13 H13          0.1202 -15.3461   8.2833 H              1 <1>                0.0000
     14 H14         -0.1969 -14.9500   6.5772 H              1 <1>                0.0000
     15 H15         -0.8742 -10.9184   8.5455 H              1 <1>                0.0000
     16 H16          1.0331  -9.3760  11.5894 H              1 <1>                0.0000
     17 H17         -0.2977  -8.8518  10.5071 H              1 <1>                0.0000
     18 H18         -0.2256 -11.2630  12.4054 H              1 <1>                0.0000
     19 H19         -1.5128 -10.0260  12.2254 H              1 <1>                0.0000
     20 H20         -2.5933  -9.8213   9.8326 H              1 <1>                0.0000
     21 H21         -3.1803 -11.4323   9.3550 H              1 <1>                0.0000
     22 H22         -3.4280 -10.8522  11.0195 H              1 <1>                0.0000
     23 H23         -2.2698 -12.9282  11.8968 H              1 <1>                0.0000
     24 H24         -2.0333 -13.4883  10.2239 H              1 <1>                0.0000
     25 H25         -0.6361 -13.3295  11.3152 H              1 <1>                0.0000
     26 H26          1.4648 -11.1991  10.2345 H              1 <1>                0.0000
     27 H27          1.1110 -10.0431   9.1035 H              1 <1>                0.0000
@<TRIPOS>BOND
    1    1    2 1     
    2    1   12 1     
    3    1   13 1     
    4    1   14 1     
    5    2    3 1     
    6    3    4 2     
    7    3    5 1     
    8    5    6 1     
    9    5    9 1     
   10    5   15 1     
   11    6    7 1     
   12    6   26 1     
   13    6   27 1     
   14    7    8 1     
   15    7   16 1     
   16    7   17 1     
   17    8    9 1     
   18    8   18 1     
   19    8   19 1     
   20    9   10 1     
   21    9   11 1     
   22   10   20 1     
   23   10   21 1     
   24   10   22 1     
   25   11   23 1     
   26   11   24 1     
   27   11   25 1     
@<TRIPOS>SUBSTRUCTURE
      1 ****           1
@<TRIPOS>SET
DONOR_HYDROGENS      STATIC     ATOMS    <user>   **** ""
2 26 27
ATOM$RED        STATIC     ATOMS    COLORGROUP SYSTEM
2 26 27
@<TRIPOS>COMMENT
> <Gold.Version>
2022.2.0

> <Gold.Id.Protein>
3pbl|protein|mol2

> <Gold.Protein.RotatedTorsions>
[ 1303 1298 1297 1294 ] final    0.05 input  179.99 | X-H torsion
[ 2461 2456 2455 2452 ] final   29.33 input   30.03 | X-H torsion
[ 2515 2510 2509 2506 ] final -170.05 input  -89.99 | X-H torsion
[ 3721 3712 3711 3710 ] final -132.03 input -179.91 | X-H torsion
[ 3841 3832 3831 3830 ] final   38.76 input -179.91 | X-H torsion
[ 3767 3762 3761 3758 ] final  -62.91 input  -89.99 | X-H torsion
[ 2472 2467 2466 2463 ] final   81.51 input  -89.97 | X-H torsion

> <Gold.Protein.ActiveResidues>
 VAL82   VAL86   LEU89   PHE106  VAL107  ASP110  VAL111  MET112  CYS114  THR115 
 CYS181  SER182  ILE183  PHE188  VAL189  ILE190  SER192  SER193  SER196  TRP342 
 PHE345  PHE346  HIS349  VAL350  TYR365  THR369  GLY372  TYR373 

> <Gold.Protein.RotatedAtoms>
    3.3864   -9.8731    4.0478 H   0  0  0  0  0  0  0  0  0  0  0  0  # atno 1303 bound_to 1298
    1.5043   -7.9175    7.1218 H   0  0  0  0  0  0  0  0  0  0  0  0  # atno 2461 bound_to 2456
   -4.9811   -4.8838    7.7336 H   0  0  0  0  0  0  0  0  0  0  0  0  # atno 2472 bound_to 2467
    2.3925   -9.1299    5.7268 H   0  0  0  0  0  0  0  0  0  0  0  0  # atno 2515 bound_to 2510
   -3.2734  -16.5831   14.2488 H   0  0  0  0  0  0  0  0  0  0  0  0  # atno 3721 bound_to 3712
   -5.4480  -22.0392   10.8500 H   0  0  0  0  0  0  0  0  0  0  0  0  # atno 3767 bound_to 3762
    2.1812  -20.8476    9.6064 H   0  0  0  0  0  0  0  0  0  0  0  0  # atno 3841 bound_to 3832
    4.2327   -8.4774    4.0937 LP  0  0  0  0  0  0  0  0  0  0  0  0  # atno 4297 bound_to 1298
    4.7433   -9.7706    4.9503 LP  0  0  0  0  0  0  0  0  0  0  0  0  # atno 4298 bound_to 1298
    0.3563   -8.9149    7.7173 LP  0  0  0  0  0  0  0  0  0  0  0  0  # atno 4299 bound_to 2456
    1.8772   -8.9755    8.3088 LP  0  0  0  0  0  0  0  0  0  0  0  0  # atno 4300 bound_to 2456
    2.1042   -7.5285    5.5913 LP  0  0  0  0  0  0  0  0  0  0  0  0  # atno 4301 bound_to 2510
    2.8000   -8.3404    4.3570 LP  0  0  0  0  0  0  0  0  0  0  0  0  # atno 4302 bound_to 2510
   -3.0905  -17.5283   12.9639 LP  0  0  0  0  0  0  0  0  0  0  0  0  # atno 4306 bound_to 3712
   -2.6580  -18.0525   14.4487 LP  0  0  0  0  0  0  0  0  0  0  0  0  # atno 4307 bound_to 3712
    1.6302  -19.7100    8.6174 LP  0  0  0  0  0  0  0  0  0  0  0  0  # atno 4314 bound_to 3832
    3.0795  -20.4131    8.3494 LP  0  0  0  0  0  0  0  0  0  0  0  0  # atno 4315 bound_to 3832
   -4.0698  -22.5690   11.5476 LP  0  0  0  0  0  0  0  0  0  0  0  0  # atno 4318 bound_to 3762
   -4.6098  -23.2666   10.1735 LP  0  0  0  0  0  0  0  0  0  0  0  0  # atno 4319 bound_to 3762
   -3.6370   -5.0630    8.6435 LP  0  0  0  0  0  0  0  0  0  0  0  0  # atno 4320 bound_to 2467
   -5.0989   -5.4467    9.2619 LP  0  0  0  0  0  0  0  0  0  0  0  0  # atno 4321 bound_to 2467

> <Gold.Score>
     Score     S(PLP)   S(hbond)     S(cho)   S(metal)  DE(clash)   DE(tors)     intcor
     36.73     -34.43       1.00       0.00       0.00       0.00       0.43       0.17

> <Gold.PLP.Fitness>
36.7347

> <Gold.PLP.PLP>
-34.4273

> <Gold.PLP.part.hbond>
-1.0000

> <Gold.PLP.part.metal>
0.0000

> <Gold.PLP.part.buried>
-3.9644

> <Gold.PLP.part.nonpolar>
-30.5108

> <Gold.PLP.part.repulsive>
0.0229

> <Gold.PLP.ligand.clash>
0.0000

> <Gold.PLP.ligand.torsion>
0.4291

> <Gold.PLP.Chemscore.Hbond>
1.0000

> <Gold.PLP.Chemscore.CHOScore>
0.0000

> <Gold.PLP.Chemscore.Metal>
0.0000

> <Gold.Chemscore.Hbonds>
donor molecule, donor type, donor heavy atom, donor atom, acceptor molecule, acceptor atom, score
      L1  H     6    27       P1  2456  1.00

> <Gold.PLP.Chemscore.Internal.Correction>
0.1656

