#       Name:                EN300-703997_i001
#       Creating user name   fsindt
#       Creation time:       Mon Feb 27 21:20:29 2023


#       File generated by GOLD software.
#

@<TRIPOS>MOLECULE
EN300-703997_i001|amine_3|mol2|817|dock16
    27    27     1
SMALL
USER_CHARGES


@<TRIPOS>ATOM
      1 C1           0.7359 -14.6680   9.3458 C.3            1 <1>                0.0000
      2 O2           0.3740 -13.3559   9.8512 O.3            1 <1>                0.0000
      3 C3          -0.1990 -12.5059   8.9847 C.2            1 <1>                0.0000
      4 O4          -0.5007 -12.8838   7.8774 O.2            1 <1>                0.0000
      5 C5          -0.4662 -11.0800   9.3929 C.3            1 <1>                0.0000
      6 N6           0.7407 -10.5017  10.0226 N.4            1 <1>                1.0000
      7 C7           0.2457  -9.5955  11.0903 C.3            1 <1>                0.0000
      8 C8          -0.9529 -10.3742  11.6886 C.3            1 <1>                0.0000
      9 C9          -1.5894 -11.0373  10.4456 C.3            1 <1>                0.0000
     10 C10         -2.7621 -10.1965   9.9371 C.3            1 <1>                0.0000
     11 C11         -2.0570 -12.4550  10.7810 C.3            1 <1>                0.0000
     12 H12         -0.1573 -15.1770   8.9836 H              1 <1>                0.0000
     13 H13          1.4484 -14.5587   8.5281 H              1 <1>                0.0000
     14 H14          1.1884 -15.2536  10.1461 H              1 <1>                0.0000
     15 H15         -0.7484 -10.4909   8.5204 H              1 <1>                0.0000
     16 H16          1.0151  -9.4342  11.8453 H              1 <1>                0.0000
     17 H17         -0.0846  -8.6468  10.6673 H              1 <1>                0.0000
     18 H18         -0.6082 -11.1295  12.3948 H              1 <1>                0.0000
     19 H19         -1.6570  -9.6920  12.1648 H              1 <1>                0.0000
     20 H20         -2.4109  -9.1944   9.6912 H              1 <1>                0.0000
     21 H21         -3.1839 -10.6623   9.0464 H              1 <1>                0.0000
     22 H22         -3.5269 -10.1337  10.7112 H              1 <1>                0.0000
     23 H23         -2.8157 -12.4120  11.5625 H              1 <1>                0.0000
     24 H24         -2.4795 -12.9186   9.8896 H              1 <1>                0.0000
     25 H25         -1.2091 -13.0443  11.1298 H              1 <1>                0.0000
     26 H26          1.3088 -11.2331  10.4227 H              1 <1>                0.0000
     27 H27          1.2720  -9.9796   9.3419 H              1 <1>                0.0000
@<TRIPOS>BOND
    1    1    2 1     
    2    1   12 1     
    3    1   13 1     
    4    1   14 1     
    5    2    3 1     
    6    3    4 2     
    7    3    5 1     
    8    5    6 1     
    9    5    9 1     
   10    5   15 1     
   11    6    7 1     
   12    6   26 1     
   13    6   27 1     
   14    7    8 1     
   15    7   16 1     
   16    7   17 1     
   17    8    9 1     
   18    8   18 1     
   19    8   19 1     
   20    9   10 1     
   21    9   11 1     
   22   10   20 1     
   23   10   21 1     
   24   10   22 1     
   25   11   23 1     
   26   11   24 1     
   27   11   25 1     
@<TRIPOS>SUBSTRUCTURE
      1 ****           1
@<TRIPOS>SET
DONOR_HYDROGENS      STATIC     ATOMS    <user>   **** ""
2 26 27
ATOM$RED        STATIC     ATOMS    COLORGROUP SYSTEM
2 26 27
@<TRIPOS>COMMENT
> <Gold.Version>
2022.2.0

> <Gold.Id.Protein>
3pbl|protein|mol2

> <Gold.Protein.RotatedTorsions>
[ 1303 1298 1297 1294 ] final  172.69 input  179.99 | X-H torsion
[ 2461 2456 2455 2452 ] final   66.47 input   30.03 | X-H torsion
[ 2515 2510 2509 2506 ] final    2.08 input  -89.99 | X-H torsion
[ 3721 3712 3711 3710 ] final -108.98 input -179.91 | X-H torsion
[ 3841 3832 3831 3830 ] final   -3.70 input -179.91 | X-H torsion
[ 3767 3762 3761 3758 ] final -164.31 input  -89.99 | X-H torsion
[ 2472 2467 2466 2463 ] final  -10.82 input  -89.97 | X-H torsion

> <Gold.Protein.ActiveResidues>
 VAL82   VAL86   LEU89   PHE106  VAL107  ASP110  VAL111  MET112  CYS114  THR115 
 CYS181  SER182  ILE183  PHE188  VAL189  ILE190  SER192  SER193  SER196  TRP342 
 PHE345  PHE346  HIS349  VAL350  TYR365  THR369  GLY372  TYR373 

> <Gold.Protein.RotatedAtoms>
    4.8864   -8.9738    4.7412 H   0  0  0  0  0  0  0  0  0  0  0  0  # atno 1303 bound_to 1298
    1.9823   -8.0777    7.4486 H   0  0  0  0  0  0  0  0  0  0  0  0  # atno 2461 bound_to 2456
   -3.7123   -4.9204    8.2226 H   0  0  0  0  0  0  0  0  0  0  0  0  # atno 2472 bound_to 2467
    2.5268   -7.6078    4.6307 H   0  0  0  0  0  0  0  0  0  0  0  0  # atno 2515 bound_to 2510
   -3.1541  -16.7478   14.5289 H   0  0  0  0  0  0  0  0  0  0  0  0  # atno 3721 bound_to 3712
   -4.2570  -22.3456   11.6359 H   0  0  0  0  0  0  0  0  0  0  0  0  # atno 3767 bound_to 3762
    1.7061  -20.4442    9.5394 H   0  0  0  0  0  0  0  0  0  0  0  0  # atno 3841 bound_to 3832
    3.9096  -10.2704    4.5649 LP  0  0  0  0  0  0  0  0  0  0  0  0  # atno 4297 bound_to 1298
    3.5659   -8.8772    3.7854 LP  0  0  0  0  0  0  0  0  0  0  0  0  # atno 4298 bound_to 1298
    0.4068   -8.4828    7.3033 LP  0  0  0  0  0  0  0  0  0  0  0  0  # atno 4299 bound_to 2456
    1.3490   -9.2475    8.3961 LP  0  0  0  0  0  0  0  0  0  0  0  0  # atno 4300 bound_to 2456
    2.7248   -9.1924    4.9706 LP  0  0  0  0  0  0  0  0  0  0  0  0  # atno 4301 bound_to 2510
    2.0451   -8.1992    6.0743 LP  0  0  0  0  0  0  0  0  0  0  0  0  # atno 4302 bound_to 2510
   -3.2783  -17.1961   12.9922 LP  0  0  0  0  0  0  0  0  0  0  0  0  # atno 4306 bound_to 3712
   -2.6080  -18.1945   14.0969 LP  0  0  0  0  0  0  0  0  0  0  0  0  # atno 4307 bound_to 3712
    2.2004  -19.6664    8.2252 LP  0  0  0  0  0  0  0  0  0  0  0  0  # atno 4314 bound_to 3832
    3.0582  -20.9228    8.8190 LP  0  0  0  0  0  0  0  0  0  0  0  0  # atno 4315 bound_to 3832
   -4.3611  -23.3306   10.3376 LP  0  0  0  0  0  0  0  0  0  0  0  0  # atno 4318 bound_to 3762
   -5.5091  -22.1988   10.5979 LP  0  0  0  0  0  0  0  0  0  0  0  0  # atno 4319 bound_to 3762
   -4.6783   -5.4589    9.4240 LP  0  0  0  0  0  0  0  0  0  0  0  0  # atno 4320 bound_to 2467
   -5.3262   -5.0142    7.9925 LP  0  0  0  0  0  0  0  0  0  0  0  0  # atno 4321 bound_to 2467

> <Gold.Score>
     Score     S(PLP)   S(hbond)     S(cho)   S(metal)  DE(clash)   DE(tors)     intcor
     34.82     -33.35       0.61       0.00       0.00       0.00       0.26       0.17

> <Gold.PLP.Fitness>
34.8245

> <Gold.PLP.PLP>
-33.3476

> <Gold.PLP.part.hbond>
-1.0000

> <Gold.PLP.part.metal>
0.0000

> <Gold.PLP.part.buried>
-2.8311

> <Gold.PLP.part.nonpolar>
-29.7613

> <Gold.PLP.part.repulsive>
0.0106

> <Gold.PLP.ligand.clash>
0.0000

> <Gold.PLP.ligand.torsion>
0.2614

> <Gold.PLP.Chemscore.Hbond>
0.6113

> <Gold.PLP.Chemscore.CHOScore>
0.0000

> <Gold.PLP.Chemscore.Metal>
0.0000

> <Gold.Chemscore.Hbonds>
donor molecule, donor type, donor heavy atom, donor atom, acceptor molecule, acceptor atom, score
      L1  H     6    27       P1  2456  0.61

> <Gold.PLP.Chemscore.Internal.Correction>
0.1656

