#       Name:                EN300-703997_i001
#       Creating user name   fsindt
#       Creation time:       Mon Feb 27 21:20:27 2023


#       File generated by GOLD software.
#

@<TRIPOS>MOLECULE
EN300-703997_i001|amine_3|mol2|817|dock14
    27    27     1
SMALL
USER_CHARGES


@<TRIPOS>ATOM
      1 C1          -0.7019 -21.6414  12.0133 C.3            1 <1>                0.0000
      2 O2          -0.5045 -20.2342  12.3119 O.3            1 <1>                0.0000
      3 C3           0.7341 -19.7441  12.1467 C.2            1 <1>                0.0000
      4 O4           1.6045 -20.4442  11.6860 O.2            1 <1>                0.0000
      5 C5           1.0393 -18.3205  12.5358 C.3            1 <1>                0.0000
      6 N6           2.4240 -17.9774  12.1456 N.4            1 <1>                1.0000
      7 C7           2.9304 -17.0692  13.2062 C.3            1 <1>                0.0000
      8 C8           2.3510 -17.6835  14.5052 C.3            1 <1>                0.0000
      9 C9           0.9490 -18.1638  14.0651 C.3            1 <1>                0.0000
     10 C10         -0.1087 -17.1205  14.4306 C.3            1 <1>                0.0000
     11 C11          0.6189 -19.5076  14.7181 C.3            1 <1>                0.0000
     12 H12         -0.4489 -21.8305  10.9701 H              1 <1>                0.0000
     13 H13         -0.0605 -22.2430  12.6574 H              1 <1>                0.0000
     14 H14         -1.7444 -21.9072  12.1883 H              1 <1>                0.0000
     15 H15          0.3374 -17.6439  12.0482 H              1 <1>                0.0000
     16 H16          4.0200 -17.0757  13.2303 H              1 <1>                0.0000
     17 H17          2.5539 -16.0570  13.0581 H              1 <1>                0.0000
     18 H18          2.9594 -18.5240  14.8392 H              1 <1>                0.0000
     19 H19          2.2720 -16.9283  15.2872 H              1 <1>                0.0000
     20 H20          0.1336 -16.1734  13.9486 H              1 <1>                0.0000
     21 H21         -1.0872 -17.4609  14.0914 H              1 <1>                0.0000
     22 H22         -0.1262 -16.9840  15.5118 H              1 <1>                0.0000
     23 H23          0.6077 -19.3919  15.8019 H              1 <1>                0.0000
     24 H24         -0.3603 -19.8455  14.3787 H              1 <1>                0.0000
     25 H25          1.3738 -20.2425  14.4388 H              1 <1>                0.0000
     26 H26          2.9901 -18.8114  12.1022 H              1 <1>                0.0000
     27 H27          2.4273 -17.5062  11.2533 H              1 <1>                0.0000
@<TRIPOS>BOND
    1    1    2 1     
    2    1   12 1     
    3    1   13 1     
    4    1   14 1     
    5    2    3 1     
    6    3    4 2     
    7    3    5 1     
    8    5    6 1     
    9    5    9 1     
   10    5   15 1     
   11    6    7 1     
   12    6   26 1     
   13    6   27 1     
   14    7    8 1     
   15    7   16 1     
   16    7   17 1     
   17    8    9 1     
   18    8   18 1     
   19    8   19 1     
   20    9   10 1     
   21    9   11 1     
   22   10   20 1     
   23   10   21 1     
   24   10   22 1     
   25   11   23 1     
   26   11   24 1     
   27   11   25 1     
@<TRIPOS>SUBSTRUCTURE
      1 ****           1
@<TRIPOS>SET
DONOR_HYDROGENS      STATIC     ATOMS    <user>   **** ""
2 26 27
ATOM$RED        STATIC     ATOMS    COLORGROUP SYSTEM
2 26 27
@<TRIPOS>COMMENT
> <Gold.Version>
2022.2.0

> <Gold.Id.Protein>
3pbl|protein|mol2

> <Gold.Protein.RotatedTorsions>
[ 1303 1298 1297 1294 ] final  -42.78 input  179.99 | X-H torsion
[ 2461 2456 2455 2452 ] final  110.49 input   30.03 | X-H torsion
[ 2515 2510 2509 2506 ] final  -14.00 input  -89.99 | X-H torsion
[ 3721 3712 3711 3710 ] final  -31.93 input -179.91 | X-H torsion
[ 3841 3832 3831 3830 ] final    9.72 input -179.91 | X-H torsion
[ 3767 3762 3761 3758 ] final   66.19 input  -89.99 | X-H torsion
[ 2472 2467 2466 2463 ] final  126.15 input  -89.97 | X-H torsion

> <Gold.Protein.ActiveResidues>
 VAL82   VAL86   LEU89   PHE106  VAL107  ASP110  VAL111  MET112  CYS114  THR115 
 CYS181  SER182  ILE183  PHE188  VAL189  ILE190  SER192  SER193  SER196  TRP342 
 PHE345  PHE346  HIS349  VAL350  TYR365  THR369  GLY372  TYR373 

> <Gold.Protein.RotatedAtoms>
    3.3817   -9.2326    3.7960 H   0  0  0  0  0  0  0  0  0  0  0  0  # atno 1303 bound_to 1298
    2.1535   -8.5320    7.9623 H   0  0  0  0  0  0  0  0  0  0  0  0  # atno 2461 bound_to 2456
   -5.4562   -5.1109    8.2188 H   0  0  0  0  0  0  0  0  0  0  0  0  # atno 2472 bound_to 2467
    2.6317   -7.7949    4.4775 H   0  0  0  0  0  0  0  0  0  0  0  0  # atno 2515 bound_to 2510
   -2.6138  -17.6785   14.6078 H   0  0  0  0  0  0  0  0  0  0  0  0  # atno 3721 bound_to 3712
   -4.4847  -23.3066   10.2452 H   0  0  0  0  0  0  0  0  0  0  0  0  # atno 3767 bound_to 3762
    1.8291  -20.5939    9.5973 H   0  0  0  0  0  0  0  0  0  0  0  0  # atno 3841 bound_to 3832
    4.7354   -8.6761    4.5200 LP  0  0  0  0  0  0  0  0  0  0  0  0  # atno 4297 bound_to 1298
    4.2454  -10.2127    4.7758 LP  0  0  0  0  0  0  0  0  0  0  0  0  # atno 4298 bound_to 1298
    0.8964   -8.0473    7.0391 LP  0  0  0  0  0  0  0  0  0  0  0  0  # atno 4299 bound_to 2456
    0.6881   -9.2289    8.1468 LP  0  0  0  0  0  0  0  0  0  0  0  0  # atno 4300 bound_to 2456
    2.6364   -9.2534    5.2114 LP  0  0  0  0  0  0  0  0  0  0  0  0  # atno 4301 bound_to 2510
    2.0285   -7.9511    5.9867 LP  0  0  0  0  0  0  0  0  0  0  0  0  # atno 4302 bound_to 2510
   -3.5595  -16.5554   13.9581 LP  0  0  0  0  0  0  0  0  0  0  0  0  # atno 4306 bound_to 3712
   -2.9505  -17.7608   13.0401 LP  0  0  0  0  0  0  0  0  0  0  0  0  # atno 4307 bound_to 3712
    2.0007  -19.6356    8.3213 LP  0  0  0  0  0  0  0  0  0  0  0  0  # atno 4314 bound_to 3832
    3.1157  -20.7806    8.6561 LP  0  0  0  0  0  0  0  0  0  0  0  0  # atno 4315 bound_to 3832
   -5.4883  -22.1109   10.7250 LP  0  0  0  0  0  0  0  0  0  0  0  0  # atno 4318 bound_to 3762
   -4.1543  -22.4578   11.6006 LP  0  0  0  0  0  0  0  0  0  0  0  0  # atno 4319 bound_to 3762
   -3.8591   -4.8540    7.9957 LP  0  0  0  0  0  0  0  0  0  0  0  0  # atno 4320 bound_to 2467
   -4.4018   -5.4287    9.4246 LP  0  0  0  0  0  0  0  0  0  0  0  0  # atno 4321 bound_to 2467

> <Gold.Score>
     Score     S(PLP)   S(hbond)     S(cho)   S(metal)  DE(clash)   DE(tors)     intcor
     35.17     -26.30       2.98       0.00       0.00       0.00       0.11       0.17

> <Gold.PLP.Fitness>
35.1727

> <Gold.PLP.PLP>
-26.3003

> <Gold.PLP.part.hbond>
-2.0000

> <Gold.PLP.part.metal>
0.0000

> <Gold.PLP.part.buried>
-3.7549

> <Gold.PLP.part.nonpolar>
-21.1532

> <Gold.PLP.part.repulsive>
0.0837

> <Gold.PLP.ligand.clash>
0.0000

> <Gold.PLP.ligand.torsion>
0.1095

> <Gold.PLP.Chemscore.Hbond>
2.9753

> <Gold.PLP.Chemscore.CHOScore>
0.0000

> <Gold.PLP.Chemscore.Metal>
0.0000

> <Gold.Chemscore.Hbonds>
donor molecule, donor type, donor heavy atom, donor atom, acceptor molecule, acceptor atom, score
      L1  H     6    27       P1  1227  1.98
      P1  H  3832  3841       L1     4  0.99

> <Gold.PLP.Chemscore.Internal.Correction>
0.1656

