#       Name:                EN300-703997_i001
#       Creating user name   fsindt
#       Creation time:       Mon Feb 27 21:20:26 2023


#       File generated by GOLD software.
#

@<TRIPOS>MOLECULE
EN300-703997_i001|amine_3|mol2|817|dock12
    27    27     1
SMALL
USER_CHARGES


@<TRIPOS>ATOM
      1 C1          -0.4051 -14.3811  12.2401 C.3            1 <1>                0.0000
      2 O2          -0.3740 -15.8318  12.2923 O.3            1 <1>                0.0000
      3 C3          -0.0112 -16.3921  13.4567 C.2            1 <1>                0.0000
      4 O4           0.3792 -15.6980  14.3655 O.2            1 <1>                0.0000
      5 C5          -0.0906 -17.8869  13.6308 C.3            1 <1>                0.0000
      6 N6          -0.6985 -18.2101  14.9398 N.4            1 <1>                1.0000
      7 C7          -0.0074 -19.4358  15.4157 C.3            1 <1>                0.0000
      8 C8           1.4652 -19.1976  14.9971 C.3            1 <1>                0.0000
      9 C9           1.3258 -18.4913  13.6290 C.3            1 <1>                0.0000
     10 C10          1.4696 -19.5041  12.4914 C.3            1 <1>                0.0000
     11 C11          2.3747 -17.3857  13.4930 C.3            1 <1>                0.0000
     12 H12         -1.1134 -14.0060  12.9788 H              1 <1>                0.0000
     13 H13          0.5882 -13.9883  12.4571 H              1 <1>                0.0000
     14 H14         -0.7135 -14.0598  11.2452 H              1 <1>                0.0000
     15 H15         -0.6846 -18.3230  12.8276 H              1 <1>                0.0000
     16 H16         -0.0895 -19.5278  16.4986 H              1 <1>                0.0000
     17 H17         -0.4094 -20.3204  14.9218 H              1 <1>                0.0000
     18 H18          1.9705 -18.5516  15.7150 H              1 <1>                0.0000
     19 H19          1.9938 -20.1448  14.8900 H              1 <1>                0.0000
     20 H20          0.7087 -20.2776  12.5953 H              1 <1>                0.0000
     21 H21          1.3435 -18.9966  11.5349 H              1 <1>                0.0000
     22 H22          2.4589 -19.9597  12.5333 H              1 <1>                0.0000
     23 H23          3.3720 -17.8228  13.5436 H              1 <1>                0.0000
     24 H24          2.2478 -16.8804  12.5355 H              1 <1>                0.0000
     25 H25          2.2517 -16.6665  14.3026 H              1 <1>                0.0000
     26 H26         -0.5496 -17.4524  15.5892 H              1 <1>                0.0000
     27 H27         -1.6857 -18.3875  14.8306 H              1 <1>                0.0000
@<TRIPOS>BOND
    1    1    2 1     
    2    1   12 1     
    3    1   13 1     
    4    1   14 1     
    5    2    3 1     
    6    3    4 2     
    7    3    5 1     
    8    5    6 1     
    9    5    9 1     
   10    5   15 1     
   11    6    7 1     
   12    6   26 1     
   13    6   27 1     
   14    7    8 1     
   15    7   16 1     
   16    7   17 1     
   17    8    9 1     
   18    8   18 1     
   19    8   19 1     
   20    9   10 1     
   21    9   11 1     
   22   10   20 1     
   23   10   21 1     
   24   10   22 1     
   25   11   23 1     
   26   11   24 1     
   27   11   25 1     
@<TRIPOS>SUBSTRUCTURE
      1 ****           1
@<TRIPOS>SET
DONOR_HYDROGENS      STATIC     ATOMS    <user>   **** ""
2 26 27
ATOM$RED        STATIC     ATOMS    COLORGROUP SYSTEM
2 26 27
@<TRIPOS>COMMENT
> <Gold.Version>
2022.2.0

> <Gold.Id.Protein>
3pbl|protein|mol2

> <Gold.Protein.RotatedTorsions>
[ 1303 1298 1297 1294 ] final  -76.72 input  179.99 | X-H torsion
[ 2461 2456 2455 2452 ] final   12.82 input   30.03 | X-H torsion
[ 2515 2510 2509 2506 ] final   82.02 input  -89.99 | X-H torsion
[ 3721 3712 3711 3710 ] final  112.49 input -179.91 | X-H torsion
[ 3841 3832 3831 3830 ] final  -70.00 input -179.91 | X-H torsion
[ 3767 3762 3761 3758 ] final  144.81 input  -89.99 | X-H torsion
[ 2472 2467 2466 2463 ] final -150.23 input  -89.97 | X-H torsion

> <Gold.Protein.ActiveResidues>
 VAL82   VAL86   LEU89   PHE106  VAL107  ASP110  VAL111  MET112  CYS114  THR115 
 CYS181  SER182  ILE183  PHE188  VAL189  ILE190  SER192  SER193  SER196  TRP342 
 PHE345  PHE346  HIS349  VAL350  TYR365  THR369  GLY372  TYR373 

> <Gold.Protein.RotatedAtoms>
    3.6655   -8.7614    3.8104 H   0  0  0  0  0  0  0  0  0  0  0  0  # atno 1303 bound_to 1298
    1.2440   -7.9358    7.0492 H   0  0  0  0  0  0  0  0  0  0  0  0  # atno 2461 bound_to 2456
   -4.9819   -5.4591    9.3297 H   0  0  0  0  0  0  0  0  0  0  0  0  # atno 2472 bound_to 2467
    2.0625   -7.6420    5.7485 H   0  0  0  0  0  0  0  0  0  0  0  0  # atno 2515 bound_to 2510
   -2.9527  -17.3318   13.0311 H   0  0  0  0  0  0  0  0  0  0  0  0  # atno 3721 bound_to 3712
   -3.9095  -22.9557   11.2317 H   0  0  0  0  0  0  0  0  0  0  0  0  # atno 3767 bound_to 3762
    1.6732  -19.7292    8.9195 H   0  0  0  0  0  0  0  0  0  0  0  0  # atno 3841 bound_to 3832
    4.9090   -9.1109    4.8094 LP  0  0  0  0  0  0  0  0  0  0  0  0  # atno 4297 bound_to 1298
    3.7878  -10.2492    4.4720 LP  0  0  0  0  0  0  0  0  0  0  0  0  # atno 4298 bound_to 1298
    0.4542   -9.0756    7.9120 LP  0  0  0  0  0  0  0  0  0  0  0  0  # atno 4299 bound_to 2456
    2.0395   -8.7965    8.1867 LP  0  0  0  0  0  0  0  0  0  0  0  0  # atno 4300 bound_to 2456
    2.7571   -8.1468    4.3598 LP  0  0  0  0  0  0  0  0  0  0  0  0  # atno 4301 bound_to 2510
    2.4773   -9.2106    5.5667 LP  0  0  0  0  0  0  0  0  0  0  0  0  # atno 4302 bound_to 2510
   -2.6524  -18.0658   14.4271 LP  0  0  0  0  0  0  0  0  0  0  0  0  # atno 4306 bound_to 3712
   -3.4664  -16.6507   14.3913 LP  0  0  0  0  0  0  0  0  0  0  0  0  # atno 4307 bound_to 3712
    3.0297  -20.3033    8.2820 LP  0  0  0  0  0  0  0  0  0  0  0  0  # atno 4314 bound_to 3832
    2.2668  -21.1118    9.4782 LP  0  0  0  0  0  0  0  0  0  0  0  0  # atno 4315 bound_to 3832
   -5.0502  -23.0043   10.0642 LP  0  0  0  0  0  0  0  0  0  0  0  0  # atno 4318 bound_to 3762
   -5.1674  -21.9152   11.2753 LP  0  0  0  0  0  0  0  0  0  0  0  0  # atno 4319 bound_to 3762
   -5.0981   -4.9175    7.7936 LP  0  0  0  0  0  0  0  0  0  0  0  0  # atno 4320 bound_to 2467
   -3.6370   -5.0170    8.5159 LP  0  0  0  0  0  0  0  0  0  0  0  0  # atno 4321 bound_to 2467

> <Gold.Score>
     Score     S(PLP)   S(hbond)     S(cho)   S(metal)  DE(clash)   DE(tors)     intcor
     31.95     -27.18       1.78       0.00       0.00       0.00       0.37       0.17

> <Gold.PLP.Fitness>
31.9504

> <Gold.PLP.PLP>
-27.1772

> <Gold.PLP.part.hbond>
-2.0000

> <Gold.PLP.part.metal>
0.0000

> <Gold.PLP.part.buried>
-3.7819

> <Gold.PLP.part.nonpolar>
-21.0177

> <Gold.PLP.part.repulsive>
0.1432

> <Gold.PLP.ligand.clash>
0.0000

> <Gold.PLP.ligand.torsion>
0.3722

> <Gold.PLP.Chemscore.Hbond>
1.7840

> <Gold.PLP.Chemscore.CHOScore>
0.0000

> <Gold.PLP.Chemscore.Metal>
0.0000

> <Gold.Chemscore.Hbonds>
donor molecule, donor type, donor heavy atom, donor atom, acceptor molecule, acceptor atom, score
      L1  H     6    27       P1  3712  0.78
      P1  H  2305  2313       L1     4  1.00

> <Gold.PLP.Chemscore.Internal.Correction>
0.1656

