#       Name:                EN300-703997_i001
#       Creating user name   fsindt
#       Creation time:       Mon Feb 27 21:20:24 2023


#       File generated by GOLD software.
#

@<TRIPOS>MOLECULE
EN300-703997_i001|amine_3|mol2|817|dock7
    27    27     1
SMALL
USER_CHARGES


@<TRIPOS>ATOM
      1 C1          -1.5965 -20.8421  13.2639 C.3            1 <1>                0.0000
      2 O2          -1.0573 -19.5185  13.0076 O.3            1 <1>                0.0000
      3 C3           0.2663 -19.4287  12.8038 C.2            1 <1>                0.0000
      4 O4           0.9448 -20.4284  12.7904 O.2            1 <1>                0.0000
      5 C5           0.9062 -18.0809  12.5917 C.3            1 <1>                0.0000
      6 N6           2.3397 -18.2490  12.2685 N.4            1 <1>                1.0000
      7 C7           3.0351 -17.0994  12.9018 C.3            1 <1>                0.0000
      8 C8           2.2984 -16.9416  14.2557 C.3            1 <1>                0.0000
      9 C9           0.8295 -17.2538  13.8884 C.3            1 <1>                0.0000
     10 C10          0.0555 -15.9565  13.6458 C.3            1 <1>                0.0000
     11 C11          0.1661 -18.0693  15.0000 C.3            1 <1>                0.0000
     12 H12         -1.3864 -21.4910  12.4137 H              1 <1>                0.0000
     13 H13         -1.1335 -21.2559  14.1598 H              1 <1>                0.0000
     14 H14         -2.6744 -20.7732  13.4107 H              1 <1>                0.0000
     15 H15          0.4021 -17.5541  11.7814 H              1 <1>                0.0000
     16 H16          4.0888 -17.3278  13.0616 H              1 <1>                0.0000
     17 H17          2.9229 -16.2005  12.2957 H              1 <1>                0.0000
     18 H18          2.6743 -17.6588  14.9853 H              1 <1>                0.0000
     19 H19          2.3940 -15.9224  14.6303 H              1 <1>                0.0000
     20 H20          0.5329 -15.3932  12.8440 H              1 <1>                0.0000
     21 H21         -0.9703 -16.1929  13.3630 H              1 <1>                0.0000
     22 H22          0.0526 -15.3592  14.5576 H              1 <1>                0.0000
     23 H23          0.1640 -17.4905  15.9236 H              1 <1>                0.0000
     24 H24         -0.8598 -18.3036  14.7158 H              1 <1>                0.0000
     25 H25          0.7212 -18.9948  15.1524 H              1 <1>                0.0000
     26 H26          2.6831 -19.1171  12.6512 H              1 <1>                0.0000
     27 H27          2.4755 -18.2300  11.2689 H              1 <1>                0.0000
@<TRIPOS>BOND
    1    1    2 1     
    2    1   12 1     
    3    1   13 1     
    4    1   14 1     
    5    2    3 1     
    6    3    4 2     
    7    3    5 1     
    8    5    6 1     
    9    5    9 1     
   10    5   15 1     
   11    6    7 1     
   12    6   26 1     
   13    6   27 1     
   14    7    8 1     
   15    7   16 1     
   16    7   17 1     
   17    8    9 1     
   18    8   18 1     
   19    8   19 1     
   20    9   10 1     
   21    9   11 1     
   22   10   20 1     
   23   10   21 1     
   24   10   22 1     
   25   11   23 1     
   26   11   24 1     
   27   11   25 1     
@<TRIPOS>SUBSTRUCTURE
      1 ****           1
@<TRIPOS>SET
DONOR_HYDROGENS      STATIC     ATOMS    <user>   **** ""
2 26 27
ATOM$RED        STATIC     ATOMS    COLORGROUP SYSTEM
2 26 27
@<TRIPOS>COMMENT
> <Gold.Version>
2022.2.0

> <Gold.Id.Protein>
3pbl|protein|mol2

> <Gold.Protein.RotatedTorsions>
[ 1303 1298 1297 1294 ] final -122.46 input  179.99 | X-H torsion
[ 2461 2456 2455 2452 ] final   58.71 input   30.03 | X-H torsion
[ 2515 2510 2509 2506 ] final    5.53 input  -89.99 | X-H torsion
[ 3721 3712 3711 3710 ] final  -17.45 input -179.91 | X-H torsion
[ 3841 3832 3831 3830 ] final   79.45 input -179.91 | X-H torsion
[ 3767 3762 3761 3758 ] final  -37.22 input  -89.99 | X-H torsion
[ 2472 2467 2466 2463 ] final  158.72 input  -89.97 | X-H torsion

> <Gold.Protein.ActiveResidues>
 VAL82   VAL86   LEU89   PHE106  VAL107  ASP110  VAL111  MET112  CYS114  THR115 
 CYS181  SER182  ILE183  PHE188  VAL189  ILE190  SER192  SER193  SER196  TRP342 
 PHE345  PHE346  HIS349  VAL350  TYR365  THR369  GLY372  TYR373 

> <Gold.Protein.RotatedAtoms>
    4.2665   -8.4758    4.1171 H   0  0  0  0  0  0  0  0  0  0  0  0  # atno 1303 bound_to 1298
    1.9020   -8.0228    7.3658 H   0  0  0  0  0  0  0  0  0  0  0  0  # atno 2461 bound_to 2456
   -5.4858   -5.2928    8.7144 H   0  0  0  0  0  0  0  0  0  0  0  0  # atno 2472 bound_to 2467
    2.5030   -7.5746    4.6701 H   0  0  0  0  0  0  0  0  0  0  0  0  # atno 2515 bound_to 2510
   -2.5423  -17.8258   14.4633 H   0  0  0  0  0  0  0  0  0  0  0  0  # atno 3721 bound_to 3712
   -5.5102  -22.2717   10.5067 H   0  0  0  0  0  0  0  0  0  0  0  0  # atno 3767 bound_to 3762
    2.7222  -20.9506    9.3636 H   0  0  0  0  0  0  0  0  0  0  0  0  # atno 3841 bound_to 3832
    4.7213   -9.8055    4.9485 LP  0  0  0  0  0  0  0  0  0  0  0  0  # atno 4297 bound_to 1298
    3.3743   -9.8404    4.0260 LP  0  0  0  0  0  0  0  0  0  0  0  0  # atno 4298 bound_to 1298
    0.3651   -8.5752    7.3810 LP  0  0  0  0  0  0  0  0  0  0  0  0  # atno 4299 bound_to 2456
    1.4709   -9.2100    8.4012 LP  0  0  0  0  0  0  0  0  0  0  0  0  # atno 4300 bound_to 2456
    2.7411   -9.1703    4.9209 LP  0  0  0  0  0  0  0  0  0  0  0  0  # atno 4301 bound_to 2510
    2.0527   -8.2546    6.0846 LP  0  0  0  0  0  0  0  0  0  0  0  0  # atno 4302 bound_to 2510
   -3.5227  -16.5830   14.1950 LP  0  0  0  0  0  0  0  0  0  0  0  0  # atno 4306 bound_to 3712
   -3.0700  -17.5632   12.9699 LP  0  0  0  0  0  0  0  0  0  0  0  0  # atno 4307 bound_to 3712
    1.3908  -20.0917    9.1073 LP  0  0  0  0  0  0  0  0  0  0  0  0  # atno 4314 bound_to 3832
    2.6940  -19.9125    8.1399 LP  0  0  0  0  0  0  0  0  0  0  0  0  # atno 4315 bound_to 3832
   -4.3429  -22.2675   11.6487 LP  0  0  0  0  0  0  0  0  0  0  0  0  # atno 4318 bound_to 3762
   -4.2746  -23.3357   10.4155 LP  0  0  0  0  0  0  0  0  0  0  0  0  # atno 4319 bound_to 3762
   -4.2990   -4.7986    7.7077 LP  0  0  0  0  0  0  0  0  0  0  0  0  # atno 4320 bound_to 2467
   -3.9323   -5.3022    9.2171 LP  0  0  0  0  0  0  0  0  0  0  0  0  # atno 4321 bound_to 2467

> <Gold.Score>
     Score     S(PLP)   S(hbond)     S(cho)   S(metal)  DE(clash)   DE(tors)     intcor
     33.32     -27.33       2.00       0.00       0.00       0.00       0.09       0.17

> <Gold.PLP.Fitness>
33.3211

> <Gold.PLP.PLP>
-27.3350

> <Gold.PLP.part.hbond>
-1.7884

> <Gold.PLP.part.metal>
0.0000

> <Gold.PLP.part.buried>
-4.3217

> <Gold.PLP.part.nonpolar>
-21.5545

> <Gold.PLP.part.repulsive>
0.0187

> <Gold.PLP.ligand.clash>
0.0000

> <Gold.PLP.ligand.torsion>
0.0898

> <Gold.PLP.Chemscore.Hbond>
2.0000

> <Gold.PLP.Chemscore.CHOScore>
0.0000

> <Gold.PLP.Chemscore.Metal>
0.0000

> <Gold.Chemscore.Hbonds>
donor molecule, donor type, donor heavy atom, donor atom, acceptor molecule, acceptor atom, score
      L1  H     6    27       P1  1227  2.00

> <Gold.PLP.Chemscore.Internal.Correction>
0.1656

