#       Name:                EN300-703997_i001
#       Creating user name   fsindt
#       Creation time:       Mon Feb 27 21:20:24 2023


#       File generated by GOLD software.
#

@<TRIPOS>MOLECULE
EN300-703997_i001|amine_3|mol2|817|dock6
    27    27     1
SMALL
USER_CHARGES


@<TRIPOS>ATOM
      1 C1          -2.8222 -10.6416   9.7946 C.3            1 <1>                0.0000
      2 O2          -1.6212 -10.8602   9.0084 O.3            1 <1>                0.0000
      3 C3          -0.7345 -11.7484   9.4844 C.2            1 <1>                0.0000
      4 O4          -0.9756 -12.3583  10.4992 O.2            1 <1>                0.0000
      5 C5           0.5617 -11.9850   8.7531 C.3            1 <1>                0.0000
      6 N6           0.7133 -10.9962   7.6637 N.4            1 <1>                1.0000
      7 C7           1.3917 -11.7156   6.5553 C.3            1 <1>                0.0000
      8 C8           0.7324 -13.1174   6.5866 C.3            1 <1>                0.0000
      9 C9           0.5482 -13.3791   8.0990 C.3            1 <1>                0.0000
     10 C10          1.7022 -14.2286   8.6353 C.3            1 <1>                0.0000
     11 C11         -0.7897 -14.0745   8.3585 C.3            1 <1>                0.0000
     12 H12         -3.3696 -11.5794   9.8902 H              1 <1>                0.0000
     13 H13         -2.5472 -10.2789  10.7850 H              1 <1>                0.0000
     14 H14         -3.4515  -9.9025   9.2988 H              1 <1>                0.0000
     15 H15          1.3990 -11.9050   9.4465 H              1 <1>                0.0000
     16 H16          1.2009 -11.2218   5.6025 H              1 <1>                0.0000
     17 H17          2.4628 -11.7900   6.7435 H              1 <1>                0.0000
     18 H18         -0.2314 -13.1017   6.0777 H              1 <1>                0.0000
     19 H19          1.3917 -13.8637   6.1435 H              1 <1>                0.0000
     20 H20          2.6463 -13.7147   8.4541 H              1 <1>                0.0000
     21 H21          1.5724 -14.3829   9.7066 H              1 <1>                0.0000
     22 H22          1.7101 -15.1930   8.1275 H              1 <1>                0.0000
     23 H23         -0.8036 -15.0376   7.8483 H              1 <1>                0.0000
     24 H24         -0.9170 -14.2291   9.4299 H              1 <1>                0.0000
     25 H25         -1.6016 -13.4522   7.9822 H              1 <1>                0.0000
     26 H26         -0.1922 -10.6683   7.3629 H              1 <1>                0.0000
     27 H27          1.2801 -10.2211   7.9738 H              1 <1>                0.0000
@<TRIPOS>BOND
    1    1    2 1     
    2    1   12 1     
    3    1   13 1     
    4    1   14 1     
    5    2    3 1     
    6    3    4 2     
    7    3    5 1     
    8    5    6 1     
    9    5    9 1     
   10    5   15 1     
   11    6    7 1     
   12    6   26 1     
   13    6   27 1     
   14    7    8 1     
   15    7   16 1     
   16    7   17 1     
   17    8    9 1     
   18    8   18 1     
   19    8   19 1     
   20    9   10 1     
   21    9   11 1     
   22   10   20 1     
   23   10   21 1     
   24   10   22 1     
   25   11   23 1     
   26   11   24 1     
   27   11   25 1     
@<TRIPOS>SUBSTRUCTURE
      1 ****           1
@<TRIPOS>SET
DONOR_HYDROGENS      STATIC     ATOMS    <user>   **** ""
2 26 27
ATOM$RED        STATIC     ATOMS    COLORGROUP SYSTEM
2 26 27
@<TRIPOS>COMMENT
> <Gold.Version>
2022.2.0

> <Gold.Id.Protein>
3pbl|protein|mol2

> <Gold.Protein.RotatedTorsions>
[ 1303 1298 1297 1294 ] final -103.43 input  179.99 | X-H torsion
[ 2461 2456 2455 2452 ] final   10.17 input   30.03 | X-H torsion
[ 2515 2510 2509 2506 ] final  148.64 input  -89.99 | X-H torsion
[ 3721 3712 3711 3710 ] final -137.19 input -179.91 | X-H torsion
[ 3841 3832 3831 3830 ] final -155.20 input -179.91 | X-H torsion
[ 3767 3762 3761 3758 ] final  -32.94 input  -89.99 | X-H torsion
[ 2472 2467 2466 2463 ] final  135.23 input  -89.97 | X-H torsion

> <Gold.Protein.ActiveResidues>
 VAL82   VAL86   LEU89   PHE106  VAL107  ASP110  VAL111  MET112  CYS114  THR115 
 CYS181  SER182  ILE183  PHE188  VAL189  ILE190  SER192  SER193  SER196  TRP342 
 PHE345  PHE346  HIS349  VAL350  TYR365  THR369  GLY372  TYR373 

> <Gold.Protein.RotatedAtoms>
    4.0050   -8.5314    3.9570 H   0  0  0  0  0  0  0  0  0  0  0  0  # atno 1303 bound_to 1298
    1.2018   -7.9440    7.0426 H   0  0  0  0  0  0  0  0  0  0  0  0  # atno 2461 bound_to 2456
   -5.4945   -5.1635    8.3532 H   0  0  0  0  0  0  0  0  0  0  0  0  # atno 2472 bound_to 2467
    2.1374   -8.6224    6.0722 H   0  0  0  0  0  0  0  0  0  0  0  0  # atno 2515 bound_to 2510
   -3.2925  -16.5610   14.1766 H   0  0  0  0  0  0  0  0  0  0  0  0  # atno 3721 bound_to 3712
   -5.5050  -22.3187   10.4546 H   0  0  0  0  0  0  0  0  0  0  0  0  # atno 3767 bound_to 3762
    2.6938  -19.7961    8.3476 H   0  0  0  0  0  0  0  0  0  0  0  0  # atno 3841 bound_to 3832
    4.8565   -9.5250    4.9337 LP  0  0  0  0  0  0  0  0  0  0  0  0  # atno 4297 bound_to 1298
    3.5007  -10.0652    4.2011 LP  0  0  0  0  0  0  0  0  0  0  0  0  # atno 4298 bound_to 1298
    0.4762   -9.0980    7.9421 LP  0  0  0  0  0  0  0  0  0  0  0  0  # atno 4299 bound_to 2456
    2.0597   -8.7660    8.1632 LP  0  0  0  0  0  0  0  0  0  0  0  0  # atno 4300 bound_to 2456
    2.3412   -7.4277    4.9781 LP  0  0  0  0  0  0  0  0  0  0  0  0  # atno 4301 bound_to 2510
    2.8183   -8.9489    4.6246 LP  0  0  0  0  0  0  0  0  0  0  0  0  # atno 4302 bound_to 2510
   -3.0473  -17.6013   12.9785 LP  0  0  0  0  0  0  0  0  0  0  0  0  # atno 4306 bound_to 3712
   -2.6791  -18.0051   14.5174 LP  0  0  0  0  0  0  0  0  0  0  0  0  # atno 4307 bound_to 3712
    2.7243  -21.1418    9.2218 LP  0  0  0  0  0  0  0  0  0  0  0  0  # atno 4314 bound_to 3832
    1.3933  -20.1960    9.1991 LP  0  0  0  0  0  0  0  0  0  0  0  0  # atno 4315 bound_to 3832
   -4.3970  -22.2227   11.6505 LP  0  0  0  0  0  0  0  0  0  0  0  0  # atno 4318 bound_to 3762
   -4.2256  -23.3335   10.4658 LP  0  0  0  0  0  0  0  0  0  0  0  0  # atno 4319 bound_to 3762
   -3.9641   -4.8284    7.8927 LP  0  0  0  0  0  0  0  0  0  0  0  0  # atno 4320 bound_to 2467
   -4.2584   -5.4016    9.3932 LP  0  0  0  0  0  0  0  0  0  0  0  0  # atno 4321 bound_to 2467

> <Gold.Score>
     Score     S(PLP)   S(hbond)     S(cho)   S(metal)  DE(clash)   DE(tors)     intcor
     36.00     -33.98       0.74       0.00       0.00       0.00       0.17       0.17

> <Gold.PLP.Fitness>
36.0038

> <Gold.PLP.PLP>
-33.9801

> <Gold.PLP.part.hbond>
-1.0000

> <Gold.PLP.part.metal>
0.0000

> <Gold.PLP.part.buried>
-3.7117

> <Gold.PLP.part.nonpolar>
-29.5870

> <Gold.PLP.part.repulsive>
0.0208

> <Gold.PLP.ligand.clash>
0.0009

> <Gold.PLP.ligand.torsion>
0.1745

> <Gold.PLP.Chemscore.Hbond>
0.7360

> <Gold.PLP.Chemscore.CHOScore>
0.0000

> <Gold.PLP.Chemscore.Metal>
0.0000

> <Gold.Chemscore.Hbonds>
donor molecule, donor type, donor heavy atom, donor atom, acceptor molecule, acceptor atom, score
      L1  H     6    27       P1  2456  0.74

> <Gold.PLP.Chemscore.Internal.Correction>
0.1656

