#       Name:                plp ligand
#       Creating user name   fsindt
#       Creation time:       Mon Feb 27 21:20:22 2023


#       File generated by GOLD software.
#

@<TRIPOS>MOLECULE
plp ligand
    27    27     1
SMALL
USER_CHARGES


@<TRIPOS>ATOM
      1 C1           3.6636  -0.0508  -0.0430 NONPOLAR       1 <1>                0.0000
      2 O2           2.3286  -0.2227  -0.5875 ACCEPTOR       1 <1>                0.0000
      3 C3           1.3804   0.6230  -0.1547 NONPOLAR       1 <1>                0.0000
      4 O4           1.6567   1.4787   0.6524 ACCEPTOR       1 <1>                0.0000
      5 C5          -0.0289   0.5053  -0.6754 NONPOLAR       1 <1>                0.0000
      6 N6          -0.7653   1.7632  -0.4247 DONOR          1 <1>                1.0000
      7 C7          -2.1630   1.3610  -0.1232 NONPOLAR       1 <1>                0.0000
      8 C8          -1.9868   0.0843   0.7368 NONPOLAR       1 <1>                0.0000
      9 C9          -0.7746  -0.6123   0.0771 NONPOLAR       1 <1>                0.0000
     10 C10         -1.2485  -1.6876  -0.9027 NONPOLAR       1 <1>                0.0000
     11 C11          0.1304  -1.2281   1.1461 NONPOLAR       1 <1>                0.0000
     12 H12          4.0289   0.9473  -0.2848                1 <1>                0.0000
     13 H13          3.6332  -0.1741   1.0396                1 <1>                0.0000
     14 H14          4.3310  -0.7965  -0.4750                1 <1>                0.0000
     15 H15         -0.0130   0.2909  -1.7440                1 <1>                0.0000
     16 H16         -2.6735   2.1394   0.4438                1 <1>                0.0000
     17 H17         -2.7048   1.1345  -1.0415                1 <1>                0.0000
     18 H18         -1.7660   0.3441   1.7721                1 <1>                0.0000
     19 H19         -2.8737  -0.5465   0.6770                1 <1>                0.0000
     20 H20         -1.8814  -1.2317  -1.6641                1 <1>                0.0000
     21 H21         -0.3846  -2.1517  -1.3786                1 <1>                0.0000
     22 H22         -1.8171  -2.4453  -0.3636                1 <1>                0.0000
     23 H23         -0.4261  -1.9819   1.7031                1 <1>                0.0000
     24 H24          0.9929  -1.6927   0.6682                1 <1>                0.0000
     25 H25          0.4692  -0.4486   1.8284                1 <1>                0.0000
     26 H26         -0.3654   2.2493   0.3638                1 <1>                0.0000
     27 H27         -0.7414   2.3498  -1.2453                1 <1>                0.0000
@<TRIPOS>BOND
    1    1    2 1     
    2    1   12 1     
    3    1   13 1     
    4    1   14 1     
    5    2    3 1     
    6    3    4 2     
    7    3    5 1     
    8    5    6 1     
    9    5    9 1     
   10    5   15 1     
   11    6    7 1     
   12    6   26 1     
   13    6   27 1     
   14    7    8 1     
   15    7   16 1     
   16    7   17 1     
   17    8    9 1     
   18    8   18 1     
   19    8   19 1     
   20    9   10 1     
   21    9   11 1     
   22   10   20 1     
   23   10   21 1     
   24   10   22 1     
   25   11   23 1     
   26   11   24 1     
   27   11   25 1     
@<TRIPOS>SUBSTRUCTURE
      1 ****           1
@<TRIPOS>SET
DONOR_HYDROGENS      STATIC     ATOMS    <user>   **** ""
2 26 27
ATOM$RED        STATIC     ATOMS    COLORGROUP SYSTEM
2 26 27
