#       Name:                EN300-92356_i001
#       Creating user name   aseyller
#       Creation time:       Fri Apr 21 17:13:53 2023


#       File generated by GOLD software.
#

@<TRIPOS>MOLECULE
EN300-92356_i001|benzaldehydes|mol2|205|dock20
    14    14     1
SMALL
USER_CHARGES


@<TRIPOS>ATOM
      1 C1          26.8086  36.3676  41.2145 C.3            1 <1>                0.0000
      2 N2          27.8587  36.3987  40.1934 N.pl3          1 <1>                0.0000
      3 C3          29.0901  35.8449  40.3286 C.2            1 <1>                0.0000
      4 C4          29.7646  36.0834  39.1793 C.2            1 <1>                0.0000
      5 Cl5         31.3877  35.6023  38.7946 Cl             1 <1>                0.0000
      6 C6          28.8665  36.8083  38.3557 C.2            1 <1>                0.0000
      7 C7          29.1314  37.3030  36.9977 C.2            1 <1>                0.0000
      8 O8          30.2059  37.0947  36.4753 O.2            1 <1>                0.0000
      9 N9          27.7446  36.9494  39.0383 N.2            1 <1>                0.0000
     10 H10         26.9020  37.2421  41.8585 H              1 <1>                0.0000
     11 H11         25.8316  36.3748  40.7314 H              1 <1>                0.0000
     12 H12         26.9111  35.4627  41.8135 H              1 <1>                0.0000
     13 H13         29.4626  35.3136  41.1920 H              1 <1>                0.0000
     14 H14         28.3692  37.8520  36.4647 H              1 <1>                0.0000
@<TRIPOS>BOND
    1    1    2 1     
    2    1   10 1     
    3    1   11 1     
    4    1   12 1     
    5    2    3 1     
    6    2    9 1     
    7    3    4 2     
    8    3   13 1     
    9    4    5 1     
   10    4    6 1     
   11    6    7 1     
   12    6    9 2     
   13    7    8 2     
   14    7   14 1     
@<TRIPOS>SUBSTRUCTURE
      1 ****           1
@<TRIPOS>COMMENT
> <Gold.Version>
2022.2.0

> <Gold.Id.Protein>
1qkm|1qkm_protein|mol2

> <Gold.Protein.RotatedTorsions>
[  496  491  490  487 ] final  -50.13 input  -89.99 | X-H torsion

> <Gold.Protein.ActiveResidues>
 MET295  LEU298  THR299  LEU301  ALA302  GLU305  TRP335  MET336  LEU339  MET340 
 GLY342  LEU343  ARG346  PHE356  ILE373  ILE376  PHE377  LEU380  LYS471  GLY472 
 MET473  HIS475  LEU476  LEU477  ASN478  MET479  VAL484  VAL487 

> <Gold.Protein.RotatedAtoms>
   36.4254   34.7047   41.6278 H   0  0  0  0  0  0  0  0  0  0  0  0  # atno 496  bound_to 491 

> <Gold.Score>
     Score     S(PLP)   S(hbond)     S(cho)   S(metal)  DE(clash)   DE(tors)     intcor
     29.65     -26.65       0.00       1.00       0.00       0.00       0.00       0.00

> <Gold.PLP.Fitness>
29.6467

> <Gold.PLP.PLP>
-26.6468

> <Gold.PLP.part.hbond>
0.0000

> <Gold.PLP.part.metal>
0.0000

> <Gold.PLP.part.buried>
-1.5939

> <Gold.PLP.part.nonpolar>
-25.3231

> <Gold.PLP.part.repulsive>
0.0000

> <Gold.PLP.ligand.clash>
0.0000

> <Gold.PLP.ligand.torsion>
0.0001

> <Gold.PLP.Chemscore.Hbond>
0.0000

> <Gold.PLP.Chemscore.CHOScore>
1.0000

> <Gold.PLP.Chemscore.Metal>
0.0000

> <Gold.Chemscore.Hbonds>
donor molecule, donor type, donor heavy atom, donor atom, acceptor molecule, acceptor atom, score
      L1  C     3    13       P1   470  1.00

> <Gold.PLP.Chemscore.Internal.Correction>
0.0000

