#       Name:                EN300-92356_i001
#       Creating user name   aseyller
#       Creation time:       Fri Apr 21 17:13:51 2023


#       File generated by GOLD software.
#

@<TRIPOS>MOLECULE
EN300-92356_i001|benzaldehydes|mol2|205|dock12
    14    14     1
SMALL
USER_CHARGES


@<TRIPOS>ATOM
      1 C1          32.7036  35.4797  37.4675 C.3            1 <1>                0.0000
      2 N2          31.4620  36.1020  37.9337 N.pl3          1 <1>                0.0000
      3 C3          30.8250  35.7922  39.0911 C.2            1 <1>                0.0000
      4 C4          29.7242  36.5767  39.1645 C.2            1 <1>                0.0000
      5 Cl5         28.5388  36.6077  40.4325 Cl             1 <1>                0.0000
      6 C6          29.7432  37.3682  37.9882 C.2            1 <1>                0.0000
      7 C7          28.7539  38.3837  37.6021 C.2            1 <1>                0.0000
      8 O8          29.0260  39.2019  36.7491 O.2            1 <1>                0.0000
      9 N9          30.8220  37.0238  37.3084 N.2            1 <1>                0.0000
     10 H10         32.4665  34.6066  36.8594 H              1 <1>                0.0000
     11 H11         33.2672  36.1963  36.8701 H              1 <1>                0.0000
     12 H12         33.3009  35.1730  38.3261 H              1 <1>                0.0000
     13 H13         31.1376  35.0567  39.8177 H              1 <1>                0.0000
     14 H14         27.7845  38.4016  38.0778 H              1 <1>                0.0000
@<TRIPOS>BOND
    1    1    2 1     
    2    1   10 1     
    3    1   11 1     
    4    1   12 1     
    5    2    3 1     
    6    2    9 1     
    7    3    4 2     
    8    3   13 1     
    9    4    5 1     
   10    4    6 1     
   11    6    7 1     
   12    6    9 2     
   13    7    8 2     
   14    7   14 1     
@<TRIPOS>SUBSTRUCTURE
      1 ****           1
@<TRIPOS>COMMENT
> <Gold.Version>
2022.2.0

> <Gold.Id.Protein>
1qkm|1qkm_protein|mol2

> <Gold.Protein.RotatedTorsions>
[  496  491  490  487 ] final   67.85 input  -89.99 | X-H torsion

> <Gold.Protein.ActiveResidues>
 MET295  LEU298  THR299  LEU301  ALA302  GLU305  TRP335  MET336  LEU339  MET340 
 GLY342  LEU343  ARG346  PHE356  ILE373  ILE376  PHE377  LEU380  LYS471  GLY472 
 MET473  HIS475  LEU476  LEU477  ASN478  MET479  VAL484  VAL487 

> <Gold.Protein.RotatedAtoms>
   36.6184   33.2240   42.2474 H   0  0  0  0  0  0  0  0  0  0  0  0  # atno 496  bound_to 491 

> <Gold.Score>
     Score     S(PLP)   S(hbond)     S(cho)   S(metal)  DE(clash)   DE(tors)     intcor
     31.39     -28.51       0.00       1.00       0.00       0.00       0.06       0.00

> <Gold.PLP.Fitness>
31.3868

> <Gold.PLP.PLP>
-28.5142

> <Gold.PLP.part.hbond>
0.0000

> <Gold.PLP.part.metal>
0.0000

> <Gold.PLP.part.buried>
-1.8153

> <Gold.PLP.part.nonpolar>
-26.2850

> <Gold.PLP.part.repulsive>
0.0000

> <Gold.PLP.ligand.clash>
0.0000

> <Gold.PLP.ligand.torsion>
0.0637

> <Gold.PLP.Chemscore.Hbond>
0.0000

> <Gold.PLP.Chemscore.CHOScore>
1.0000

> <Gold.PLP.Chemscore.Metal>
0.0000

> <Gold.Chemscore.Hbonds>
donor molecule, donor type, donor heavy atom, donor atom, acceptor molecule, acceptor atom, score
      L1  C     3    13       P1   470  1.00

> <Gold.PLP.Chemscore.Internal.Correction>
0.0000

