#       Name:                EN300-92356_i001
#       Creating user name   aseyller
#       Creation time:       Fri Apr 21 17:13:52 2023


#       File generated by GOLD software.
#

@<TRIPOS>MOLECULE
EN300-92356_i001|benzaldehydes|mol2|205|dock15
    14    14     1
SMALL
USER_CHARGES


@<TRIPOS>ATOM
      1 C1          31.7994  33.4413  38.6574 C.3            1 <1>                0.0000
      2 N2          31.7792  34.7040  37.9148 N.pl3          1 <1>                0.0000
      3 C3          32.5891  35.0021  36.8677 C.2            1 <1>                0.0000
      4 C4          32.2676  36.2510  36.4558 C.2            1 <1>                0.0000
      5 Cl5         32.9829  37.1433  35.1497 Cl             1 <1>                0.0000
      6 C6          31.2235  36.6769  37.3154 C.2            1 <1>                0.0000
      7 C7          30.5300  37.9716  37.2731 C.2            1 <1>                0.0000
      8 O8          30.7526  38.7495  36.3696 O.2            1 <1>                0.0000
      9 N9          30.9883  35.6868  38.1574 N.2            1 <1>                0.0000
     10 H10         32.4983  33.5206  39.4901 H              1 <1>                0.0000
     11 H11         30.8011  33.2287  39.0399 H              1 <1>                0.0000
     12 H12         32.1138  32.6351  37.9947 H              1 <1>                0.0000
     13 H13         33.3486  34.3627  36.4425 H              1 <1>                0.0000
     14 H14         29.8221  38.2306  38.0466 H              1 <1>                0.0000
@<TRIPOS>BOND
    1    1    2 1     
    2    1   10 1     
    3    1   11 1     
    4    1   12 1     
    5    2    3 1     
    6    2    9 1     
    7    3    4 2     
    8    3   13 1     
    9    4    5 1     
   10    4    6 1     
   11    6    7 1     
   12    6    9 2     
   13    7    8 2     
   14    7   14 1     
@<TRIPOS>SUBSTRUCTURE
      1 ****           1
@<TRIPOS>COMMENT
> <Gold.Version>
2022.2.0

> <Gold.Id.Protein>
1qkm|1qkm_protein|mol2

> <Gold.Protein.RotatedTorsions>
[  496  491  490  487 ] final  -50.64 input  -89.99 | X-H torsion

> <Gold.Protein.ActiveResidues>
 MET295  LEU298  THR299  LEU301  ALA302  GLU305  TRP335  MET336  LEU339  MET340 
 GLY342  LEU343  ARG346  PHE356  ILE373  ILE376  PHE377  LEU380  LYS471  GLY472 
 MET473  HIS475  LEU476  LEU477  ASN478  MET479  VAL484  VAL487 

> <Gold.Protein.RotatedAtoms>
   36.4289   34.7067   41.6204 H   0  0  0  0  0  0  0  0  0  0  0  0  # atno 496  bound_to 491 

> <Gold.Score>
     Score     S(PLP)   S(hbond)     S(cho)   S(metal)  DE(clash)   DE(tors)     intcor
     29.48     -29.51       0.00       0.00       0.00       0.00       0.01       0.00

> <Gold.PLP.Fitness>
29.4846

> <Gold.PLP.PLP>
-29.5054

> <Gold.PLP.part.hbond>
0.0000

> <Gold.PLP.part.metal>
0.0000

> <Gold.PLP.part.buried>
-2.6382

> <Gold.PLP.part.nonpolar>
-26.9903

> <Gold.PLP.part.repulsive>
0.0498

> <Gold.PLP.ligand.clash>
0.0000

> <Gold.PLP.ligand.torsion>
0.0104

> <Gold.PLP.Chemscore.Hbond>
0.0000

> <Gold.PLP.Chemscore.CHOScore>
0.0000

> <Gold.PLP.Chemscore.Metal>
0.0000

> <Gold.PLP.Chemscore.Internal.Correction>
0.0000

