#       Name:                EN300-92356_i001
#       Creating user name   aseyller
#       Creation time:       Fri Apr 21 17:13:51 2023


#       File generated by GOLD software.
#

@<TRIPOS>MOLECULE
EN300-92356_i001|benzaldehydes|mol2|205|dock11
    14    14     1
SMALL
USER_CHARGES


@<TRIPOS>ATOM
      1 C1          30.2995  38.7650  36.8968 C.3            1 <1>                0.0000
      2 N2          30.2295  37.5907  37.7700 N.pl3          1 <1>                0.0000
      3 C3          29.3632  37.4423  38.8039 C.2            1 <1>                0.0000
      4 C4          29.6084  36.2332  39.3611 C.2            1 <1>                0.0000
      5 Cl5         28.7975  35.5184  40.7195 Cl             1 <1>                0.0000
      6 C6          30.6667  35.6731  38.6016 C.2            1 <1>                0.0000
      7 C7          31.2959  34.3622  38.8136 C.2            1 <1>                0.0000
      8 O8          31.9333  33.8441  37.9212 O.2            1 <1>                0.0000
      9 N9          30.9756  36.5504  37.6639 N.2            1 <1>                0.0000
     10 H10         31.0006  39.4874  37.3149 H              1 <1>                0.0000
     11 H11         30.6381  38.4616  35.9062 H              1 <1>                0.0000
     12 H12         29.3119  39.2198  36.8198 H              1 <1>                0.0000
     13 H13         28.6177  38.1558  39.1229 H              1 <1>                0.0000
     14 H14         31.1909  33.8601  39.7640 H              1 <1>                0.0000
@<TRIPOS>BOND
    1    1    2 1     
    2    1   10 1     
    3    1   11 1     
    4    1   12 1     
    5    2    3 1     
    6    2    9 1     
    7    3    4 2     
    8    3   13 1     
    9    4    5 1     
   10    4    6 1     
   11    6    7 1     
   12    6    9 2     
   13    7    8 2     
   14    7   14 1     
@<TRIPOS>SUBSTRUCTURE
      1 ****           1
@<TRIPOS>COMMENT
> <Gold.Version>
2022.2.0

> <Gold.Id.Protein>
1qkm|1qkm_protein|mol2

> <Gold.Protein.RotatedTorsions>
[  496  491  490  487 ] final  -70.77 input  -89.99 | X-H torsion

> <Gold.Protein.ActiveResidues>
 MET295  LEU298  THR299  LEU301  ALA302  GLU305  TRP335  MET336  LEU339  MET340 
 GLY342  LEU343  ARG346  PHE356  ILE373  ILE376  PHE377  LEU380  LYS471  GLY472 
 MET473  HIS475  LEU476  LEU477  ASN478  MET479  VAL484  VAL487 

> <Gold.Protein.RotatedAtoms>
   36.5848   34.7316   41.3310 H   0  0  0  0  0  0  0  0  0  0  0  0  # atno 496  bound_to 491 

> <Gold.Score>
     Score     S(PLP)   S(hbond)     S(cho)   S(metal)  DE(clash)   DE(tors)     intcor
     28.74     -28.90       0.00       0.00       0.00       0.00       0.08       0.00

> <Gold.PLP.Fitness>
28.7436

> <Gold.PLP.PLP>
-28.9032

> <Gold.PLP.part.hbond>
0.0000

> <Gold.PLP.part.metal>
0.0000

> <Gold.PLP.part.buried>
-2.9547

> <Gold.PLP.part.nonpolar>
-26.7624

> <Gold.PLP.part.repulsive>
0.0467

> <Gold.PLP.ligand.clash>
0.0000

> <Gold.PLP.ligand.torsion>
0.0798

> <Gold.PLP.Chemscore.Hbond>
0.0000

> <Gold.PLP.Chemscore.CHOScore>
0.0000

> <Gold.PLP.Chemscore.Metal>
0.0000

> <Gold.PLP.Chemscore.Internal.Correction>
0.0000

