#       Name:                EN300-92356_i001
#       Creating user name   aseyller
#       Creation time:       Fri Apr 21 17:13:53 2023


#       File generated by GOLD software.
#

@<TRIPOS>MOLECULE
EN300-92356_i001|benzaldehydes|mol2|205|dock19
    14    14     1
SMALL
USER_CHARGES


@<TRIPOS>ATOM
      1 C1          28.7005  36.9936  40.0011 C.3            1 <1>                0.0000
      2 N2          29.8038  36.3679  39.2680 N.pl3          1 <1>                0.0000
      3 C3          30.1248  35.0506  39.3234 C.2            1 <1>                0.0000
      4 C4          31.1937  34.8647  38.5137 C.2            1 <1>                0.0000
      5 Cl5         32.0275  33.3747  38.2000 Cl             1 <1>                0.0000
      6 C6          31.4889  36.1429  37.9756 C.2            1 <1>                0.0000
      7 C7          32.5702  36.4666  37.0348 C.2            1 <1>                0.0000
      8 O8          33.3012  35.5893  36.6261 O.2            1 <1>                0.0000
      9 N9          30.6038  36.9862  38.4755 N.2            1 <1>                0.0000
     10 H10         29.0574  37.3356  40.9725 H              1 <1>                0.0000
     11 H11         28.3225  37.8436  39.4330 H              1 <1>                0.0000
     12 H12         27.9005  36.2669  40.1432 H              1 <1>                0.0000
     13 H13         29.6217  34.2923  39.9051 H              1 <1>                0.0000
     14 H14         32.7141  37.4856  36.7072 H              1 <1>                0.0000
@<TRIPOS>BOND
    1    1    2 1     
    2    1   10 1     
    3    1   11 1     
    4    1   12 1     
    5    2    3 1     
    6    2    9 1     
    7    3    4 2     
    8    3   13 1     
    9    4    5 1     
   10    4    6 1     
   11    6    7 1     
   12    6    9 2     
   13    7    8 2     
   14    7   14 1     
@<TRIPOS>SUBSTRUCTURE
      1 ****           1
@<TRIPOS>COMMENT
> <Gold.Version>
2022.2.0

> <Gold.Id.Protein>
1qkm|1qkm_protein|mol2

> <Gold.Protein.RotatedTorsions>
[  496  491  490  487 ] final    4.70 input  -89.99 | X-H torsion

> <Gold.Protein.ActiveResidues>
 MET295  LEU298  THR299  LEU301  ALA302  GLU305  TRP335  MET336  LEU339  MET340 
 GLY342  LEU343  ARG346  PHE356  ILE373  ILE376  PHE377  LEU380  LYS471  GLY472 
 MET473  HIS475  LEU476  LEU477  ASN478  MET479  VAL484  VAL487 

> <Gold.Protein.RotatedAtoms>
   36.2641   34.1455   42.2725 H   0  0  0  0  0  0  0  0  0  0  0  0  # atno 496  bound_to 491 

> <Gold.Score>
     Score     S(PLP)   S(hbond)     S(cho)   S(metal)  DE(clash)   DE(tors)     intcor
     29.10     -29.10       0.00       0.00       0.00       0.00       0.00       0.00

> <Gold.PLP.Fitness>
29.1023

> <Gold.PLP.PLP>
-29.1033

> <Gold.PLP.part.hbond>
0.0000

> <Gold.PLP.part.metal>
0.0000

> <Gold.PLP.part.buried>
-2.2266

> <Gold.PLP.part.nonpolar>
-26.5274

> <Gold.PLP.part.repulsive>
0.0432

> <Gold.PLP.ligand.clash>
0.0000

> <Gold.PLP.ligand.torsion>
0.0005

> <Gold.PLP.Chemscore.Hbond>
0.0000

> <Gold.PLP.Chemscore.CHOScore>
0.0000

> <Gold.PLP.Chemscore.Metal>
0.0000

> <Gold.PLP.Chemscore.Internal.Correction>
0.0000

