#       Name:                EN300-92356_i001
#       Creating user name   aseyller
#       Creation time:       Fri Apr 21 17:13:50 2023


#       File generated by GOLD software.
#

@<TRIPOS>MOLECULE
EN300-92356_i001|benzaldehydes|mol2|205|dock7
    14    14     1
SMALL
USER_CHARGES


@<TRIPOS>ATOM
      1 C1          28.7959  36.5731  40.4620 C.3            1 <1>                0.0000
      2 N2          29.6912  36.6340  39.3040 N.pl3          1 <1>                0.0000
      3 C3          30.7536  35.8148  39.0999 C.2            1 <1>                0.0000
      4 C4          31.3241  36.1835  37.9289 C.2            1 <1>                0.0000
      5 Cl5         32.7191  35.4796  37.1723 Cl             1 <1>                0.0000
      6 C6          30.5425  37.2653  37.4501 C.2            1 <1>                0.0000
      7 C7          30.7580  38.0154  36.2051 C.2            1 <1>                0.0000
      8 O8          31.5024  37.5768  35.3539 O.2            1 <1>                0.0000
      9 N9          29.5805  37.4670  38.3323 N.2            1 <1>                0.0000
     10 H10         29.1796  37.2183  41.2523 H              1 <1>                0.0000
     11 H11         27.8008  36.9087  40.1700 H              1 <1>                0.0000
     12 H12         28.7411  35.5469  40.8253 H              1 <1>                0.0000
     13 H13         31.0827  35.0179  39.7503 H              1 <1>                0.0000
     14 H14         30.2536  38.9574  36.0479 H              1 <1>                0.0000
@<TRIPOS>BOND
    1    1    2 1     
    2    1   10 1     
    3    1   11 1     
    4    1   12 1     
    5    2    3 1     
    6    2    9 1     
    7    3    4 2     
    8    3   13 1     
    9    4    5 1     
   10    4    6 1     
   11    6    7 1     
   12    6    9 2     
   13    7    8 2     
   14    7   14 1     
@<TRIPOS>SUBSTRUCTURE
      1 ****           1
@<TRIPOS>COMMENT
> <Gold.Version>
2022.2.0

> <Gold.Id.Protein>
1qkm|1qkm_protein|mol2

> <Gold.Protein.RotatedTorsions>
[  496  491  490  487 ] final   51.63 input  -89.99 | X-H torsion

> <Gold.Protein.ActiveResidues>
 MET295  LEU298  THR299  LEU301  ALA302  GLU305  TRP335  MET336  LEU339  MET340 
 GLY342  LEU343  ARG346  PHE356  ILE373  ILE376  PHE377  LEU380  LYS471  GLY472 
 MET473  HIS475  LEU476  LEU477  ASN478  MET479  VAL484  VAL487 

> <Gold.Protein.RotatedAtoms>
   36.4850   33.4315   42.3469 H   0  0  0  0  0  0  0  0  0  0  0  0  # atno 496  bound_to 491 

> <Gold.Score>
     Score     S(PLP)   S(hbond)     S(cho)   S(metal)  DE(clash)   DE(tors)     intcor
     30.35     -27.46       0.00       0.99       0.00       0.00       0.05       0.00

> <Gold.PLP.Fitness>
30.3545

> <Gold.PLP.PLP>
-27.4617

> <Gold.PLP.part.hbond>
0.0000

> <Gold.PLP.part.metal>
0.0000

> <Gold.PLP.part.buried>
-1.9548

> <Gold.PLP.part.nonpolar>
-25.6632

> <Gold.PLP.part.repulsive>
0.0507

> <Gold.PLP.ligand.clash>
0.0000

> <Gold.PLP.ligand.torsion>
0.0461

> <Gold.PLP.Chemscore.Hbond>
0.0000

> <Gold.PLP.Chemscore.CHOScore>
0.9950

> <Gold.PLP.Chemscore.Metal>
0.0000

> <Gold.Chemscore.Hbonds>
donor molecule, donor type, donor heavy atom, donor atom, acceptor molecule, acceptor atom, score
      L1  C     3    13       P1   470  0.99

> <Gold.PLP.Chemscore.Internal.Correction>
0.0000

