#       Name:                EN300-92356_i001
#       Creating user name   aseyller
#       Creation time:       Fri Apr 21 17:13:49 2023


#       File generated by GOLD software.
#

@<TRIPOS>MOLECULE
EN300-92356_i001|benzaldehydes|mol2|205|dock5
    14    14     1
SMALL
USER_CHARGES


@<TRIPOS>ATOM
      1 C1          30.4425  37.3193  37.5338 C.3            1 <1>                0.0000
      2 N2          29.4112  36.9967  38.5231 N.pl3          1 <1>                0.0000
      3 C3          29.6339  36.3470  39.6934 C.2            1 <1>                0.0000
      4 C4          28.4414  36.2404  40.3252 C.2            1 <1>                0.0000
      5 Cl5         28.1302  35.4989  41.8638 Cl             1 <1>                0.0000
      6 C6          27.5000  36.8619  39.4662 C.2            1 <1>                0.0000
      7 C7          26.0577  37.0051  39.7078 C.2            1 <1>                0.0000
      8 O8          25.6043  36.7959  40.8131 O.2            1 <1>                0.0000
      9 N9          28.1663  37.2932  38.4105 N.2            1 <1>                0.0000
     10 H10         30.5310  36.4996  36.8207 H              1 <1>                0.0000
     11 H11         30.1667  38.2320  37.0057 H              1 <1>                0.0000
     12 H12         31.3972  37.4661  38.0389 H              1 <1>                0.0000
     13 H13         30.5849  35.9827  40.0533 H              1 <1>                0.0000
     14 H14         25.4013  37.2965  38.9012 H              1 <1>                0.0000
@<TRIPOS>BOND
    1    1    2 1     
    2    1   10 1     
    3    1   11 1     
    4    1   12 1     
    5    2    3 1     
    6    2    9 1     
    7    3    4 2     
    8    3   13 1     
    9    4    5 1     
   10    4    6 1     
   11    6    7 1     
   12    6    9 2     
   13    7    8 2     
   14    7   14 1     
@<TRIPOS>SUBSTRUCTURE
      1 ****           1
@<TRIPOS>COMMENT
> <Gold.Version>
2022.2.0

> <Gold.Id.Protein>
1qkm|1qkm_protein|mol2

> <Gold.Protein.RotatedTorsions>
[  496  491  490  487 ] final  179.22 input  -89.99 | X-H torsion

> <Gold.Protein.ActiveResidues>
 MET295  LEU298  THR299  LEU301  ALA302  GLU305  TRP335  MET336  LEU339  MET340 
 GLY342  LEU343  ARG346  PHE356  ILE373  ILE376  PHE377  LEU380  LYS471  GLY472 
 MET473  HIS475  LEU476  LEU477  ASN478  MET479  VAL484  VAL487 

> <Gold.Protein.RotatedAtoms>
   37.3182   33.4505   40.8739 H   0  0  0  0  0  0  0  0  0  0  0  0  # atno 496  bound_to 491 

> <Gold.Score>
     Score     S(PLP)   S(hbond)     S(cho)   S(metal)  DE(clash)   DE(tors)     intcor
     31.91     -29.12       0.00       0.96       0.00       0.00       0.04       0.00

> <Gold.PLP.Fitness>
31.9111

> <Gold.PLP.PLP>
-29.1228

> <Gold.PLP.part.hbond>
0.0000

> <Gold.PLP.part.metal>
0.0000

> <Gold.PLP.part.buried>
-1.1716

> <Gold.PLP.part.nonpolar>
-28.3720

> <Gold.PLP.part.repulsive>
0.1653

> <Gold.PLP.ligand.clash>
0.0000

> <Gold.PLP.ligand.torsion>
0.0418

> <Gold.PLP.Chemscore.Hbond>
0.0000

> <Gold.PLP.Chemscore.CHOScore>
0.9573

> <Gold.PLP.Chemscore.Metal>
0.0000

> <Gold.Chemscore.Hbonds>
donor molecule, donor type, donor heavy atom, donor atom, acceptor molecule, acceptor atom, score
      L1  C     3    13       P1   470  0.96

> <Gold.PLP.Chemscore.Internal.Correction>
0.0000

