#       Name:                EN300-92356_i001
#       Creating user name   aseyller
#       Creation time:       Fri Apr 21 17:13:50 2023


#       File generated by GOLD software.
#

@<TRIPOS>MOLECULE
EN300-92356_i001|benzaldehydes|mol2|205|dock9
    14    14     1
SMALL
USER_CHARGES


@<TRIPOS>ATOM
      1 C1          27.8699  36.2004  41.0556 C.3            1 <1>                0.0000
      2 N2          28.8128  36.3995  39.9522 N.pl3          1 <1>                0.0000
      3 C3          29.9799  35.7249  39.7966 C.2            1 <1>                0.0000
      4 C4          30.5629  36.1889  38.6664 C.2            1 <1>                0.0000
      5 Cl5         32.0752  35.6829  37.9804 Cl             1 <1>                0.0000
      6 C6          29.6783  37.1749  38.1605 C.2            1 <1>                0.0000
      7 C7          29.8655  37.9743  36.9419 C.2            1 <1>                0.0000
      8 O8          30.8702  37.8390  36.2762 O.2            1 <1>                0.0000
      9 N9          28.6514  37.2341  38.9890 N.2            1 <1>                0.0000
     10 H10         28.1248  36.8704  41.8767 H              1 <1>                0.0000
     11 H11         26.8580  36.4152  40.7121 H              1 <1>                0.0000
     12 H12         27.9255  35.1674  41.3990 H              1 <1>                0.0000
     13 H13         30.3708  34.9609  40.4523 H              1 <1>                0.0000
     14 H14         29.1084  38.6825  36.6390 H              1 <1>                0.0000
@<TRIPOS>BOND
    1    1    2 1     
    2    1   10 1     
    3    1   11 1     
    4    1   12 1     
    5    2    3 1     
    6    2    9 1     
    7    3    4 2     
    8    3   13 1     
    9    4    5 1     
   10    4    6 1     
   11    6    7 1     
   12    6    9 2     
   13    7    8 2     
   14    7   14 1     
@<TRIPOS>SUBSTRUCTURE
      1 ****           1
@<TRIPOS>COMMENT
> <Gold.Version>
2022.2.0

> <Gold.Id.Protein>
1qkm|1qkm_protein|mol2

> <Gold.Protein.RotatedTorsions>
[  496  491  490  487 ] final  -77.04 input  -89.99 | X-H torsion

> <Gold.Protein.ActiveResidues>
 MET295  LEU298  THR299  LEU301  ALA302  GLU305  TRP335  MET336  LEU339  MET340 
 GLY342  LEU343  ARG346  PHE356  ILE373  ILE376  PHE377  LEU380  LYS471  GLY472 
 MET473  HIS475  LEU476  LEU477  ASN478  MET479  VAL484  VAL487 

> <Gold.Protein.RotatedAtoms>
   36.6394   34.7169   41.2448 H   0  0  0  0  0  0  0  0  0  0  0  0  # atno 496  bound_to 491 

> <Gold.Score>
     Score     S(PLP)   S(hbond)     S(cho)   S(metal)  DE(clash)   DE(tors)     intcor
     29.81     -26.81       0.00       1.00       0.00       0.00       0.00       0.00

> <Gold.PLP.Fitness>
29.8133

> <Gold.PLP.PLP>
-26.8142

> <Gold.PLP.part.hbond>
0.0000

> <Gold.PLP.part.metal>
0.0000

> <Gold.PLP.part.buried>
0.3904

> <Gold.PLP.part.nonpolar>
-27.2152

> <Gold.PLP.part.repulsive>
0.0016

> <Gold.PLP.ligand.clash>
0.0000

> <Gold.PLP.ligand.torsion>
0.0005

> <Gold.PLP.Chemscore.Hbond>
0.0000

> <Gold.PLP.Chemscore.CHOScore>
1.0000

> <Gold.PLP.Chemscore.Metal>
0.0000

> <Gold.Chemscore.Hbonds>
donor molecule, donor type, donor heavy atom, donor atom, acceptor molecule, acceptor atom, score
      L1  C     3    13       P1   470  1.00

> <Gold.PLP.Chemscore.Internal.Correction>
0.0000

