#       Name:                EN300-92356_i001
#       Creating user name   aseyller
#       Creation time:       Fri Apr 21 17:13:49 2023


#       File generated by GOLD software.
#

@<TRIPOS>MOLECULE
EN300-92356_i001|benzaldehydes|mol2|205|dock2
    14    14     1
SMALL
USER_CHARGES


@<TRIPOS>ATOM
      1 C1          28.6346  36.3069  40.7199 C.3            1 <1>                0.0000
      2 N2          29.5185  36.5570  39.5787 N.pl3          1 <1>                0.0000
      3 C3          30.5966  35.8010  39.2511 C.2            1 <1>                0.0000
      4 C4          31.1490  36.3501  38.1439 C.2            1 <1>                0.0000
      5 Cl5         32.5524  35.7965  37.2849 Cl             1 <1>                0.0000
      6 C6          30.3401  37.4723  37.8330 C.2            1 <1>                0.0000
      7 C7          30.5286  38.4014  36.7103 C.2            1 <1>                0.0000
      8 O8          29.8414  39.3972  36.6253 O.2            1 <1>                0.0000
      9 N9          29.3815  37.5207  38.7403 N.2            1 <1>                0.0000
     10 H10         29.0109  36.8380  41.5943 H              1 <1>                0.0000
     11 H11         27.6300  36.6589  40.4855 H              1 <1>                0.0000
     12 H12         28.6052  35.2376  40.9292 H              1 <1>                0.0000
     13 H13         30.9485  34.9251  39.7760 H              1 <1>                0.0000
     14 H14         31.2790  38.1976  35.9608 H              1 <1>                0.0000
@<TRIPOS>BOND
    1    1    2 1     
    2    1   10 1     
    3    1   11 1     
    4    1   12 1     
    5    2    3 1     
    6    2    9 1     
    7    3    4 2     
    8    3   13 1     
    9    4    5 1     
   10    4    6 1     
   11    6    7 1     
   12    6    9 2     
   13    7    8 2     
   14    7   14 1     
@<TRIPOS>SUBSTRUCTURE
      1 ****           1
@<TRIPOS>COMMENT
> <Gold.Version>
2022.2.0

> <Gold.Id.Protein>
1qkm|1qkm_protein|mol2

> <Gold.Protein.RotatedTorsions>
[  496  491  490  487 ] final -143.69 input  -89.99 | X-H torsion

> <Gold.Protein.ActiveResidues>
 MET295  LEU298  THR299  LEU301  ALA302  GLU305  TRP335  MET336  LEU339  MET340 
 GLY342  LEU343  ARG346  PHE356  ILE373  ILE376  PHE377  LEU380  LYS471  GLY472 
 MET473  HIS475  LEU476  LEU477  ASN478  MET479  VAL484  VAL487 

> <Gold.Protein.RotatedAtoms>
   37.1965   34.0177   40.7205 H   0  0  0  0  0  0  0  0  0  0  0  0  # atno 496  bound_to 491 

> <Gold.Score>
     Score     S(PLP)   S(hbond)     S(cho)   S(metal)  DE(clash)   DE(tors)     intcor
     30.56     -28.15       0.00       0.81       0.00       0.00       0.01       0.00

> <Gold.PLP.Fitness>
30.5637

> <Gold.PLP.PLP>
-28.1465

> <Gold.PLP.part.hbond>
0.0000

> <Gold.PLP.part.metal>
0.0000

> <Gold.PLP.part.buried>
-1.3773

> <Gold.PLP.part.nonpolar>
-26.7483

> <Gold.PLP.part.repulsive>
0.0087

> <Gold.PLP.ligand.clash>
0.0000

> <Gold.PLP.ligand.torsion>
0.0113

> <Gold.PLP.Chemscore.Hbond>
0.0000

> <Gold.PLP.Chemscore.CHOScore>
0.8133

> <Gold.PLP.Chemscore.Metal>
0.0000

> <Gold.Chemscore.Hbonds>
donor molecule, donor type, donor heavy atom, donor atom, acceptor molecule, acceptor atom, score
      L1  C     3    13       P1   470  0.81

> <Gold.PLP.Chemscore.Internal.Correction>
0.0000

