#       Name:                EN300-92356_i001
#       Creating user name   aseyller
#       Creation time:       Fri Apr 21 17:13:51 2023


#       File generated by GOLD software.
#

@<TRIPOS>MOLECULE
EN300-92356_i001|benzaldehydes|mol2|205|dock13
    14    14     1
SMALL
USER_CHARGES


@<TRIPOS>ATOM
      1 C1          31.8107  33.1816  38.5016 C.3            1 <1>                0.0000
      2 N2          31.6015  34.5886  38.1510 N.pl3          1 <1>                0.0000
      3 C3          32.4528  35.3382  37.4063 C.2            1 <1>                0.0000
      4 C4          31.9125  36.5753  37.3045 C.2            1 <1>                0.0000
      5 Cl5         32.5714  37.9436  36.4633 Cl             1 <1>                0.0000
      6 C6          30.6951  36.5183  38.0291 C.2            1 <1>                0.0000
      7 C7          29.7368  37.6165  38.2155 C.2            1 <1>                0.0000
      8 O8          29.8730  38.6515  37.5982 O.2            1 <1>                0.0000
      9 N9          30.5828  35.2893  38.4996 N.2            1 <1>                0.0000
     10 H10         32.3575  33.1190  39.4425 H              1 <1>                0.0000
     11 H11         30.8456  32.6863  38.6085 H              1 <1>                0.0000
     12 H12         32.3849  32.6926  37.7146 H              1 <1>                0.0000
     13 H13         33.3871  35.0094  36.9756 H              1 <1>                0.0000
     14 H14         28.9111  37.5020  38.9022 H              1 <1>                0.0000
@<TRIPOS>BOND
    1    1    2 1     
    2    1   10 1     
    3    1   11 1     
    4    1   12 1     
    5    2    3 1     
    6    2    9 1     
    7    3    4 2     
    8    3   13 1     
    9    4    5 1     
   10    4    6 1     
   11    6    7 1     
   12    6    9 2     
   13    7    8 2     
   14    7   14 1     
@<TRIPOS>SUBSTRUCTURE
      1 ****           1
@<TRIPOS>COMMENT
> <Gold.Version>
2022.2.0

> <Gold.Id.Protein>
1qkm|1qkm_protein|mol2

> <Gold.Protein.RotatedTorsions>
[  496  491  490  487 ] final -120.75 input  -89.99 | X-H torsion

> <Gold.Protein.ActiveResidues>
 MET295  LEU298  THR299  LEU301  ALA302  GLU305  TRP335  MET336  LEU339  MET340 
 GLY342  LEU343  ARG346  PHE356  ILE373  ILE376  PHE377  LEU380  LYS471  GLY472 
 MET473  HIS475  LEU476  LEU477  ASN478  MET479  VAL484  VAL487 

> <Gold.Protein.RotatedAtoms>
   37.0322   34.3464   40.7958 H   0  0  0  0  0  0  0  0  0  0  0  0  # atno 496  bound_to 491 

> <Gold.Score>
     Score     S(PLP)   S(hbond)     S(cho)   S(metal)  DE(clash)   DE(tors)     intcor
     28.29     -28.33       0.00       0.00       0.00       0.00       0.02       0.00

> <Gold.PLP.Fitness>
28.2937

> <Gold.PLP.PLP>
-28.3285

> <Gold.PLP.part.hbond>
0.0000

> <Gold.PLP.part.metal>
0.0000

> <Gold.PLP.part.buried>
-2.6387

> <Gold.PLP.part.nonpolar>
-26.3239

> <Gold.PLP.part.repulsive>
0.0639

> <Gold.PLP.ligand.clash>
0.0000

> <Gold.PLP.ligand.torsion>
0.0174

> <Gold.PLP.Chemscore.Hbond>
0.0000

> <Gold.PLP.Chemscore.CHOScore>
0.0000

> <Gold.PLP.Chemscore.Metal>
0.0000

> <Gold.PLP.Chemscore.Internal.Correction>
0.0000

