#       Name:                EN300-92356_i001
#       Creating user name   aseyller
#       Creation time:       Fri Apr 21 17:13:48 2023


#       File generated by GOLD software.
#

@<TRIPOS>MOLECULE
EN300-92356_i001|benzaldehydes|mol2|205|dock1
    14    14     1
SMALL
USER_CHARGES


@<TRIPOS>ATOM
      1 C1          31.4766  36.5033  37.7201 C.3            1 <1>                0.0000
      2 N2          30.1891  36.5516  38.4174 N.pl3          1 <1>                0.0000
      3 C3          29.9952  36.2052  39.7150 C.2            1 <1>                0.0000
      4 C4          28.6810  36.3855  39.9854 C.2            1 <1>                0.0000
      5 Cl5         27.8697  36.0995  41.4933 Cl             1 <1>                0.0000
      6 C6          28.1066  36.8574  38.7780 C.2            1 <1>                0.0000
      7 C7          26.6954  37.2028  38.5581 C.2            1 <1>                0.0000
      8 O8          25.8962  37.0942  39.4639 O.2            1 <1>                0.0000
      9 N9          29.0815  36.9335  37.8902 N.2            1 <1>                0.0000
     10 H10         31.6041  35.5234  37.2600 H              1 <1>                0.0000
     11 H11         31.5011  37.2729  36.9485 H              1 <1>                0.0000
     12 H12         32.2825  36.6777  38.4329 H              1 <1>                0.0000
     13 H13         30.7486  35.8514  40.4033 H              1 <1>                0.0000
     14 H14         26.3697  37.5533  37.5898 H              1 <1>                0.0000
@<TRIPOS>BOND
    1    1    2 1     
    2    1   10 1     
    3    1   11 1     
    4    1   12 1     
    5    2    3 1     
    6    2    9 1     
    7    3    4 2     
    8    3   13 1     
    9    4    5 1     
   10    4    6 1     
   11    6    7 1     
   12    6    9 2     
   13    7    8 2     
   14    7   14 1     
@<TRIPOS>SUBSTRUCTURE
      1 ****           1
@<TRIPOS>COMMENT
> <Gold.Version>
2022.2.0

> <Gold.Id.Protein>
1qkm|1qkm_protein|mol2

> <Gold.Protein.RotatedTorsions>
[  496  491  490  487 ] final -177.26 input  -89.99 | X-H torsion

> <Gold.Protein.ActiveResidues>
 MET295  LEU298  THR299  LEU301  ALA302  GLU305  TRP335  MET336  LEU339  MET340 
 GLY342  LEU343  ARG346  PHE356  ILE373  ILE376  PHE377  LEU380  LYS471  GLY472 
 MET473  HIS475  LEU476  LEU477  ASN478  MET479  VAL484  VAL487 

> <Gold.Protein.RotatedAtoms>
   37.3157   33.5011   40.8456 H   0  0  0  0  0  0  0  0  0  0  0  0  # atno 496  bound_to 491 

> <Gold.Score>
     Score     S(PLP)   S(hbond)     S(cho)   S(metal)  DE(clash)   DE(tors)     intcor
     32.23     -29.23       0.00       1.00       0.00       0.00       0.00       0.00

> <Gold.PLP.Fitness>
32.2261

> <Gold.PLP.PLP>
-29.2275

> <Gold.PLP.part.hbond>
0.0000

> <Gold.PLP.part.metal>
0.0000

> <Gold.PLP.part.buried>
-2.0720

> <Gold.PLP.part.nonpolar>
-27.7040

> <Gold.PLP.part.repulsive>
0.0754

> <Gold.PLP.ligand.clash>
0.0000

> <Gold.PLP.ligand.torsion>
0.0000

> <Gold.PLP.Chemscore.Hbond>
0.0000

> <Gold.PLP.Chemscore.CHOScore>
0.9995

> <Gold.PLP.Chemscore.Metal>
0.0000

> <Gold.Chemscore.Hbonds>
donor molecule, donor type, donor heavy atom, donor atom, acceptor molecule, acceptor atom, score
      L1  C     3    13       P1   470  1.00

> <Gold.PLP.Chemscore.Internal.Correction>
0.0000

