#       Name:                EN300-92356_i001
#       Creating user name   aseyller
#       Creation time:       Fri Apr 21 17:13:50 2023


#       File generated by GOLD software.
#

@<TRIPOS>MOLECULE
EN300-92356_i001|benzaldehydes|mol2|205|dock8
    14    14     1
SMALL
USER_CHARGES


@<TRIPOS>ATOM
      1 C1          32.7800  35.8505  37.5737 C.3            1 <1>                0.0000
      2 N2          31.4130  36.1493  38.0080 N.pl3          1 <1>                0.0000
      3 C3          30.8082  35.6090  39.0959 C.2            1 <1>                0.0000
      4 C4          29.5607  36.1305  39.1607 C.2            1 <1>                0.0000
      5 Cl5         28.3420  35.7948  40.3506 Cl             1 <1>                0.0000
      6 C6          29.4588  37.0090  38.0524 C.2            1 <1>                0.0000
      7 C7          28.2899  37.8199  37.6845 C.2            1 <1>                0.0000
      8 O8          27.2138  37.6013  38.1996 O.2            1 <1>                0.0000
      9 N9          30.6157  36.9649  37.4168 N.2            1 <1>                0.0000
     10 H10         32.7662  35.0045  36.8866 H              1 <1>                0.0000
     11 H11         33.1996  36.7212  37.0698 H              1 <1>                0.0000
     12 H12         33.3911  35.6036  38.4419 H              1 <1>                0.0000
     13 H13         31.2412  34.8958  39.7818 H              1 <1>                0.0000
     14 H14         28.3889  38.6106  36.9555 H              1 <1>                0.0000
@<TRIPOS>BOND
    1    1    2 1     
    2    1   10 1     
    3    1   11 1     
    4    1   12 1     
    5    2    3 1     
    6    2    9 1     
    7    3    4 2     
    8    3   13 1     
    9    4    5 1     
   10    4    6 1     
   11    6    7 1     
   12    6    9 2     
   13    7    8 2     
   14    7   14 1     
@<TRIPOS>SUBSTRUCTURE
      1 ****           1
@<TRIPOS>COMMENT
> <Gold.Version>
2022.2.0

> <Gold.Id.Protein>
1qkm|1qkm_protein|mol2

> <Gold.Protein.RotatedTorsions>
[  496  491  490  487 ] final  139.14 input  -89.99 | X-H torsion

> <Gold.Protein.ActiveResidues>
 MET295  LEU298  THR299  LEU301  ALA302  GLU305  TRP335  MET336  LEU339  MET340 
 GLY342  LEU343  ARG346  PHE356  ILE373  ILE376  PHE377  LEU380  LYS471  GLY472 
 MET473  HIS475  LEU476  LEU477  ASN478  MET479  VAL484  VAL487 

> <Gold.Protein.RotatedAtoms>
   37.2095   33.0196   41.3433 H   0  0  0  0  0  0  0  0  0  0  0  0  # atno 496  bound_to 491 

> <Gold.Score>
     Score     S(PLP)   S(hbond)     S(cho)   S(metal)  DE(clash)   DE(tors)     intcor
     30.92     -28.00       0.00       1.00       0.00       0.00       0.04       0.00

> <Gold.PLP.Fitness>
30.9213

> <Gold.PLP.PLP>
-28.0012

> <Gold.PLP.part.hbond>
0.0000

> <Gold.PLP.part.metal>
0.0000

> <Gold.PLP.part.buried>
-1.4445

> <Gold.PLP.part.nonpolar>
-26.4958

> <Gold.PLP.part.repulsive>
0.0000

> <Gold.PLP.ligand.clash>
0.0000

> <Gold.PLP.ligand.torsion>
0.0399

> <Gold.PLP.Chemscore.Hbond>
0.0000

> <Gold.PLP.Chemscore.CHOScore>
1.0000

> <Gold.PLP.Chemscore.Metal>
0.0000

> <Gold.Chemscore.Hbonds>
donor molecule, donor type, donor heavy atom, donor atom, acceptor molecule, acceptor atom, score
      L1  C     3    13       P1   470  1.00

> <Gold.PLP.Chemscore.Internal.Correction>
0.0000

