#       Name:                EN300-92356_i001
#       Creating user name   aseyller
#       Creation time:       Fri Apr 21 17:13:52 2023


#       File generated by GOLD software.
#

@<TRIPOS>MOLECULE
EN300-92356_i001|benzaldehydes|mol2|205|dock17
    14    14     1
SMALL
USER_CHARGES


@<TRIPOS>ATOM
      1 C1          28.7132  36.6958  40.5617 C.3            1 <1>                0.0000
      2 N2          29.7184  36.3623  39.5495 N.pl3          1 <1>                0.0000
      3 C3          30.2148  37.2306  38.6324 C.2            1 <1>                0.0000
      4 C4          31.1131  36.5503  37.8823 C.2            1 <1>                0.0000
      5 Cl5         32.0560  37.1631  36.5596 Cl             1 <1>                0.0000
      6 C6          31.1224  35.2320  38.4042 C.2            1 <1>                0.0000
      7 C7          31.9398  34.1085  37.9261 C.2            1 <1>                0.0000
      8 O8          31.6301  32.9702  38.2079 O.2            1 <1>                0.0000
      9 N9          30.2614  35.2070  39.4055 N.2            1 <1>                0.0000
     10 H10         27.7170  36.5141  40.1582 H              1 <1>                0.0000
     11 H11         28.8664  36.0749  41.4444 H              1 <1>                0.0000
     12 H12         28.8081  37.7465  40.8356 H              1 <1>                0.0000
     13 H13         29.9435  38.2702  38.5215 H              1 <1>                0.0000
     14 H14         32.8164  34.2962  37.3238 H              1 <1>                0.0000
@<TRIPOS>BOND
    1    1    2 1     
    2    1   10 1     
    3    1   11 1     
    4    1   12 1     
    5    2    3 1     
    6    2    9 1     
    7    3    4 2     
    8    3   13 1     
    9    4    5 1     
   10    4    6 1     
   11    6    7 1     
   12    6    9 2     
   13    7    8 2     
   14    7   14 1     
@<TRIPOS>SUBSTRUCTURE
      1 ****           1
@<TRIPOS>COMMENT
> <Gold.Version>
2022.2.0

> <Gold.Id.Protein>
1qkm|1qkm_protein|mol2

> <Gold.Protein.RotatedTorsions>
[  496  491  490  487 ] final  -71.15 input  -89.99 | X-H torsion

> <Gold.Protein.ActiveResidues>
 MET295  LEU298  THR299  LEU301  ALA302  GLU305  TRP335  MET336  LEU339  MET340 
 GLY342  LEU343  ARG346  PHE356  ILE373  ILE376  PHE377  LEU380  LYS471  GLY472 
 MET473  HIS475  LEU476  LEU477  ASN478  MET479  VAL484  VAL487 

> <Gold.Protein.RotatedAtoms>
   36.5881   34.7310   41.3257 H   0  0  0  0  0  0  0  0  0  0  0  0  # atno 496  bound_to 491 

> <Gold.Score>
     Score     S(PLP)   S(hbond)     S(cho)   S(metal)  DE(clash)   DE(tors)     intcor
     29.30     -29.46       0.00       0.00       0.00       0.00       0.08       0.00

> <Gold.PLP.Fitness>
29.3011

> <Gold.PLP.PLP>
-29.4579

> <Gold.PLP.part.hbond>
0.0000

> <Gold.PLP.part.metal>
0.0000

> <Gold.PLP.part.buried>
-3.4913

> <Gold.PLP.part.nonpolar>
-26.6702

> <Gold.PLP.part.repulsive>
0.3693

> <Gold.PLP.ligand.clash>
0.0000

> <Gold.PLP.ligand.torsion>
0.0784

> <Gold.PLP.Chemscore.Hbond>
0.0000

> <Gold.PLP.Chemscore.CHOScore>
0.0000

> <Gold.PLP.Chemscore.Metal>
0.0000

> <Gold.PLP.Chemscore.Internal.Correction>
0.0000

