#       Name:                EN300-92356_i001
#       Creating user name   aseyller
#       Creation time:       Fri Apr 21 17:13:52 2023


#       File generated by GOLD software.
#

@<TRIPOS>MOLECULE
EN300-92356_i001|benzaldehydes|mol2|205|dock14
    14    14     1
SMALL
USER_CHARGES


@<TRIPOS>ATOM
      1 C1          28.4048  35.6323  40.8912 C.3            1 <1>                0.0000
      2 N2          29.3117  35.9759  39.7931 N.pl3          1 <1>                0.0000
      3 C3          29.2298  37.1031  39.0421 C.2            1 <1>                0.0000
      4 C4          30.2363  37.0557  38.1380 C.2            1 <1>                0.0000
      5 Cl5         30.6123  38.2359  36.9217 Cl             1 <1>                0.0000
      6 C6          30.9190  35.8396  38.3937 C.2            1 <1>                0.0000
      7 C7          32.0936  35.3287  37.6737 C.2            1 <1>                0.0000
      8 O8          32.5994  35.9902  36.7919 O.2            1 <1>                0.0000
      9 N9          30.3027  35.2561  39.4057 N.2            1 <1>                0.0000
     10 H10         27.5622  35.0611  40.5015 H              1 <1>                0.0000
     11 H11         28.9387  35.0342  41.6298 H              1 <1>                0.0000
     12 H12         28.0388  36.5460  41.3595 H              1 <1>                0.0000
     13 H13         28.4981  37.8907  39.1461 H              1 <1>                0.0000
     14 H14         32.5066  34.3642  37.9298 H              1 <1>                0.0000
@<TRIPOS>BOND
    1    1    2 1     
    2    1   10 1     
    3    1   11 1     
    4    1   12 1     
    5    2    3 1     
    6    2    9 1     
    7    3    4 2     
    8    3   13 1     
    9    4    5 1     
   10    4    6 1     
   11    6    7 1     
   12    6    9 2     
   13    7    8 2     
   14    7   14 1     
@<TRIPOS>SUBSTRUCTURE
      1 ****           1
@<TRIPOS>COMMENT
> <Gold.Version>
2022.2.0

> <Gold.Id.Protein>
1qkm|1qkm_protein|mol2

> <Gold.Protein.RotatedTorsions>
[  496  491  490  487 ] final -135.74 input  -89.99 | X-H torsion

> <Gold.Protein.ActiveResidues>
 MET295  LEU298  THR299  LEU301  ALA302  GLU305  TRP335  MET336  LEU339  MET340 
 GLY342  LEU343  ARG346  PHE356  ILE373  ILE376  PHE377  LEU380  LYS471  GLY472 
 MET473  HIS475  LEU476  LEU477  ASN478  MET479  VAL484  VAL487 

> <Gold.Protein.RotatedAtoms>
   37.1457   34.1377   40.7319 H   0  0  0  0  0  0  0  0  0  0  0  0  # atno 496  bound_to 491 

> <Gold.Score>
     Score     S(PLP)   S(hbond)     S(cho)   S(metal)  DE(clash)   DE(tors)     intcor
     28.71     -28.72       0.00       0.00       0.00       0.00       0.00       0.00

> <Gold.PLP.Fitness>
28.7136

> <Gold.PLP.PLP>
-28.7171

> <Gold.PLP.part.hbond>
0.0000

> <Gold.PLP.part.metal>
0.0000

> <Gold.PLP.part.buried>
-2.9056

> <Gold.PLP.part.nonpolar>
-26.9530

> <Gold.PLP.part.repulsive>
0.4598

> <Gold.PLP.ligand.clash>
0.0000

> <Gold.PLP.ligand.torsion>
0.0017

> <Gold.PLP.Chemscore.Hbond>
0.0000

> <Gold.PLP.Chemscore.CHOScore>
0.0000

> <Gold.PLP.Chemscore.Metal>
0.0000

> <Gold.PLP.Chemscore.Internal.Correction>
0.0000

