#       Name:                EN300-92356_i001
#       Creating user name   aseyller
#       Creation time:       Fri Apr 21 17:13:49 2023


#       File generated by GOLD software.
#

@<TRIPOS>MOLECULE
EN300-92356_i001|benzaldehydes|mol2|205|dock4
    14    14     1
SMALL
USER_CHARGES


@<TRIPOS>ATOM
      1 C1          30.2901  38.5012  36.7602 C.3            1 <1>                0.0000
      2 N2          29.4106  37.8911  37.7606 N.pl3          1 <1>                0.0000
      3 C3          28.0693  37.7370  37.6247 C.2            1 <1>                0.0000
      4 C4          27.6190  37.1373  38.7517 C.2            1 <1>                0.0000
      5 Cl5         25.9819  36.6967  39.1252 Cl             1 <1>                0.0000
      6 C6          28.7659  36.9444  39.5629 C.2            1 <1>                0.0000
      7 C7          28.7998  36.3266  40.8957 C.2            1 <1>                0.0000
      8 O8          27.7637  36.0621  41.4680 O.2            1 <1>                0.0000
      9 N9          29.7987  37.4197  38.8908 N.2            1 <1>                0.0000
     10 H10         30.3588  39.5737  36.9425 H              1 <1>                0.0000
     11 H11         31.2828  38.0565  36.8297 H              1 <1>                0.0000
     12 H12         29.8829  38.3273  35.7642 H              1 <1>                0.0000
     13 H13         27.4724  38.0371  36.7760 H              1 <1>                0.0000
     14 H14         29.7473  36.1081  41.3657 H              1 <1>                0.0000
@<TRIPOS>BOND
    1    1    2 1     
    2    1   10 1     
    3    1   11 1     
    4    1   12 1     
    5    2    3 1     
    6    2    9 1     
    7    3    4 2     
    8    3   13 1     
    9    4    5 1     
   10    4    6 1     
   11    6    7 1     
   12    6    9 2     
   13    7    8 2     
   14    7   14 1     
@<TRIPOS>SUBSTRUCTURE
      1 ****           1
@<TRIPOS>COMMENT
> <Gold.Version>
2022.2.0

> <Gold.Id.Protein>
1qkm|1qkm_protein|mol2

> <Gold.Protein.RotatedTorsions>
[  496  491  490  487 ] final  157.72 input  -89.99 | X-H torsion

> <Gold.Protein.ActiveResidues>
 MET295  LEU298  THR299  LEU301  ALA302  GLU305  TRP335  MET336  LEU339  MET340 
 GLY342  LEU343  ARG346  PHE356  ILE373  ILE376  PHE377  LEU380  LYS471  GLY472 
 MET473  HIS475  LEU476  LEU477  ASN478  MET479  VAL484  VAL487 

> <Gold.Protein.RotatedAtoms>
   37.2903   33.1804   41.0977 H   0  0  0  0  0  0  0  0  0  0  0  0  # atno 496  bound_to 491 

> <Gold.Score>
     Score     S(PLP)   S(hbond)     S(cho)   S(metal)  DE(clash)   DE(tors)     intcor
     29.36     -29.39       0.00       0.00       0.00       0.00       0.02       0.00

> <Gold.PLP.Fitness>
29.3587

> <Gold.PLP.PLP>
-29.3903

> <Gold.PLP.part.hbond>
0.0000

> <Gold.PLP.part.metal>
0.0000

> <Gold.PLP.part.buried>
-2.8132

> <Gold.PLP.part.nonpolar>
-26.8282

> <Gold.PLP.part.repulsive>
0.1634

> <Gold.PLP.ligand.clash>
0.0000

> <Gold.PLP.ligand.torsion>
0.0158

> <Gold.PLP.Chemscore.Hbond>
0.0000

> <Gold.PLP.Chemscore.CHOScore>
0.0000

> <Gold.PLP.Chemscore.Metal>
0.0000

> <Gold.PLP.Chemscore.Internal.Correction>
0.0000

