#       Name:                EN300-92356_i001
#       Creating user name   aseyller
#       Creation time:       Fri Apr 21 17:13:53 2023


#       File generated by GOLD software.
#

@<TRIPOS>MOLECULE
EN300-92356_i001|benzaldehydes|mol2|205|dock18
    14    14     1
SMALL
USER_CHARGES


@<TRIPOS>ATOM
      1 C1          32.0446  33.8730  38.0875 C.3            1 <1>                0.0000
      2 N2          31.2298  35.0556  38.3771 N.pl3          1 <1>                0.0000
      3 C3          31.1705  36.1669  37.6006 C.2            1 <1>                0.0000
      4 C4          30.3154  37.0286  38.1997 C.2            1 <1>                0.0000
      5 Cl5         29.8584  38.6097  37.6473 Cl             1 <1>                0.0000
      6 C6          29.8710  36.3680  39.3730 C.2            1 <1>                0.0000
      7 C7          28.9252  36.8937  40.3670 C.2            1 <1>                0.0000
      8 O8          28.6982  36.2659  41.3795 O.2            1 <1>                0.0000
      9 N9          30.4639  35.1880  39.3999 N.2            1 <1>                0.0000
     10 H10         33.0283  33.9893  38.5423 H              1 <1>                0.0000
     11 H11         31.5578  32.9874  38.4960 H              1 <1>                0.0000
     12 H12         32.1539  33.7624  37.0087 H              1 <1>                0.0000
     13 H13         31.7059  36.3330  36.6775 H              1 <1>                0.0000
     14 H14         28.4321  37.8393  40.1960 H              1 <1>                0.0000
@<TRIPOS>BOND
    1    1    2 1     
    2    1   10 1     
    3    1   11 1     
    4    1   12 1     
    5    2    3 1     
    6    2    9 1     
    7    3    4 2     
    8    3   13 1     
    9    4    5 1     
   10    4    6 1     
   11    6    7 1     
   12    6    9 2     
   13    7    8 2     
   14    7   14 1     
@<TRIPOS>SUBSTRUCTURE
      1 ****           1
@<TRIPOS>COMMENT
> <Gold.Version>
2022.2.0

> <Gold.Id.Protein>
1qkm|1qkm_protein|mol2

> <Gold.Protein.RotatedTorsions>
[  496  491  490  487 ] final   48.17 input  -89.99 | X-H torsion

> <Gold.Protein.ActiveResidues>
 MET295  LEU298  THR299  LEU301  ALA302  GLU305  TRP335  MET336  LEU339  MET340 
 GLY342  LEU343  ARG346  PHE356  ILE373  ILE376  PHE377  LEU380  LYS471  GLY472 
 MET473  HIS475  LEU476  LEU477  ASN478  MET479  VAL484  VAL487 

> <Gold.Protein.RotatedAtoms>
   36.4594   33.4806   42.3602 H   0  0  0  0  0  0  0  0  0  0  0  0  # atno 496  bound_to 491 

> <Gold.Score>
     Score     S(PLP)   S(hbond)     S(cho)   S(metal)  DE(clash)   DE(tors)     intcor
     29.09     -29.10       0.00       0.00       0.00       0.00       0.01       0.00

> <Gold.PLP.Fitness>
29.0887

> <Gold.PLP.PLP>
-29.1018

> <Gold.PLP.part.hbond>
0.0000

> <Gold.PLP.part.metal>
0.0000

> <Gold.PLP.part.buried>
-3.3558

> <Gold.PLP.part.nonpolar>
-26.6547

> <Gold.PLP.part.repulsive>
1.0645

> <Gold.PLP.ligand.clash>
0.0000

> <Gold.PLP.ligand.torsion>
0.0065

> <Gold.PLP.Chemscore.Hbond>
0.0000

> <Gold.PLP.Chemscore.CHOScore>
0.0000

> <Gold.PLP.Chemscore.Metal>
0.0000

> <Gold.PLP.Chemscore.Internal.Correction>
0.0000

