#       Name:                plp ligand
#       Creating user name   aseyller
#       Creation time:       Fri Apr 21 17:13:48 2023


#       File generated by GOLD software.
#

@<TRIPOS>MOLECULE
plp ligand
    14    14     1
SMALL
USER_CHARGES


@<TRIPOS>ATOM
      1 C1           2.3065   0.6144   0.0007 NONPOLAR       1 <1>                0.0000
      2 N2           0.8723   0.3155   0.0006 NONPOLAR       1 <1>                0.0000
      3 C3          -0.1150   1.2464   0.0002 NONPOLAR       1 <1>                0.0000
      4 C4          -1.2934   0.5801   0.0002 NONPOLAR       1 <1>                0.0000
      5 Cl5         -2.8882   1.2660  -0.0006 NONPOLAR       1 <1>                0.0000
      6 C6          -0.9512  -0.7959   0.0006 NONPOLAR       1 <1>                0.0000
      7 C7          -1.8866  -1.9291   0.0003 NONPOLAR       1 <1>                0.0000
      8 O8          -1.4626  -3.0654   0.0006 ACCEPTOR       1 <1>                0.0000
      9 N9           0.3677  -0.8659  -0.0048 ACCEPTOR       1 <1>                0.0000
     10 H10          2.6621   0.6888   1.0284                1 <1>                0.0000
     11 H11          2.8439  -0.1828  -0.5129                1 <1>                0.0000
     12 H12          2.4806   1.5597  -0.5133                1 <1>                0.0000
     13 H13          0.0151   2.3186   0.0003                1 <1>                0.0000
     14 H14         -2.9517  -1.7502  -0.0002                1 <1>                0.0000
@<TRIPOS>BOND
    1    1    2 1     
    2    1   10 1     
    3    1   11 1     
    4    1   12 1     
    5    2    3 1     
    6    2    9 1     
    7    3    4 2     
    8    3   13 1     
    9    4    5 1     
   10    4    6 1     
   11    6    7 1     
   12    6    9 2     
   13    7    8 2     
   14    7   14 1     
@<TRIPOS>SUBSTRUCTURE
      1 ****           1
@<TRIPOS>SET
DONOR_HYDROGENS      STATIC     ATOMS    <user>   **** ""
0
ATOM$RED        STATIC     ATOMS    COLORGROUP SYSTEM
0
