#       Name:                EN300-05313_i001
#       Creating user name   fsindt
#       Creation time:       Tue Feb 28 02:44:29 2023


#       File generated by GOLD software.
#

@<TRIPOS>MOLECULE
EN300-05313_i001|amine_7|mol2|3004|dock9
    33    34     1
SMALL
USER_CHARGES


@<TRIPOS>ATOM
      1 C1           2.0196 -16.9742  14.4002 C.3            1 <1>                0.0000
      2 C2           0.4921 -17.0585  14.3814 C.3            1 <1>                0.0000
      3 C3          -0.0813 -15.7863  13.7541 C.3            1 <1>                0.0000
      4 O4           0.0871 -18.1929  13.6124 O.3            1 <1>                0.0000
      5 C5           0.3758 -19.4100  14.1177 C.2            1 <1>                0.0000
      6 O6           0.9558 -19.5044  15.1831 O.2            1 <1>                0.0000
      7 C7          -0.0083 -20.6159  13.3849 C.2            1 <1>                0.0000
      8 C8          -0.2679 -20.6295  12.0405 C.2            1 <1>                0.0000
      9 N9          -0.2016 -19.5230  11.2164 N.pl3          1 <1>                0.0000
     10 S10         -0.6831 -22.1977  11.5242 S.3            1 <1>                0.0000
     11 C11         -0.5097 -22.8671  13.1383 C.2            1 <1>                0.0000
     12 C12         -0.7344 -24.3226  13.5014 C.3            1 <1>                0.0000
     13 C13         -0.0968 -24.5934  14.8667 C.3            1 <1>                0.0000
     14 C14         -0.5651 -23.5232  15.8574 C.3            1 <1>                0.0000
     15 C15          0.0772 -22.1836  15.4904 C.3            1 <1>                0.0000
     16 C16         -0.1464 -21.9207  14.0097 C.2            1 <1>                0.0000
     17 H17          2.3284 -16.1089  14.9867 H              1 <1>                0.0000
     18 H18          2.4281 -17.8805  14.8471 H              1 <1>                0.0000
     19 H19          2.3905 -16.8729  13.3802 H              1 <1>                0.0000
     20 H20          0.1211 -17.1597  15.4013 H              1 <1>                0.0000
     21 H21         -1.1696 -15.8464  13.7408 H              1 <1>                0.0000
     22 H22          0.2275 -14.9210  14.3407 H              1 <1>                0.0000
     23 H23          0.2895 -15.6850  12.7342 H              1 <1>                0.0000
     24 H24         -1.8041 -24.5261  13.5507 H              1 <1>                0.0000
     25 H25         -0.2728 -24.9624  12.7491 H              1 <1>                0.0000
     26 H26         -0.4012 -25.5778  15.2225 H              1 <1>                0.0000
     27 H27          0.9887 -24.5564  14.7761 H              1 <1>                0.0000
     28 H28         -1.6503 -23.4322  15.8092 H              1 <1>                0.0000
     29 H29         -0.2668 -23.8058  16.8669 H              1 <1>                0.0000
     30 H30         -0.3781 -21.3867  16.0785 H              1 <1>                0.0000
     31 H31          1.1475 -22.2239  15.6928 H              1 <1>                0.0000
     32 H32          0.0432 -18.6590  11.5832 H              1 <1>                0.0000
     33 H33         -0.3999 -19.6098  10.2709 H              1 <1>                0.0000
@<TRIPOS>BOND
    1    1    2 1     
    2    1   17 1     
    3    1   18 1     
    4    1   19 1     
    5    2    3 1     
    6    2    4 1     
    7    2   20 1     
    8    3   21 1     
    9    3   22 1     
   10    3   23 1     
   11    4    5 1     
   12    5    6 2     
   13    5    7 1     
   14    7    8 2     
   15    7   16 1     
   16    8    9 1     
   17    8   10 1     
   18    9   32 1     
   19    9   33 1     
   20   10   11 1     
   21   11   12 1     
   22   11   16 2     
   23   12   13 1     
   24   12   24 1     
   25   12   25 1     
   26   13   14 1     
   27   13   26 1     
   28   13   27 1     
   29   14   15 1     
   30   14   28 1     
   31   14   29 1     
   32   15   16 1     
   33   15   30 1     
   34   15   31 1     
@<TRIPOS>SUBSTRUCTURE
      1 ****           1
@<TRIPOS>SET
DONOR_HYDROGENS      STATIC     ATOMS    <user>   **** ""
2 32 33
ATOM$RED        STATIC     ATOMS    COLORGROUP SYSTEM
2 32 33
@<TRIPOS>COMMENT
> <Gold.Version>
2022.2.0

> <Gold.Id.Protein>
3pbl|protein|mol2

> <Gold.Protein.RotatedTorsions>
[ 1303 1298 1297 1294 ] final -172.29 input  179.99 | X-H torsion
[ 2461 2456 2455 2452 ] final   59.56 input   30.03 | X-H torsion
[ 2515 2510 2509 2506 ] final -165.95 input  -89.99 | X-H torsion
[ 3721 3712 3711 3710 ] final   51.59 input -179.91 | X-H torsion
[ 3841 3832 3831 3830 ] final  110.92 input -179.91 | X-H torsion
[ 3767 3762 3761 3758 ] final   41.33 input  -89.99 | X-H torsion
[ 2472 2467 2466 2463 ] final -167.36 input  -89.97 | X-H torsion

> <Gold.Protein.ActiveResidues>
 VAL82   VAL86   LEU89   PHE106  VAL107  ASP110  VAL111  MET112  CYS114  THR115 
 CYS181  SER182  ILE183  PHE188  VAL189  ILE190  SER192  SER193  SER196  TRP342 
 PHE345  PHE346  HIS349  VAL350  TYR365  THR369  GLY372  TYR373 

> <Gold.Protein.RotatedAtoms>
    4.8088   -8.7791    4.6117 H   0  0  0  0  0  0  0  0  0  0  0  0  # atno 1303 bound_to 1298
    1.9114   -8.0283    7.3746 H   0  0  0  0  0  0  0  0  0  0  0  0  # atno 2461 bound_to 2456
   -5.2122   -5.4276    9.1721 H   0  0  0  0  0  0  0  0  0  0  0  0  # atno 2472 bound_to 2467
    2.4214   -9.1614    5.6745 H   0  0  0  0  0  0  0  0  0  0  0  0  # atno 2515 bound_to 2510
   -2.5506  -17.9621   13.4912 H   0  0  0  0  0  0  0  0  0  0  0  0  # atno 3721 bound_to 3712
   -4.8293  -23.1592   10.0893 H   0  0  0  0  0  0  0  0  0  0  0  0  # atno 3767 bound_to 3762
    3.0277  -20.8006    9.0402 H   0  0  0  0  0  0  0  0  0  0  0  0  # atno 3841 bound_to 3832
    4.1144  -10.2543    4.7009 LP  0  0  0  0  0  0  0  0  0  0  0  0  # atno 4297 bound_to 1298
    3.4387   -9.0881    3.7789 LP  0  0  0  0  0  0  0  0  0  0  0  0  # atno 4298 bound_to 1298
    0.3689   -8.5650    7.3722 LP  0  0  0  0  0  0  0  0  0  0  0  0  # atno 4299 bound_to 2456
    1.4577   -9.2147    8.4013 LP  0  0  0  0  0  0  0  0  0  0  0  0  # atno 4300 bound_to 2456
    2.0882   -7.5632    5.6470 LP  0  0  0  0  0  0  0  0  0  0  0  0  # atno 4301 bound_to 2510
    2.7871   -8.2741    4.3536 LP  0  0  0  0  0  0  0  0  0  0  0  0  # atno 4302 bound_to 2510
   -3.0537  -17.2976   14.8635 LP  0  0  0  0  0  0  0  0  0  0  0  0  # atno 4306 bound_to 3712
   -3.5293  -16.6911   13.4238 LP  0  0  0  0  0  0  0  0  0  0  0  0  # atno 4307 bound_to 3712
    1.4948  -20.5011    9.4095 LP  0  0  0  0  0  0  0  0  0  0  0  0  # atno 4314 bound_to 3832
    2.2371  -19.6763    8.2114 LP  0  0  0  0  0  0  0  0  0  0  0  0  # atno 4315 bound_to 3832
   -5.3358  -21.9525   11.0661 LP  0  0  0  0  0  0  0  0  0  0  0  0  # atno 4318 bound_to 3762
   -3.9623  -22.7636   11.4154 LP  0  0  0  0  0  0  0  0  0  0  0  0  # atno 4319 bound_to 3762
   -4.8460   -4.8519    7.6886 LP  0  0  0  0  0  0  0  0  0  0  0  0  # atno 4320 bound_to 2467
   -3.6588   -5.1141    8.7786 LP  0  0  0  0  0  0  0  0  0  0  0  0  # atno 4321 bound_to 2467

> <Gold.Score>
     Score     S(PLP)   S(hbond)     S(cho)   S(metal)  DE(clash)   DE(tors)     intcor
     39.31     -39.75       0.00       0.00       0.00       0.00       0.22       0.01

> <Gold.PLP.Fitness>
39.3088

> <Gold.PLP.PLP>
-39.7509

> <Gold.PLP.part.hbond>
0.0000

> <Gold.PLP.part.metal>
0.0000

> <Gold.PLP.part.buried>
-5.0643

> <Gold.PLP.part.nonpolar>
-35.0628

> <Gold.PLP.part.repulsive>
0.0855

> <Gold.PLP.ligand.clash>
0.0000

> <Gold.PLP.ligand.torsion>
0.2241

> <Gold.PLP.Chemscore.Hbond>
0.0000

> <Gold.PLP.Chemscore.CHOScore>
0.0000

> <Gold.PLP.Chemscore.Metal>
0.0000

> <Gold.PLP.Chemscore.Internal.Correction>
0.0061

