#       Name:                EN300-05313_i001
#       Creating user name   fsindt
#       Creation time:       Tue Feb 28 02:44:31 2023


#       File generated by GOLD software.
#

@<TRIPOS>MOLECULE
EN300-05313_i001|amine_7|mol2|3004|dock12
    33    34     1
SMALL
USER_CHARGES


@<TRIPOS>ATOM
      1 C1           1.9798 -15.8452  12.5551 C.3            1 <1>                0.0000
      2 C2           0.5239 -15.9143  12.0898 C.3            1 <1>                0.0000
      3 C3          -0.3922 -16.0803  13.3039 C.3            1 <1>                0.0000
      4 O4           0.1866 -14.7092  11.3998 O.3            1 <1>                0.0000
      5 C5           0.5228 -14.6357  10.0954 C.2            1 <1>                0.0000
      6 O6           1.0665 -15.5795   9.5532 O.2            1 <1>                0.0000
      7 C7           0.2338 -13.4216   9.3330 C.2            1 <1>                0.0000
      8 C8           0.7483 -13.1735   8.0885 C.2            1 <1>                0.0000
      9 N9           1.5935 -14.0249   7.4039 N.pl3          1 <1>                0.0000
     10 S10          0.2026 -11.6719   7.5008 S.3            1 <1>                0.0000
     11 C11         -0.7412 -11.3527   8.9467 C.2            1 <1>                0.0000
     12 C12         -1.5738 -10.1066   9.1804 C.3            1 <1>                0.0000
     13 C13         -2.5512 -10.3756  10.3278 C.3            1 <1>                0.0000
     14 C14         -1.7790 -10.9591  11.5149 C.3            1 <1>                0.0000
     15 C15         -1.3273 -12.3801  11.1705 C.3            1 <1>                0.0000
     16 C16         -0.6331 -12.3609   9.8179 C.2            1 <1>                0.0000
     17 H17          2.2370 -16.7644  13.0813 H              1 <1>                0.0000
     18 H18          2.6324 -15.7270  11.6901 H              1 <1>                0.0000
     19 H19          2.1071 -14.9950  13.2252 H              1 <1>                0.0000
     20 H20          0.3965 -16.7645  11.4197 H              1 <1>                0.0000
     21 H21         -1.4294 -16.1296  12.9724 H              1 <1>                0.0000
     22 H22         -0.1350 -16.9995  13.8302 H              1 <1>                0.0000
     23 H23         -0.2649 -15.2301  13.9741 H              1 <1>                0.0000
     24 H24         -0.9208  -9.2747   9.4441 H              1 <1>                0.0000
     25 H25         -2.1307  -9.8641   8.2753 H              1 <1>                0.0000
     26 H26         -3.0285  -9.4423  10.6266 H              1 <1>                0.0000
     27 H27         -3.3100 -11.0867  10.0014 H              1 <1>                0.0000
     28 H28         -0.9064 -10.3396  11.7217 H              1 <1>                0.0000
     29 H29         -2.4249 -10.9849  12.3924 H              1 <1>                0.0000
     30 H30         -0.6365 -12.7390  11.9335 H              1 <1>                0.0000
     31 H31         -2.1952 -13.0378  11.1221 H              1 <1>                0.0000
     32 H32          1.8619 -14.8669   7.8038 H              1 <1>                0.0000
     33 H33          1.9186 -13.7808   6.5232 H              1 <1>                0.0000
@<TRIPOS>BOND
    1    1    2 1     
    2    1   17 1     
    3    1   18 1     
    4    1   19 1     
    5    2    3 1     
    6    2    4 1     
    7    2   20 1     
    8    3   21 1     
    9    3   22 1     
   10    3   23 1     
   11    4    5 1     
   12    5    6 2     
   13    5    7 1     
   14    7    8 2     
   15    7   16 1     
   16    8    9 1     
   17    8   10 1     
   18    9   32 1     
   19    9   33 1     
   20   10   11 1     
   21   11   12 1     
   22   11   16 2     
   23   12   13 1     
   24   12   24 1     
   25   12   25 1     
   26   13   14 1     
   27   13   26 1     
   28   13   27 1     
   29   14   15 1     
   30   14   28 1     
   31   14   29 1     
   32   15   16 1     
   33   15   30 1     
   34   15   31 1     
@<TRIPOS>SUBSTRUCTURE
      1 ****           1
@<TRIPOS>SET
DONOR_HYDROGENS      STATIC     ATOMS    <user>   **** ""
2 32 33
ATOM$RED        STATIC     ATOMS    COLORGROUP SYSTEM
2 32 33
@<TRIPOS>COMMENT
> <Gold.Version>
2022.2.0

> <Gold.Id.Protein>
3pbl|protein|mol2

> <Gold.Protein.RotatedTorsions>
[ 1303 1298 1297 1294 ] final  158.58 input  179.99 | X-H torsion
[ 2461 2456 2455 2452 ] final  133.91 input   30.03 | X-H torsion
[ 2515 2510 2509 2506 ] final  120.64 input  -89.99 | X-H torsion
[ 3721 3712 3711 3710 ] final  -47.71 input -179.91 | X-H torsion
[ 3841 3832 3831 3830 ] final  -20.68 input -179.91 | X-H torsion
[ 3767 3762 3761 3758 ] final  -68.54 input  -89.99 | X-H torsion
[ 2472 2467 2466 2463 ] final  -48.68 input  -89.97 | X-H torsion

> <Gold.Protein.ActiveResidues>
 VAL82   VAL86   LEU89   PHE106  VAL107  ASP110  VAL111  MET112  CYS114  THR115 
 CYS181  SER182  ILE183  PHE188  VAL189  ILE190  SER192  SER193  SER196  TRP342 
 PHE345  PHE346  HIS349  VAL350  TYR365  THR369  GLY372  TYR373 

> <Gold.Protein.RotatedAtoms>
    4.9116   -9.1821    4.8395 H   0  0  0  0  0  0  0  0  0  0  0  0  # atno 1303 bound_to 1298
    2.0309   -8.8091    8.1963 H   0  0  0  0  0  0  0  0  0  0  0  0  # atno 2461 bound_to 2456
   -3.6637   -5.1224    8.7979 H   0  0  0  0  0  0  0  0  0  0  0  0  # atno 2472 bound_to 2467
    2.0426   -8.1763    6.0688 H   0  0  0  0  0  0  0  0  0  0  0  0  # atno 2515 bound_to 2510
   -2.7126  -17.4896   14.7133 H   0  0  0  0  0  0  0  0  0  0  0  0  # atno 3721 bound_to 3712
   -5.4138  -22.0025   10.9280 H   0  0  0  0  0  0  0  0  0  0  0  0  # atno 3767 bound_to 3762
    1.6012  -20.2420    9.4232 H   0  0  0  0  0  0  0  0  0  0  0  0  # atno 3841 bound_to 3832
    3.7299  -10.2297    4.4242 LP  0  0  0  0  0  0  0  0  0  0  0  0  # atno 4297 bound_to 1298
    3.7203   -8.7096    3.8277 LP  0  0  0  0  0  0  0  0  0  0  0  0  # atno 4298 bound_to 1298
    1.2615   -7.9331    7.0525 LP  0  0  0  0  0  0  0  0  0  0  0  0  # atno 4299 bound_to 2456
    0.4456   -9.0660    7.8995 LP  0  0  0  0  0  0  0  0  0  0  0  0  # atno 4300 bound_to 2456
    2.5365   -7.6222    4.6145 LP  0  0  0  0  0  0  0  0  0  0  0  0  # atno 4301 bound_to 2510
    2.7178   -9.2007    4.9915 LP  0  0  0  0  0  0  0  0  0  0  0  0  # atno 4302 bound_to 2510
   -3.5655  -16.5855   13.6969 LP  0  0  0  0  0  0  0  0  0  0  0  0  # atno 4306 bound_to 3712
   -2.8304  -17.9487   13.1793 LP  0  0  0  0  0  0  0  0  0  0  0  0  # atno 4307 bound_to 3712
    2.4563  -19.7622    8.1525 LP  0  0  0  0  0  0  0  0  0  0  0  0  # atno 4314 bound_to 3832
    2.9234  -21.0606    9.0258 LP  0  0  0  0  0  0  0  0  0  0  0  0  # atno 4315 bound_to 3832
   -4.0253  -22.6388   11.5059 LP  0  0  0  0  0  0  0  0  0  0  0  0  # atno 4318 bound_to 3762
   -4.6885  -23.2335   10.1372 LP  0  0  0  0  0  0  0  0  0  0  0  0  # atno 4319 bound_to 3762
   -5.2277   -5.4234    9.1578 LP  0  0  0  0  0  0  0  0  0  0  0  0  # atno 4320 bound_to 2467
   -4.8253   -4.8478    7.6835 LP  0  0  0  0  0  0  0  0  0  0  0  0  # atno 4321 bound_to 2467

> <Gold.Score>
     Score     S(PLP)   S(hbond)     S(cho)   S(metal)  DE(clash)   DE(tors)     intcor
     45.93     -46.56       0.00       0.00       0.00       0.00       0.32       0.01

> <Gold.PLP.Fitness>
45.9289

> <Gold.PLP.PLP>
-46.5551

> <Gold.PLP.part.hbond>
-0.0064

> <Gold.PLP.part.metal>
0.0000

> <Gold.PLP.part.buried>
-5.2997

> <Gold.PLP.part.nonpolar>
-46.4881

> <Gold.PLP.part.repulsive>
4.2353

> <Gold.PLP.ligand.clash>
0.0000

> <Gold.PLP.ligand.torsion>
0.3159

> <Gold.PLP.Chemscore.Hbond>
0.0000

> <Gold.PLP.Chemscore.CHOScore>
0.0000

> <Gold.PLP.Chemscore.Metal>
0.0000

> <Gold.PLP.Chemscore.Internal.Correction>
0.0056

