#       Name:                EN300-05313_i001
#       Creating user name   fsindt
#       Creation time:       Tue Feb 28 02:44:30 2023


#       File generated by GOLD software.
#

@<TRIPOS>MOLECULE
EN300-05313_i001|amine_7|mol2|3004|dock10
    33    34     1
SMALL
USER_CHARGES


@<TRIPOS>ATOM
      1 C1          -0.1180 -16.9098  14.0990 C.3            1 <1>                0.0000
      2 C2           0.9073 -15.8634  13.6577 C.3            1 <1>                0.0000
      3 C3           2.1220 -16.5651  13.0472 C.3            1 <1>                0.0000
      4 O4           0.3172 -14.9994  12.6842 O.3            1 <1>                0.0000
      5 C5           0.0369 -15.5362  11.4787 C.2            1 <1>                0.0000
      6 O6          -0.0423 -16.7439  11.3540 O.2            1 <1>                0.0000
      7 C7          -0.1716 -14.6665  10.3216 C.2            1 <1>                0.0000
      8 C8           0.0663 -15.0594   9.0316 C.2            1 <1>                0.0000
      9 N9           0.5267 -16.3085   8.6631 N.pl3          1 <1>                0.0000
     10 S10         -0.2841 -13.7973   7.9443 S.3            1 <1>                0.0000
     11 C11         -0.7635 -12.7055   9.2334 C.2            1 <1>                0.0000
     12 C12         -1.2398 -11.2800   9.0292 C.3            1 <1>                0.0000
     13 C13         -1.9444 -10.8090  10.3042 C.3            1 <1>                0.0000
     14 C14         -1.0451 -11.1024  11.5089 C.3            1 <1>                0.0000
     15 C15         -0.9927 -12.6142  11.7400 C.3            1 <1>                0.0000
     16 C16         -0.6578 -13.3010  10.4255 C.2            1 <1>                0.0000
     17 H17          0.3322 -17.5687  14.8415 H              1 <1>                0.0000
     18 H18         -0.9833 -16.4098  14.5339 H              1 <1>                0.0000
     19 H19         -0.4329 -17.4964  13.2359 H              1 <1>                0.0000
     20 H20          1.2223 -15.2768  14.5207 H              1 <1>                0.0000
     21 H21          2.8524 -15.8196  12.7328 H              1 <1>                0.0000
     22 H22          2.5721 -17.2241  13.7897 H              1 <1>                0.0000
     23 H23          1.8071 -17.1517  12.1842 H              1 <1>                0.0000
     24 H24         -0.3855 -10.6349   8.8241 H              1 <1>                0.0000
     25 H25         -1.9369 -11.2439   8.1919 H              1 <1>                0.0000
     26 H26         -2.1325  -9.7370  10.2422 H              1 <1>                0.0000
     27 H27         -2.8892 -11.3405  10.4164 H              1 <1>                0.0000
     28 H28         -0.0401 -10.7289  11.3127 H              1 <1>                0.0000
     29 H29         -1.4505 -10.6124  12.3941 H              1 <1>                0.0000
     30 H30         -0.2270 -12.8443  12.4809 H              1 <1>                0.0000
     31 H31         -1.9628 -12.9637  12.0936 H              1 <1>                0.0000
     32 H32          0.7046 -16.9792   9.3409 H              1 <1>                0.0000
     33 H33          0.6722 -16.5150   7.7266 H              1 <1>                0.0000
@<TRIPOS>BOND
    1    1    2 1     
    2    1   17 1     
    3    1   18 1     
    4    1   19 1     
    5    2    3 1     
    6    2    4 1     
    7    2   20 1     
    8    3   21 1     
    9    3   22 1     
   10    3   23 1     
   11    4    5 1     
   12    5    6 2     
   13    5    7 1     
   14    7    8 2     
   15    7   16 1     
   16    8    9 1     
   17    8   10 1     
   18    9   32 1     
   19    9   33 1     
   20   10   11 1     
   21   11   12 1     
   22   11   16 2     
   23   12   13 1     
   24   12   24 1     
   25   12   25 1     
   26   13   14 1     
   27   13   26 1     
   28   13   27 1     
   29   14   15 1     
   30   14   28 1     
   31   14   29 1     
   32   15   16 1     
   33   15   30 1     
   34   15   31 1     
@<TRIPOS>SUBSTRUCTURE
      1 ****           1
@<TRIPOS>SET
DONOR_HYDROGENS      STATIC     ATOMS    <user>   **** ""
2 32 33
ATOM$RED        STATIC     ATOMS    COLORGROUP SYSTEM
2 32 33
@<TRIPOS>COMMENT
> <Gold.Version>
2022.2.0

> <Gold.Id.Protein>
3pbl|protein|mol2

> <Gold.Protein.RotatedTorsions>
[ 1303 1298 1297 1294 ] final   84.51 input  179.99 | X-H torsion
[ 2461 2456 2455 2452 ] final  136.91 input   30.03 | X-H torsion
[ 2515 2510 2509 2506 ] final   45.87 input  -89.99 | X-H torsion
[ 3721 3712 3711 3710 ] final  -25.26 input -179.91 | X-H torsion
[ 3841 3832 3831 3830 ] final  141.42 input -179.91 | X-H torsion
[ 3767 3762 3761 3758 ] final  164.34 input  -89.99 | X-H torsion
[ 2472 2467 2466 2463 ] final  141.00 input  -89.97 | X-H torsion

> <Gold.Protein.ActiveResidues>
 VAL82   VAL86   LEU89   PHE106  VAL107  ASP110  VAL111  MET112  CYS114  THR115 
 CYS181  SER182  ILE183  PHE188  VAL189  ILE190  SER192  SER193  SER196  TRP342 
 PHE345  PHE346  HIS349  VAL350  TYR365  THR369  GLY372  TYR373 

> <Gold.Protein.RotatedAtoms>
    4.3431  -10.1648    4.8258 H   0  0  0  0  0  0  0  0  0  0  0  0  # atno 1303 bound_to 1298
    2.0052   -8.8431    8.2212 H   0  0  0  0  0  0  0  0  0  0  0  0  # atno 2461 bound_to 2456
   -5.5069   -5.1966    8.4411 H   0  0  0  0  0  0  0  0  0  0  0  0  # atno 2472 bound_to 2467
    2.2290   -7.4129    5.2369 H   0  0  0  0  0  0  0  0  0  0  0  0  # atno 2515 bound_to 2510
   -2.5782  -17.7501   14.5464 H   0  0  0  0  0  0  0  0  0  0  0  0  # atno 3721 bound_to 3712
   -3.9781  -22.7263   11.4440 H   0  0  0  0  0  0  0  0  0  0  0  0  # atno 3767 bound_to 3762
    3.1333  -20.5051    8.7102 H   0  0  0  0  0  0  0  0  0  0  0  0  # atno 3841 bound_to 3832
    3.3519   -9.3463    3.8187 LP  0  0  0  0  0  0  0  0  0  0  0  0  # atno 4297 bound_to 1298
    4.6671   -8.6099    4.4469 LP  0  0  0  0  0  0  0  0  0  0  0  0  # atno 4298 bound_to 1298
    1.3094   -7.9263    7.0624 LP  0  0  0  0  0  0  0  0  0  0  0  0  # atno 4299 bound_to 2456
    0.4234   -9.0389    7.8647 LP  0  0  0  0  0  0  0  0  0  0  0  0  # atno 4300 bound_to 2456
    2.8359   -8.7170    4.4644 LP  0  0  0  0  0  0  0  0  0  0  0  0  # atno 4301 bound_to 2510
    2.2320   -8.8697    5.9739 LP  0  0  0  0  0  0  0  0  0  0  0  0  # atno 4302 bound_to 2510
   -3.5462  -16.5616   14.0685 LP  0  0  0  0  0  0  0  0  0  0  0  0  # atno 4306 bound_to 3712
   -3.0049  -17.6720   13.0005 LP  0  0  0  0  0  0  0  0  0  0  0  0  # atno 4307 bound_to 3712
    1.8109  -20.8695    9.5436 LP  0  0  0  0  0  0  0  0  0  0  0  0  # atno 4314 bound_to 3832
    1.7990  -19.6493    8.4584 LP  0  0  0  0  0  0  0  0  0  0  0  0  # atno 4315 bound_to 3832
   -4.7878  -23.1835   10.1016 LP  0  0  0  0  0  0  0  0  0  0  0  0  # atno 4318 bound_to 3762
   -5.3612  -21.9654   11.0257 LP  0  0  0  0  0  0  0  0  0  0  0  0  # atno 4319 bound_to 3762
   -4.0389   -4.8161    7.8357 LP  0  0  0  0  0  0  0  0  0  0  0  0  # atno 4320 bound_to 2467
   -4.1712   -5.3808    9.3622 LP  0  0  0  0  0  0  0  0  0  0  0  0  # atno 4321 bound_to 2467

> <Gold.Score>
     Score     S(PLP)   S(hbond)     S(cho)   S(metal)  DE(clash)   DE(tors)     intcor
     46.44     -46.69       0.32       0.00       0.00       0.00       0.61       0.01

> <Gold.PLP.Fitness>
46.4397

> <Gold.PLP.PLP>
-46.6932

> <Gold.PLP.part.hbond>
-1.0000

> <Gold.PLP.part.metal>
0.0000

> <Gold.PLP.part.buried>
-4.0767

> <Gold.PLP.part.nonpolar>
-42.0341

> <Gold.PLP.part.repulsive>
0.1361

> <Gold.PLP.ligand.clash>
0.0000

> <Gold.PLP.ligand.torsion>
0.6098

> <Gold.PLP.Chemscore.Hbond>
0.3200

> <Gold.PLP.Chemscore.CHOScore>
0.0000

> <Gold.PLP.Chemscore.Metal>
0.0000

> <Gold.Chemscore.Hbonds>
donor molecule, donor type, donor heavy atom, donor atom, acceptor molecule, acceptor atom, score
      L1  H     9    32       P1  1227  0.32

> <Gold.PLP.Chemscore.Internal.Correction>
0.0061

