#       Name:                EN300-05313_i001
#       Creating user name   fsindt
#       Creation time:       Tue Feb 28 02:44:28 2023


#       File generated by GOLD software.
#

@<TRIPOS>MOLECULE
EN300-05313_i001|amine_7|mol2|3004|dock7
    33    34     1
SMALL
USER_CHARGES


@<TRIPOS>ATOM
      1 C1          -0.3283 -17.4298  11.8589 C.3            1 <1>                0.0000
      2 C2           0.2299 -16.1028  12.3769 C.3            1 <1>                0.0000
      3 C3           1.6552 -16.3149  12.8908 C.3            1 <1>                0.0000
      4 O4           0.2435 -15.1453  11.3161 O.3            1 <1>                0.0000
      5 C5          -0.4194 -13.9893  11.5260 C.2            1 <1>                0.0000
      6 O6          -1.0005 -13.8036  12.5787 O.2            1 <1>                0.0000
      7 C7          -0.4396 -12.9591  10.4882 C.2            1 <1>                0.0000
      8 C8          -1.0259 -11.7330  10.6555 C.2            1 <1>                0.0000
      9 N9          -1.6639 -11.3181  11.8082 N.pl3          1 <1>                0.0000
     10 S10         -0.8599 -10.7901   9.2478 S.3            1 <1>                0.0000
     11 C11          0.0157 -12.0550   8.4012 C.2            1 <1>                0.0000
     12 C12          0.5390 -11.9455   6.9817 C.3            1 <1>                0.0000
     13 C13          1.5779 -13.0467   6.7538 C.3            1 <1>                0.0000
     14 C14          0.9906 -14.3879   7.2036 C.3            1 <1>                0.0000
     15 C15          0.8759 -14.3994   8.7295 C.3            1 <1>                0.0000
     16 C16          0.1661 -13.1321   9.1786 C.2            1 <1>                0.0000
     17 H17         -0.3387 -18.1601  12.6681 H              1 <1>                0.0000
     18 H18         -1.3438 -17.2787  11.4929 H              1 <1>                0.0000
     19 H19          0.2999 -17.7960  11.0470 H              1 <1>                0.0000
     20 H20         -0.3983 -15.7365  13.1889 H              1 <1>                0.0000
     21 H21          2.0529 -15.3694  13.2598 H              1 <1>                0.0000
     22 H22          1.6449 -17.0451  13.6999 H              1 <1>                0.0000
     23 H23          2.2835 -16.6811  12.0788 H              1 <1>                0.0000
     24 H24         -0.2843 -12.0685   6.2781 H              1 <1>                0.0000
     25 H25          1.0031 -10.9697   6.8375 H              1 <1>                0.0000
     26 H26          1.8304 -13.0962   5.6945 H              1 <1>                0.0000
     27 H27          2.4743 -12.8282   7.3340 H              1 <1>                0.0000
     28 H28          0.0022 -14.5188   6.7630 H              1 <1>                0.0000
     29 H29          1.6444 -15.1983   6.8813 H              1 <1>                0.0000
     30 H30          0.3057 -15.2726   9.0466 H              1 <1>                0.0000
     31 H31          1.8722 -14.4314   9.1706 H              1 <1>                0.0000
     32 H32         -1.7189 -11.9123  12.5729 H              1 <1>                0.0000
     33 H33         -2.0569 -10.4324  11.8531 H              1 <1>                0.0000
@<TRIPOS>BOND
    1    1    2 1     
    2    1   17 1     
    3    1   18 1     
    4    1   19 1     
    5    2    3 1     
    6    2    4 1     
    7    2   20 1     
    8    3   21 1     
    9    3   22 1     
   10    3   23 1     
   11    4    5 1     
   12    5    6 2     
   13    5    7 1     
   14    7    8 2     
   15    7   16 1     
   16    8    9 1     
   17    8   10 1     
   18    9   32 1     
   19    9   33 1     
   20   10   11 1     
   21   11   12 1     
   22   11   16 2     
   23   12   13 1     
   24   12   24 1     
   25   12   25 1     
   26   13   14 1     
   27   13   26 1     
   28   13   27 1     
   29   14   15 1     
   30   14   28 1     
   31   14   29 1     
   32   15   16 1     
   33   15   30 1     
   34   15   31 1     
@<TRIPOS>SUBSTRUCTURE
      1 ****           1
@<TRIPOS>SET
DONOR_HYDROGENS      STATIC     ATOMS    <user>   **** ""
2 32 33
ATOM$RED        STATIC     ATOMS    COLORGROUP SYSTEM
2 32 33
@<TRIPOS>COMMENT
> <Gold.Version>
2022.2.0

> <Gold.Id.Protein>
3pbl|protein|mol2

> <Gold.Protein.RotatedTorsions>
[ 1303 1298 1297 1294 ] final    1.74 input  179.99 | X-H torsion
[ 2461 2456 2455 2452 ] final -137.18 input   30.03 | X-H torsion
[ 2515 2510 2509 2506 ] final  113.01 input  -89.99 | X-H torsion
[ 3721 3712 3711 3710 ] final   60.67 input -179.91 | X-H torsion
[ 3841 3832 3831 3830 ] final   28.77 input -179.91 | X-H torsion
[ 3767 3762 3761 3758 ] final -126.27 input  -89.99 | X-H torsion
[ 2472 2467 2466 2463 ] final   18.33 input  -89.97 | X-H torsion

> <Gold.Protein.ActiveResidues>
 VAL82   VAL86   LEU89   PHE106  VAL107  ASP110  VAL111  MET112  CYS114  THR115 
 CYS181  SER182  ILE183  PHE188  VAL189  ILE190  SER192  SER193  SER196  TRP342 
 PHE345  PHE346  HIS349  VAL350  TYR365  THR369  GLY372  TYR373 

> <Gold.Protein.RotatedAtoms>
    3.3954   -9.8950    4.0625 H   0  0  0  0  0  0  0  0  0  0  0  0  # atno 1303 bound_to 1298
    0.7897   -9.2608    8.2142 H   0  0  0  0  0  0  0  0  0  0  0  0  # atno 2461 bound_to 2456
   -4.0034   -4.8221    7.8610 H   0  0  0  0  0  0  0  0  0  0  0  0  # atno 2472 bound_to 2467
    2.0322   -8.0568    6.0325 H   0  0  0  0  0  0  0  0  0  0  0  0  # atno 2515 bound_to 2510
   -2.5948  -17.9028   13.3757 H   0  0  0  0  0  0  0  0  0  0  0  0  # atno 3721 bound_to 3712
   -4.7616  -22.0021   11.5630 H   0  0  0  0  0  0  0  0  0  0  0  0  # atno 3767 bound_to 3762
    2.0504  -20.7742    9.6217 H   0  0  0  0  0  0  0  0  0  0  0  0  # atno 3841 bound_to 3832
    4.2095   -8.4796    4.0784 LP  0  0  0  0  0  0  0  0  0  0  0  0  # atno 4297 bound_to 1298
    4.7575   -9.7466    4.9508 LP  0  0  0  0  0  0  0  0  0  0  0  0  # atno 4298 bound_to 1298
    2.1612   -8.4416    7.8746 LP  0  0  0  0  0  0  0  0  0  0  0  0  # atno 4299 bound_to 2456
    0.7867   -8.1059    7.0594 LP  0  0  0  0  0  0  0  0  0  0  0  0  # atno 4300 bound_to 2456
    2.5873   -7.7070    4.5374 LP  0  0  0  0  0  0  0  0  0  0  0  0  # atno 4301 bound_to 2510
    2.6774   -9.2355    5.1050 LP  0  0  0  0  0  0  0  0  0  0  0  0  # atno 4302 bound_to 2510
   -2.9785  -17.4292   14.8611 LP  0  0  0  0  0  0  0  0  0  0  0  0  # atno 4306 bound_to 3712
   -3.5534  -16.6280   13.5595 LP  0  0  0  0  0  0  0  0  0  0  0  0  # atno 4307 bound_to 3712
    1.7439  -19.6630    8.5048 LP  0  0  0  0  0  0  0  0  0  0  0  0  # atno 4314 bound_to 3832
    3.1169  -20.5450    8.4443 LP  0  0  0  0  0  0  0  0  0  0  0  0  # atno 4315 bound_to 3832
   -3.9898  -23.2331   10.8175 LP  0  0  0  0  0  0  0  0  0  0  0  0  # atno 4318 bound_to 3762
   -5.3761  -22.6397   10.1909 LP  0  0  0  0  0  0  0  0  0  0  0  0  # atno 4319 bound_to 3762
   -4.2110   -5.3907    9.3776 LP  0  0  0  0  0  0  0  0  0  0  0  0  # atno 4320 bound_to 2467
   -5.5024   -5.1806    8.4004 LP  0  0  0  0  0  0  0  0  0  0  0  0  # atno 4321 bound_to 2467

> <Gold.Score>
     Score     S(PLP)   S(hbond)     S(cho)   S(metal)  DE(clash)   DE(tors)     intcor
     44.22     -45.71       0.00       0.00       0.00       0.00       0.75       0.01

> <Gold.PLP.Fitness>
44.2151

> <Gold.PLP.PLP>
-45.7076

> <Gold.PLP.part.hbond>
-1.0000

> <Gold.PLP.part.metal>
0.0000

> <Gold.PLP.part.buried>
-1.5124

> <Gold.PLP.part.nonpolar>
-44.4058

> <Gold.PLP.part.repulsive>
0.2908

> <Gold.PLP.ligand.clash>
0.0000

> <Gold.PLP.ligand.torsion>
0.7493

> <Gold.PLP.Chemscore.Hbond>
0.0000

> <Gold.PLP.Chemscore.CHOScore>
0.0000

> <Gold.PLP.Chemscore.Metal>
0.0000

> <Gold.PLP.Chemscore.Internal.Correction>
0.0061

