#       Name:                EN300-05313_i001
#       Creating user name   fsindt
#       Creation time:       Tue Feb 28 02:44:29 2023


#       File generated by GOLD software.
#

@<TRIPOS>MOLECULE
EN300-05313_i001|amine_7|mol2|3004|dock8
    33    34     1
SMALL
USER_CHARGES


@<TRIPOS>ATOM
      1 C1           1.2561 -16.1497  14.0904 C.3            1 <1>                0.0000
      2 C2          -0.0997 -16.3187  13.4019 C.3            1 <1>                0.0000
      3 C3          -0.2846 -15.2129  12.3609 C.3            1 <1>                0.0000
      4 O4          -0.1510 -17.5931  12.7572 O.3            1 <1>                0.0000
      5 C5          -0.4035 -18.6643  13.5374 C.2            1 <1>                0.0000
      6 O6          -0.6982 -18.5089  14.7075 O.2            1 <1>                0.0000
      7 C7          -0.3228 -20.0126  12.9766 C.2            1 <1>                0.0000
      8 C8           0.1048 -20.2739  11.7023 C.2            1 <1>                0.0000
      9 N9           0.5086 -19.3123  10.7966 N.pl3          1 <1>                0.0000
     10 S10          0.0710 -21.9466  11.3878 S.3            1 <1>                0.0000
     11 C11         -0.5292 -22.3229  12.9946 C.2            1 <1>                0.0000
     12 C12         -0.8299 -23.7203  13.5019 C.3            1 <1>                0.0000
     13 C13         -0.9239 -23.6798  15.0295 C.3            1 <1>                0.0000
     14 C14         -1.8669 -22.5454  15.4417 C.3            1 <1>                0.0000
     15 C15         -1.1943 -21.2022  15.1500 C.3            1 <1>                0.0000
     16 C16         -0.6826 -21.2094  13.7183 C.2            1 <1>                0.0000
     17 H17          1.2952 -15.1777  14.5820 H              1 <1>                0.0000
     18 H18          1.3877 -16.9375  14.8320 H              1 <1>                0.0000
     19 H19          2.0512 -16.2134  13.3475 H              1 <1>                0.0000
     20 H20         -0.8949 -16.2550  14.1447 H              1 <1>                0.0000
     21 H21         -1.2506 -15.3333  11.8704 H              1 <1>                0.0000
     22 H22         -0.2455 -14.2408  12.8526 H              1 <1>                0.0000
     23 H23          0.5106 -15.2765  11.6180 H              1 <1>                0.0000
     24 H24         -1.7771 -24.0642  13.0865 H              1 <1>                0.0000
     25 H25         -0.0299 -24.3977  13.2029 H              1 <1>                0.0000
     26 H26         -1.3138 -24.6294  15.3962 H              1 <1>                0.0000
     27 H27          0.0654 -23.5029  15.4513 H              1 <1>                0.0000
     28 H28         -2.7948 -22.6189  14.8744 H              1 <1>                0.0000
     29 H29         -2.0834 -22.6206  16.5072 H              1 <1>                0.0000
     30 H30         -1.9167 -20.3961  15.2785 H              1 <1>                0.0000
     31 H31         -0.3568 -21.0571  15.8325 H              1 <1>                0.0000
     32 H32          0.5012 -18.3755  11.0481 H              1 <1>                0.0000
     33 H33          0.7995 -19.5738   9.9090 H              1 <1>                0.0000
@<TRIPOS>BOND
    1    1    2 1     
    2    1   17 1     
    3    1   18 1     
    4    1   19 1     
    5    2    3 1     
    6    2    4 1     
    7    2   20 1     
    8    3   21 1     
    9    3   22 1     
   10    3   23 1     
   11    4    5 1     
   12    5    6 2     
   13    5    7 1     
   14    7    8 2     
   15    7   16 1     
   16    8    9 1     
   17    8   10 1     
   18    9   32 1     
   19    9   33 1     
   20   10   11 1     
   21   11   12 1     
   22   11   16 2     
   23   12   13 1     
   24   12   24 1     
   25   12   25 1     
   26   13   14 1     
   27   13   26 1     
   28   13   27 1     
   29   14   15 1     
   30   14   28 1     
   31   14   29 1     
   32   15   16 1     
   33   15   30 1     
   34   15   31 1     
@<TRIPOS>SUBSTRUCTURE
      1 ****           1
@<TRIPOS>SET
DONOR_HYDROGENS      STATIC     ATOMS    <user>   **** ""
2 32 33
ATOM$RED        STATIC     ATOMS    COLORGROUP SYSTEM
2 32 33
@<TRIPOS>COMMENT
> <Gold.Version>
2022.2.0

> <Gold.Id.Protein>
3pbl|protein|mol2

> <Gold.Protein.RotatedTorsions>
[ 1303 1298 1297 1294 ] final  -57.27 input  179.99 | X-H torsion
[ 2461 2456 2455 2452 ] final  119.93 input   30.03 | X-H torsion
[ 2515 2510 2509 2506 ] final  156.09 input  -89.99 | X-H torsion
[ 3721 3712 3711 3710 ] final  -20.37 input -179.91 | X-H torsion
[ 3841 3832 3831 3830 ] final  123.60 input -179.91 | X-H torsion
[ 3767 3762 3761 3758 ] final   -2.23 input  -89.99 | X-H torsion
[ 2472 2467 2466 2463 ] final  -34.43 input  -89.97 | X-H torsion

> <Gold.Protein.ActiveResidues>
 VAL82   VAL86   LEU89   PHE106  VAL107  ASP110  VAL111  MET112  CYS114  THR115 
 CYS181  SER182  ILE183  PHE188  VAL189  ILE190  SER192  SER193  SER196  TRP342 
 PHE345  PHE346  HIS349  VAL350  TYR365  THR369  GLY372  TYR373 

> <Gold.Protein.RotatedAtoms>
    3.4760   -9.0151    3.7771 H   0  0  0  0  0  0  0  0  0  0  0  0  # atno 1303 bound_to 1298
    2.1215   -8.6449    8.0639 H   0  0  0  0  0  0  0  0  0  0  0  0  # atno 2461 bound_to 2456
   -3.6345   -5.0409    8.5806 H   0  0  0  0  0  0  0  0  0  0  0  0  # atno 2472 bound_to 2467
    2.1755   -8.7337    6.0386 H   0  0  0  0  0  0  0  0  0  0  0  0  # atno 2515 bound_to 2510
   -2.5550  -17.7986   14.4957 H   0  0  0  0  0  0  0  0  0  0  0  0  # atno 3721 bound_to 3712
   -5.3428  -22.6892   10.1616 H   0  0  0  0  0  0  0  0  0  0  0  0  # atno 3767 bound_to 3762
    3.0975  -20.6917    8.8995 H   0  0  0  0  0  0  0  0  0  0  0  0  # atno 3841 bound_to 3832
    4.8406   -8.8399    4.6567 LP  0  0  0  0  0  0  0  0  0  0  0  0  # atno 4297 bound_to 1298
    4.0458  -10.2664    4.6580 LP  0  0  0  0  0  0  0  0  0  0  0  0  # atno 4298 bound_to 1298
    1.0399   -7.9888    7.0308 LP  0  0  0  0  0  0  0  0  0  0  0  0  # atno 4299 bound_to 2456
    0.5766   -9.1745    8.0536 LP  0  0  0  0  0  0  0  0  0  0  0  0  # atno 4300 bound_to 2456
    2.2910   -7.4109    5.0885 LP  0  0  0  0  0  0  0  0  0  0  0  0  # atno 4301 bound_to 2510
    2.8303   -8.8543    4.5478 LP  0  0  0  0  0  0  0  0  0  0  0  0  # atno 4302 bound_to 2510
   -3.5324  -16.5732   14.1482 LP  0  0  0  0  0  0  0  0  0  0  0  0  # atno 4306 bound_to 3712
   -3.0455  -17.6043   12.9793 LP  0  0  0  0  0  0  0  0  0  0  0  0  # atno 4307 bound_to 3712
    1.6044  -20.6641    9.4876 LP  0  0  0  0  0  0  0  0  0  0  0  0  # atno 4314 bound_to 3832
    2.0469  -19.6391    8.2958 LP  0  0  0  0  0  0  0  0  0  0  0  0  # atno 4315 bound_to 3832
   -4.8182  -21.9801   11.5360 LP  0  0  0  0  0  0  0  0  0  0  0  0  # atno 4318 bound_to 3762
   -3.9667  -23.2058   10.8732 LP  0  0  0  0  0  0  0  0  0  0  0  0  # atno 4319 bound_to 3762
   -5.0425   -5.4533    9.2974 LP  0  0  0  0  0  0  0  0  0  0  0  0  # atno 4320 bound_to 2467
   -5.0398   -4.8994    7.7612 LP  0  0  0  0  0  0  0  0  0  0  0  0  # atno 4321 bound_to 2467

> <Gold.Score>
     Score     S(PLP)   S(hbond)     S(cho)   S(metal)  DE(clash)   DE(tors)     intcor
     41.22     -35.68       2.00       0.00       0.00       0.00       0.23       0.01

> <Gold.PLP.Fitness>
41.2170

> <Gold.PLP.PLP>
-35.6780

> <Gold.PLP.part.hbond>
-3.0113

> <Gold.PLP.part.metal>
0.0000

> <Gold.PLP.part.buried>
-2.6056

> <Gold.PLP.part.nonpolar>
-30.0926

> <Gold.PLP.part.repulsive>
0.0474

> <Gold.PLP.ligand.clash>
0.0000

> <Gold.PLP.ligand.torsion>
0.2336

> <Gold.PLP.Chemscore.Hbond>
2.0000

> <Gold.PLP.Chemscore.CHOScore>
0.0000

> <Gold.PLP.Chemscore.Metal>
0.0000

> <Gold.Chemscore.Hbonds>
donor molecule, donor type, donor heavy atom, donor atom, acceptor molecule, acceptor atom, score
      L1  H     9    33       P1  3832  1.00
      P1  H  3712  3721       L1     6  1.00

> <Gold.PLP.Chemscore.Internal.Correction>
0.0061

