#       Name:                EN300-05313_i001
#       Creating user name   fsindt
#       Creation time:       Tue Feb 28 02:44:33 2023


#       File generated by GOLD software.
#

@<TRIPOS>MOLECULE
EN300-05313_i001|amine_7|mol2|3004|dock16
    33    34     1
SMALL
USER_CHARGES


@<TRIPOS>ATOM
      1 C1          -0.0798 -17.6412  14.9544 C.3            1 <1>                0.0000
      2 C2           0.4506 -16.5495  14.0228 C.3            1 <1>                0.0000
      3 C3           1.9756 -16.4855  14.1283 C.3            1 <1>                0.0000
      4 O4           0.0786 -16.8503  12.6762 O.3            1 <1>                0.0000
      5 C5          -0.0362 -15.8096  11.8255 C.2            1 <1>                0.0000
      6 O6          -0.0895 -14.6735  12.2577 O.2            1 <1>                0.0000
      7 C7          -0.0966 -16.0469  10.3837 C.2            1 <1>                0.0000
      8 C8          -0.4139 -17.2597   9.8327 C.2            1 <1>                0.0000
      9 N9          -0.7129 -18.3973  10.5569 N.pl3          1 <1>                0.0000
     10 S10         -0.3898 -17.1726   8.1328 S.3            1 <1>                0.0000
     11 C11          0.0551 -15.4740   8.1412 C.2            1 <1>                0.0000
     12 C12          0.2773 -14.6304   6.9004 C.3            1 <1>                0.0000
     13 C13          0.2347 -13.1520   7.2961 C.3            1 <1>                0.0000
     14 C14          1.1623 -12.9291   8.4943 C.3            1 <1>                0.0000
     15 C15          0.5491 -13.5856   9.7331 C.3            1 <1>                0.0000
     16 C16          0.1679 -15.0176   9.3926 C.2            1 <1>                0.0000
     17 H17          0.2041 -17.4117  15.9814 H              1 <1>                0.0000
     18 H18         -1.1662 -17.6868  14.8792 H              1 <1>                0.0000
     19 H19          0.3451 -18.6027  14.6661 H              1 <1>                0.0000
     20 H20          0.0258 -15.5880  14.3110 H              1 <1>                0.0000
     21 H21          2.3534 -15.7077  13.4646 H              1 <1>                0.0000
     22 H22          2.2594 -16.2560  15.1554 H              1 <1>                0.0000
     23 H23          2.4005 -17.4470  13.8401 H              1 <1>                0.0000
     24 H24          1.2499 -14.8651   6.4681 H              1 <1>                0.0000
     25 H25         -0.5077 -14.8367   6.1727 H              1 <1>                0.0000
     26 H26          0.5685 -12.5403   6.4578 H              1 <1>                0.0000
     27 H27         -0.7843 -12.8763   7.5675 H              1 <1>                0.0000
     28 H28          2.1354 -13.3753   8.2896 H              1 <1>                0.0000
     29 H29          1.2805 -11.8598   8.6696 H              1 <1>                0.0000
     30 H30          1.2751 -13.5816  10.5462 H              1 <1>                0.0000
     31 H31         -0.3428 -13.0360  10.0344 H              1 <1>                0.0000
     32 H32         -0.7070 -18.3706  11.5265 H              1 <1>                0.0000
     33 H33         -0.9288 -19.2230  10.0958 H              1 <1>                0.0000
@<TRIPOS>BOND
    1    1    2 1     
    2    1   17 1     
    3    1   18 1     
    4    1   19 1     
    5    2    3 1     
    6    2    4 1     
    7    2   20 1     
    8    3   21 1     
    9    3   22 1     
   10    3   23 1     
   11    4    5 1     
   12    5    6 2     
   13    5    7 1     
   14    7    8 2     
   15    7   16 1     
   16    8    9 1     
   17    8   10 1     
   18    9   32 1     
   19    9   33 1     
   20   10   11 1     
   21   11   12 1     
   22   11   16 2     
   23   12   13 1     
   24   12   24 1     
   25   12   25 1     
   26   13   14 1     
   27   13   26 1     
   28   13   27 1     
   29   14   15 1     
   30   14   28 1     
   31   14   29 1     
   32   15   16 1     
   33   15   30 1     
   34   15   31 1     
@<TRIPOS>SUBSTRUCTURE
      1 ****           1
@<TRIPOS>SET
DONOR_HYDROGENS      STATIC     ATOMS    <user>   **** ""
2 32 33
ATOM$RED        STATIC     ATOMS    COLORGROUP SYSTEM
2 32 33
@<TRIPOS>COMMENT
> <Gold.Version>
2022.2.0

> <Gold.Id.Protein>
3pbl|protein|mol2

> <Gold.Protein.RotatedTorsions>
[ 1303 1298 1297 1294 ] final  -72.20 input  179.99 | X-H torsion
[ 2461 2456 2455 2452 ] final -135.99 input   30.03 | X-H torsion
[ 2515 2510 2509 2506 ] final  155.52 input  -89.99 | X-H torsion
[ 3721 3712 3711 3710 ] final   38.20 input -179.91 | X-H torsion
[ 3841 3832 3831 3830 ] final -172.59 input -179.91 | X-H torsion
[ 3767 3762 3761 3758 ] final  -18.81 input  -89.99 | X-H torsion
[ 2472 2467 2466 2463 ] final  104.94 input  -89.97 | X-H torsion

> <Gold.Protein.ActiveResidues>
 VAL82   VAL86   LEU89   PHE106  VAL107  ASP110  VAL111  MET112  CYS114  THR115 
 CYS181  SER182  ILE183  PHE188  VAL189  ILE190  SER192  SER193  SER196  TRP342 
 PHE345  PHE346  HIS349  VAL350  TYR365  THR369  GLY372  TYR373 

> <Gold.Protein.RotatedAtoms>
    3.6160   -8.8151    3.7967 H   0  0  0  0  0  0  0  0  0  0  0  0  # atno 1303 bound_to 1298
    0.7733   -9.2566    8.2044 H   0  0  0  0  0  0  0  0  0  0  0  0  # atno 2461 bound_to 2456
   -5.2829   -4.9923    7.9425 H   0  0  0  0  0  0  0  0  0  0  0  0  # atno 2472 bound_to 2467
    2.1725   -8.7254    6.0417 H   0  0  0  0  0  0  0  0  0  0  0  0  # atno 2515 bound_to 2510
   -2.5018  -18.0181   13.6790 H   0  0  0  0  0  0  0  0  0  0  0  0  # atno 3721 bound_to 3712
   -5.4567  -22.4846   10.2997 H   0  0  0  0  0  0  0  0  0  0  0  0  # atno 3767 bound_to 3762
    2.8889  -19.9677    8.3803 H   0  0  0  0  0  0  0  0  0  0  0  0  # atno 3841 bound_to 3832
    4.9010   -9.0440    4.7779 LP  0  0  0  0  0  0  0  0  0  0  0  0  # atno 4297 bound_to 1298
    3.8454  -10.2624    4.5172 LP  0  0  0  0  0  0  0  0  0  0  0  0  # atno 4298 bound_to 1298
    2.1611   -8.4555    7.8884 LP  0  0  0  0  0  0  0  0  0  0  0  0  # atno 4299 bound_to 2456
    0.8032   -8.0962    7.0555 LP  0  0  0  0  0  0  0  0  0  0  0  0  # atno 4300 bound_to 2456
    2.2947   -7.4117    5.0799 LP  0  0  0  0  0  0  0  0  0  0  0  0  # atno 4301 bound_to 2510
    2.8296   -8.8619    4.5533 LP  0  0  0  0  0  0  0  0  0  0  0  0  # atno 4302 bound_to 2510
   -3.1656  -17.1086   14.8235 LP  0  0  0  0  0  0  0  0  0  0  0  0  # atno 4306 bound_to 3712
   -3.4737  -16.8155   13.2469 LP  0  0  0  0  0  0  0  0  0  0  0  0  # atno 4307 bound_to 3712
    2.4834  -21.1543    9.3821 LP  0  0  0  0  0  0  0  0  0  0  0  0  # atno 4314 bound_to 3832
    1.4088  -19.9853    9.0009 LP  0  0  0  0  0  0  0  0  0  0  0  0  # atno 4315 bound_to 3832
   -4.5869  -22.0919   11.6249 LP  0  0  0  0  0  0  0  0  0  0  0  0  # atno 4318 bound_to 3762
   -4.0840  -23.2985   10.6462 LP  0  0  0  0  0  0  0  0  0  0  0  0  # atno 4319 bound_to 3762
   -3.6871   -4.9393    8.2848 LP  0  0  0  0  0  0  0  0  0  0  0  0  # atno 4320 bound_to 2467
   -4.7470   -5.4620    9.4117 LP  0  0  0  0  0  0  0  0  0  0  0  0  # atno 4321 bound_to 2467

> <Gold.Score>
     Score     S(PLP)   S(hbond)     S(cho)   S(metal)  DE(clash)   DE(tors)     intcor
     40.52     -41.78       0.00       0.00       0.00       0.00       0.63       0.01

> <Gold.PLP.Fitness>
40.5231

> <Gold.PLP.PLP>
-41.7825

> <Gold.PLP.part.hbond>
0.0000

> <Gold.PLP.part.metal>
0.0000

> <Gold.PLP.part.buried>
-3.3163

> <Gold.PLP.part.nonpolar>
-39.2327

> <Gold.PLP.part.repulsive>
0.1155

> <Gold.PLP.ligand.clash>
0.0000

> <Gold.PLP.ligand.torsion>
0.6324

> <Gold.PLP.Chemscore.Hbond>
0.0000

> <Gold.PLP.Chemscore.CHOScore>
0.0000

> <Gold.PLP.Chemscore.Metal>
0.0000

> <Gold.PLP.Chemscore.Internal.Correction>
0.0056

