#       Name:                EN300-05313_i001
#       Creating user name   fsindt
#       Creation time:       Tue Feb 28 02:44:32 2023


#       File generated by GOLD software.
#

@<TRIPOS>MOLECULE
EN300-05313_i001|amine_7|mol2|3004|dock13
    33    34     1
SMALL
USER_CHARGES


@<TRIPOS>ATOM
      1 C1           0.6111 -16.4816  13.7762 C.3            1 <1>                0.0000
      2 C2           0.6609 -17.2652  12.4630 C.3            1 <1>                0.0000
      3 C3          -0.2234 -18.5084  12.5771 C.3            1 <1>                0.0000
      4 O4           0.1867 -16.4394  11.3974 O.3            1 <1>                0.0000
      5 C5           0.9853 -15.4245  11.0072 C.2            1 <1>                0.0000
      6 O6           2.0919 -15.2983  11.4968 O.2            1 <1>                0.0000
      7 C7           0.5207 -14.4759   9.9958 C.2            1 <1>                0.0000
      8 C8           0.8385 -14.5753   8.6676 C.2            1 <1>                0.0000
      9 N9           1.6269 -15.5691   8.1208 N.pl3          1 <1>                0.0000
     10 S10          0.1282 -13.3063   7.7827 S.3            1 <1>                0.0000
     11 C11         -0.6187 -12.6133   9.2129 C.2            1 <1>                0.0000
     12 C12         -1.4814 -11.3658   9.2217 C.3            1 <1>                0.0000
     13 C13         -2.2693 -11.3214  10.5337 C.3            1 <1>                0.0000
     14 C14         -1.3041 -11.5380  11.7030 C.3            1 <1>                0.0000
     15 C15         -0.8231 -12.9907  11.6948 C.3            1 <1>                0.0000
     16 C16         -0.3295 -13.3370  10.2990 C.2            1 <1>                0.0000
     17 H17          0.9728 -17.1115  14.5890 H              1 <1>                0.0000
     18 H18          1.2412 -15.5959  13.6950 H              1 <1>                0.0000
     19 H19         -0.4161 -16.1794  13.9802 H              1 <1>                0.0000
     20 H20          1.6881 -17.5674  12.2590 H              1 <1>                0.0000
     21 H21         -0.1879 -19.0667  11.6415 H              1 <1>                0.0000
     22 H22          0.1383 -19.1383  13.3898 H              1 <1>                0.0000
     23 H23         -1.2506 -18.2062  12.7810 H              1 <1>                0.0000
     24 H24         -0.8475 -10.4824   9.1459 H              1 <1>                0.0000
     25 H25         -2.1740 -11.3945   8.3803 H              1 <1>                0.0000
     26 H26         -2.7534 -10.3501  10.6356 H              1 <1>                0.0000
     27 H27         -3.0236 -12.1081  10.5330 H              1 <1>                0.0000
     28 H28         -0.4488 -10.8705  11.5978 H              1 <1>                0.0000
     29 H29         -1.8167 -11.3294  12.6420 H              1 <1>                0.0000
     30 H30         -0.0115 -13.1110  12.4124 H              1 <1>                0.0000
     31 H31         -1.6491 -13.6506  11.9603 H              1 <1>                0.0000
     32 H32          1.9980 -16.2617   8.6895 H              1 <1>                0.0000
     33 H33          1.8093 -15.5744   7.1682 H              1 <1>                0.0000
@<TRIPOS>BOND
    1    1    2 1     
    2    1   17 1     
    3    1   18 1     
    4    1   19 1     
    5    2    3 1     
    6    2    4 1     
    7    2   20 1     
    8    3   21 1     
    9    3   22 1     
   10    3   23 1     
   11    4    5 1     
   12    5    6 2     
   13    5    7 1     
   14    7    8 2     
   15    7   16 1     
   16    8    9 1     
   17    8   10 1     
   18    9   32 1     
   19    9   33 1     
   20   10   11 1     
   21   11   12 1     
   22   11   16 2     
   23   12   13 1     
   24   12   24 1     
   25   12   25 1     
   26   13   14 1     
   27   13   26 1     
   28   13   27 1     
   29   14   15 1     
   30   14   28 1     
   31   14   29 1     
   32   15   16 1     
   33   15   30 1     
   34   15   31 1     
@<TRIPOS>SUBSTRUCTURE
      1 ****           1
@<TRIPOS>SET
DONOR_HYDROGENS      STATIC     ATOMS    <user>   **** ""
2 32 33
ATOM$RED        STATIC     ATOMS    COLORGROUP SYSTEM
2 32 33
@<TRIPOS>COMMENT
> <Gold.Version>
2022.2.0

> <Gold.Id.Protein>
3pbl|protein|mol2

> <Gold.Protein.RotatedTorsions>
[ 1303 1298 1297 1294 ] final  -67.30 input  179.99 | X-H torsion
[ 2461 2456 2455 2452 ] final  177.53 input   30.03 | X-H torsion
[ 2515 2510 2509 2506 ] final   54.70 input  -89.99 | X-H torsion
[ 3721 3712 3711 3710 ] final -171.62 input -179.91 | X-H torsion
[ 3841 3832 3831 3830 ] final -157.58 input -179.91 | X-H torsion
[ 3767 3762 3761 3758 ] final -133.76 input  -89.99 | X-H torsion
[ 2472 2467 2466 2463 ] final -142.34 input  -89.97 | X-H torsion

> <Gold.Protein.ActiveResidues>
 VAL82   VAL86   LEU89   PHE106  VAL107  ASP110  VAL111  MET112  CYS114  THR115 
 CYS181  SER182  ILE183  PHE188  VAL189  ILE190  SER192  SER193  SER196  TRP342 
 PHE345  PHE346  HIS349  VAL350  TYR365  THR369  GLY372  TYR373 

> <Gold.Protein.RotatedAtoms>
    3.5658   -8.8772    3.7860 H   0  0  0  0  0  0  0  0  0  0  0  0  # atno 1303 bound_to 1298
    1.4891   -9.2035    8.4011 H   0  0  0  0  0  0  0  0  0  0  0  0  # atno 2461 bound_to 2456
   -4.8622   -5.4639    9.3796 H   0  0  0  0  0  0  0  0  0  0  0  0  # atno 2472 bound_to 2467
    2.1779   -7.4373    5.3704 H   0  0  0  0  0  0  0  0  0  0  0  0  # atno 2515 bound_to 2510
   -3.3349  -16.5662   13.6657 H   0  0  0  0  0  0  0  0  0  0  0  0  # atno 3721 bound_to 3712
   -4.6567  -22.0521   11.6041 H   0  0  0  0  0  0  0  0  0  0  0  0  # atno 3767 bound_to 3762
    2.7228  -19.8174    8.3486 H   0  0  0  0  0  0  0  0  0  0  0  0  # atno 3841 bound_to 3832
    4.8868   -8.9739    4.7409 LP  0  0  0  0  0  0  0  0  0  0  0  0  # atno 4297 bound_to 1298
    3.9097  -10.2704    4.5650 LP  0  0  0  0  0  0  0  0  0  0  0  0  # atno 4298 bound_to 1298
    1.8886   -8.0156    7.3539 LP  0  0  0  0  0  0  0  0  0  0  0  0  # atno 4299 bound_to 2456
    0.3602   -8.5892    7.3933 LP  0  0  0  0  0  0  0  0  0  0  0  0  # atno 4300 bound_to 2456
    2.8308   -8.5833    4.4081 LP  0  0  0  0  0  0  0  0  0  0  0  0  # atno 4301 bound_to 2510
    2.2881   -8.9789    5.8966 LP  0  0  0  0  0  0  0  0  0  0  0  0  # atno 4302 bound_to 2510
   -2.7837  -18.0180   13.2579 LP  0  0  0  0  0  0  0  0  0  0  0  0  # atno 4306 bound_to 3712
   -2.8938  -17.5823   14.8279 LP  0  0  0  0  0  0  0  0  0  0  0  0  # atno 4307 bound_to 3712
    2.6934  -21.1476    9.2462 LP  0  0  0  0  0  0  0  0  0  0  0  0  # atno 4314 bound_to 3832
    1.3907  -20.1656    9.1735 LP  0  0  0  0  0  0  0  0  0  0  0  0  # atno 4315 bound_to 3832
   -4.0421  -23.2759   10.7145 LP  0  0  0  0  0  0  0  0  0  0  0  0  # atno 4318 bound_to 3762
   -5.4285  -22.5469   10.2527 LP  0  0  0  0  0  0  0  0  0  0  0  0  # atno 4319 bound_to 3762
   -5.1998   -4.9545    7.8653 LP  0  0  0  0  0  0  0  0  0  0  0  0  # atno 4320 bound_to 2467
   -3.6550   -4.9752    8.3944 LP  0  0  0  0  0  0  0  0  0  0  0  0  # atno 4321 bound_to 2467

> <Gold.Score>
     Score     S(PLP)   S(hbond)     S(cho)   S(metal)  DE(clash)   DE(tors)     intcor
     42.07     -42.20       1.00       0.00       0.00       0.00       1.56       0.01

> <Gold.PLP.Fitness>
42.0749

> <Gold.PLP.PLP>
-42.1992

> <Gold.PLP.part.hbond>
-1.3631

> <Gold.PLP.part.metal>
0.0000

> <Gold.PLP.part.buried>
-1.3966

> <Gold.PLP.part.nonpolar>
-41.9784

> <Gold.PLP.part.repulsive>
1.3124

> <Gold.PLP.ligand.clash>
0.0000

> <Gold.PLP.ligand.torsion>
1.5649

> <Gold.PLP.Chemscore.Hbond>
1.0000

> <Gold.PLP.Chemscore.CHOScore>
0.0000

> <Gold.PLP.Chemscore.Metal>
0.0000

> <Gold.Chemscore.Hbonds>
donor molecule, donor type, donor heavy atom, donor atom, acceptor molecule, acceptor atom, score
      L1  H     9    32       P1  1227  1.00

> <Gold.PLP.Chemscore.Internal.Correction>
0.0056

