#       Name:                EN300-05313_i001
#       Creating user name   fsindt
#       Creation time:       Tue Feb 28 02:44:25 2023


#       File generated by GOLD software.
#

@<TRIPOS>MOLECULE
EN300-05313_i001|amine_7|mol2|3004|dock1
    33    34     1
SMALL
USER_CHARGES


@<TRIPOS>ATOM
      1 C1          -0.4129 -17.2527  11.9783 C.3            1 <1>                0.0000
      2 C2          -0.3975 -16.0565  12.9320 C.3            1 <1>                0.0000
      3 C3           0.8603 -16.1133  13.8012 C.3            1 <1>                0.0000
      4 O4          -0.3993 -14.8440  12.1755 O.3            1 <1>                0.0000
      5 C5           0.5066 -14.7413  11.1812 C.2            1 <1>                0.0000
      6 O6           1.5058 -15.4353  11.1943 O.2            1 <1>                0.0000
      7 C7           0.2876 -13.7955  10.0874 C.2            1 <1>                0.0000
      8 C8           0.8495 -13.9359   8.8466 C.2            1 <1>                0.0000
      9 N9           1.6827 -14.9729   8.4744 N.pl3          1 <1>                0.0000
     10 S10          0.3797 -12.6573   7.8256 S.3            1 <1>                0.0000
     11 C11         -0.5958 -11.9040   9.0764 C.2            1 <1>                0.0000
     12 C12         -1.3874 -10.6218   8.9032 C.3            1 <1>                0.0000
     13 C13         -2.4094 -10.5172  10.0384 C.3            1 <1>                0.0000
     14 C14         -1.6971 -10.7491  11.3743 C.3            1 <1>                0.0000
     15 C15         -1.2891 -12.2204  11.4771 C.3            1 <1>                0.0000
     16 C16         -0.5531 -12.6162  10.2069 C.2            1 <1>                0.0000
     17 H17         -0.4115 -18.1774  12.5553 H              1 <1>                0.0000
     18 H18         -1.3090 -17.2122  11.3591 H              1 <1>                0.0000
     19 H19          0.4709 -17.2206  11.3410 H              1 <1>                0.0000
     20 H20         -1.2812 -16.0884  13.5693 H              1 <1>                0.0000
     21 H21          0.8712 -15.2610  14.4807 H              1 <1>                0.0000
     22 H22          0.8617 -17.0380  14.3783 H              1 <1>                0.0000
     23 H23          1.7441 -16.0813  13.1640 H              1 <1>                0.0000
     24 H24         -0.7117  -9.7673   8.9399 H              1 <1>                0.0000
     25 H25         -1.9063 -10.6392   7.9447 H              1 <1>                0.0000
     26 H26         -2.8600  -9.5246  10.0330 H              1 <1>                0.0000
     27 H27         -3.1841 -11.2716   9.9023 H              1 <1>                0.0000
     28 H28         -0.8085 -10.1202  11.4273 H              1 <1>                0.0000
     29 H29         -2.3705 -10.4998  12.1943 H              1 <1>                0.0000
     30 H30         -0.6365 -12.3594  12.3390 H              1 <1>                0.0000
     31 H31         -2.1794 -12.8397  11.5868 H              1 <1>                0.0000
     32 H32          1.9065 -15.6682   9.1126 H              1 <1>                0.0000
     33 H33          2.0440 -15.0057   7.5748 H              1 <1>                0.0000
@<TRIPOS>BOND
    1    1    2 1     
    2    1   17 1     
    3    1   18 1     
    4    1   19 1     
    5    2    3 1     
    6    2    4 1     
    7    2   20 1     
    8    3   21 1     
    9    3   22 1     
   10    3   23 1     
   11    4    5 1     
   12    5    6 2     
   13    5    7 1     
   14    7    8 2     
   15    7   16 1     
   16    8    9 1     
   17    8   10 1     
   18    9   32 1     
   19    9   33 1     
   20   10   11 1     
   21   11   12 1     
   22   11   16 2     
   23   12   13 1     
   24   12   24 1     
   25   12   25 1     
   26   13   14 1     
   27   13   26 1     
   28   13   27 1     
   29   14   15 1     
   30   14   28 1     
   31   14   29 1     
   32   15   16 1     
   33   15   30 1     
   34   15   31 1     
@<TRIPOS>SUBSTRUCTURE
      1 ****           1
@<TRIPOS>SET
DONOR_HYDROGENS      STATIC     ATOMS    <user>   **** ""
2 32 33
ATOM$RED        STATIC     ATOMS    COLORGROUP SYSTEM
2 32 33
@<TRIPOS>COMMENT
> <Gold.Version>
2022.2.0

> <Gold.Id.Protein>
3pbl|protein|mol2

> <Gold.Protein.RotatedTorsions>
[ 1303 1298 1297 1294 ] final  -40.65 input  179.99 | X-H torsion
[ 2461 2456 2455 2452 ] final -122.05 input   30.03 | X-H torsion
[ 2515 2510 2509 2506 ] final  -70.02 input  -89.99 | X-H torsion
[ 3721 3712 3711 3710 ] final   79.99 input -179.91 | X-H torsion
[ 3841 3832 3831 3830 ] final  -29.38 input -179.91 | X-H torsion
[ 3767 3762 3761 3758 ] final -138.22 input  -89.99 | X-H torsion
[ 2472 2467 2466 2463 ] final   13.21 input  -89.97 | X-H torsion

> <Gold.Protein.ActiveResidues>
 VAL82   VAL86   LEU89   PHE106  VAL107  ASP110  VAL111  MET112  CYS114  THR115 
 CYS181  SER182  ILE183  PHE188  VAL189  ILE190  SER192  SER193  SER196  TRP342 
 PHE345  PHE346  HIS349  VAL350  TYR365  THR369  GLY372  TYR373 

> <Gold.Protein.RotatedAtoms>
    3.3718   -9.2656    3.8018 H   0  0  0  0  0  0  0  0  0  0  0  0  # atno 1303 bound_to 1298
    0.5983   -9.1874    8.0741 H   0  0  0  0  0  0  0  0  0  0  0  0  # atno 2461 bound_to 2456
   -3.9392   -4.8342    7.9141 H   0  0  0  0  0  0  0  0  0  0  0  0  # atno 2472 bound_to 2467
    2.8347   -8.6555    4.4362 H   0  0  0  0  0  0  0  0  0  0  0  0  # atno 2515 bound_to 2510
   -2.7131  -17.7273   13.1765 H   0  0  0  0  0  0  0  0  0  0  0  0  # atno 3721 bound_to 3712
   -4.5946  -22.0866   11.6226 H   0  0  0  0  0  0  0  0  0  0  0  0  # atno 3767 bound_to 3762
    1.5724  -20.1381    9.3482 H   0  0  0  0  0  0  0  0  0  0  0  0  # atno 3841 bound_to 3832
    4.7165   -8.6556    4.4990 LP  0  0  0  0  0  0  0  0  0  0  0  0  # atno 4297 bound_to 1298
    4.2742  -10.2002    4.7910 LP  0  0  0  0  0  0  0  0  0  0  0  0  # atno 4298 bound_to 1298
    2.1300   -8.6213    8.0431 LP  0  0  0  0  0  0  0  0  0  0  0  0  # atno 4299 bound_to 2456
    1.0093   -7.9997    7.0310 LP  0  0  0  0  0  0  0  0  0  0  0  0  # atno 4300 bound_to 2456
    2.2576   -8.9223    5.9401 LP  0  0  0  0  0  0  0  0  0  0  0  0  # atno 4301 bound_to 2510
    2.2043   -7.4212    5.2993 LP  0  0  0  0  0  0  0  0  0  0  0  0  # atno 4302 bound_to 2510
   -2.8299  -17.7016   14.7776 LP  0  0  0  0  0  0  0  0  0  0  0  0  # atno 4306 bound_to 3712
   -3.5654  -16.5583   13.8729 LP  0  0  0  0  0  0  0  0  0  0  0  0  # atno 4307 bound_to 3712
    2.5821  -19.8334    8.1384 LP  0  0  0  0  0  0  0  0  0  0  0  0  # atno 4314 bound_to 3832
    2.8309  -21.1093    9.1267 LP  0  0  0  0  0  0  0  0  0  0  0  0  # atno 4315 bound_to 3832
   -4.0788  -23.2961   10.6542 LP  0  0  0  0  0  0  0  0  0  0  0  0  # atno 4318 bound_to 3762
   -5.4539  -22.4922   10.2945 LP  0  0  0  0  0  0  0  0  0  0  0  0  # atno 4319 bound_to 3762
   -4.2896   -5.4082    9.4020 LP  0  0  0  0  0  0  0  0  0  0  0  0  # atno 4320 bound_to 2467
   -5.4880   -5.1511    8.3229 LP  0  0  0  0  0  0  0  0  0  0  0  0  # atno 4321 bound_to 2467

> <Gold.Score>
     Score     S(PLP)   S(hbond)     S(cho)   S(metal)  DE(clash)   DE(tors)     intcor
     51.65     -49.82       1.00       0.00       0.00       0.00       0.61       0.04

> <Gold.PLP.Fitness>
51.6472

> <Gold.PLP.PLP>
-49.8194

> <Gold.PLP.part.hbond>
-1.0000

> <Gold.PLP.part.metal>
0.0000

> <Gold.PLP.part.buried>
-5.7251

> <Gold.PLP.part.nonpolar>
-45.7254

> <Gold.PLP.part.repulsive>
1.9126

> <Gold.PLP.ligand.clash>
0.0000

> <Gold.PLP.ligand.torsion>
0.6055

> <Gold.PLP.Chemscore.Hbond>
1.0000

> <Gold.PLP.Chemscore.CHOScore>
0.0000

> <Gold.PLP.Chemscore.Metal>
0.0000

> <Gold.Chemscore.Hbonds>
donor molecule, donor type, donor heavy atom, donor atom, acceptor molecule, acceptor atom, score
      L1  H     9    32       P1  1227  1.00

> <Gold.PLP.Chemscore.Internal.Correction>
0.0389

