#       Name:                EN300-05313_i001
#       Creating user name   fsindt
#       Creation time:       Tue Feb 28 02:44:36 2023


#       File generated by GOLD software.
#

@<TRIPOS>MOLECULE
EN300-05313_i001|amine_7|mol2|3004|dock20
    33    34     1
SMALL
USER_CHARGES


@<TRIPOS>ATOM
      1 C1           0.5588 -17.2359  12.3544 C.3            1 <1>                0.0000
      2 C2          -0.3554 -16.0094  12.3841 C.3            1 <1>                0.0000
      3 C3          -0.4471 -15.4762  13.8151 C.3            1 <1>                0.0000
      4 O4           0.1802 -14.9954  11.5313 O.3            1 <1>                0.0000
      5 C5           0.1600 -15.2376  10.2043 C.2            1 <1>                0.0000
      6 O6           0.0239 -16.3754   9.7955 O.2            1 <1>                0.0000
      7 C7           0.3018 -14.1324   9.2570 C.2            1 <1>                0.0000
      8 C8           1.0265 -14.2218   8.0986 C.2            1 <1>                0.0000
      9 N9           1.7064 -15.3498   7.6824 N.pl3          1 <1>                0.0000
     10 S10          0.9739 -12.7518   7.2417 S.3            1 <1>                0.0000
     11 C11         -0.0414 -11.9845   8.4516 C.2            1 <1>                0.0000
     12 C12         -0.5458 -10.5558   8.3798 C.3            1 <1>                0.0000
     13 C13         -1.7054 -10.3930   9.3662 C.3            1 <1>                0.0000
     14 C14         -1.2789 -10.9386  10.7323 C.3            1 <1>                0.0000
     15 C15         -1.1691 -12.4629  10.6524 C.3            1 <1>                0.0000
     16 C16         -0.3174 -12.8318   9.4481 C.2            1 <1>                0.0000
     17 H17          0.1503 -18.0093  13.0048 H              1 <1>                0.0000
     18 H18          0.6241 -17.6158  11.3349 H              1 <1>                0.0000
     19 H19          1.5532 -16.9563  12.7024 H              1 <1>                0.0000
     20 H20         -1.3498 -16.2889  12.0360 H              1 <1>                0.0000
     21 H21         -1.0984 -14.6024  13.8362 H              1 <1>                0.0000
     22 H22         -0.8557 -16.2495  14.4656 H              1 <1>                0.0000
     23 H23          0.5473 -15.1966  14.1632 H              1 <1>                0.0000
     24 H24          0.2589  -9.8703   8.6454 H              1 <1>                0.0000
     25 H25         -0.8929 -10.3412   7.3690 H              1 <1>                0.0000
     26 H26         -1.9600  -9.3372   9.4585 H              1 <1>                0.0000
     27 H27         -2.5713 -10.9483   9.0059 H              1 <1>                0.0000
     28 H28         -0.3117 -10.5177  11.0069 H              1 <1>                0.0000
     29 H29         -2.0219 -10.6658  11.4817 H              1 <1>                0.0000
     30 H30         -0.7049 -12.8441  11.5620 H              1 <1>                0.0000
     31 H31         -2.1632 -12.8954  10.5383 H              1 <1>                0.0000
     32 H32          1.6905 -16.1536   8.2252 H              1 <1>                0.0000
     33 H33          2.1997 -15.3383   6.8473 H              1 <1>                0.0000
@<TRIPOS>BOND
    1    1    2 1     
    2    1   17 1     
    3    1   18 1     
    4    1   19 1     
    5    2    3 1     
    6    2    4 1     
    7    2   20 1     
    8    3   21 1     
    9    3   22 1     
   10    3   23 1     
   11    4    5 1     
   12    5    6 2     
   13    5    7 1     
   14    7    8 2     
   15    7   16 1     
   16    8    9 1     
   17    8   10 1     
   18    9   32 1     
   19    9   33 1     
   20   10   11 1     
   21   11   12 1     
   22   11   16 2     
   23   12   13 1     
   24   12   24 1     
   25   12   25 1     
   26   13   14 1     
   27   13   26 1     
   28   13   27 1     
   29   14   15 1     
   30   14   28 1     
   31   14   29 1     
   32   15   16 1     
   33   15   30 1     
   34   15   31 1     
@<TRIPOS>SUBSTRUCTURE
      1 ****           1
@<TRIPOS>SET
DONOR_HYDROGENS      STATIC     ATOMS    <user>   **** ""
2 32 33
ATOM$RED        STATIC     ATOMS    COLORGROUP SYSTEM
2 32 33
@<TRIPOS>COMMENT
> <Gold.Version>
2022.2.0

> <Gold.Id.Protein>
3pbl|protein|mol2

> <Gold.Protein.RotatedTorsions>
[ 1303 1298 1297 1294 ] final   15.34 input  179.99 | X-H torsion
[ 2461 2456 2455 2452 ] final  178.85 input   30.03 | X-H torsion
[ 2515 2510 2509 2506 ] final  112.87 input  -89.99 | X-H torsion
[ 3721 3712 3711 3710 ] final  106.87 input -179.91 | X-H torsion
[ 3841 3832 3831 3830 ] final  140.48 input -179.91 | X-H torsion
[ 3767 3762 3761 3758 ] final  -16.15 input  -89.99 | X-H torsion
[ 2472 2467 2466 2463 ] final  -39.82 input  -89.97 | X-H torsion

> <Gold.Protein.ActiveResidues>
 VAL82   VAL86   LEU89   PHE106  VAL107  ASP110  VAL111  MET112  CYS114  THR115 
 CYS181  SER182  ILE183  PHE188  VAL189  ILE190  SER192  SER193  SER196  TRP342 
 PHE345  PHE346  HIS349  VAL350  TYR365  THR369  GLY372  TYR373 

> <Gold.Protein.RotatedAtoms>
    3.4902  -10.0524    4.1894 H   0  0  0  0  0  0  0  0  0  0  0  0  # atno 1303 bound_to 1298
    1.4688   -9.2109    8.4015 H   0  0  0  0  0  0  0  0  0  0  0  0  # atno 2461 bound_to 2456
   -3.6388   -5.0713    8.6638 H   0  0  0  0  0  0  0  0  0  0  0  0  # atno 2472 bound_to 2467
    2.0321   -8.0546    6.0316 H   0  0  0  0  0  0  0  0  0  0  0  0  # atno 2515 bound_to 2510
   -2.9102  -17.4050   13.0371 H   0  0  0  0  0  0  0  0  0  0  0  0  # atno 3721 bound_to 3712
   -5.4424  -22.5170   10.2741 H   0  0  0  0  0  0  0  0  0  0  0  0  # atno 3767 bound_to 3762
    3.1333  -20.5156    8.7196 H   0  0  0  0  0  0  0  0  0  0  0  0  # atno 3841 bound_to 3832
    4.0221   -8.5248    3.9657 LP  0  0  0  0  0  0  0  0  0  0  0  0  # atno 4297 bound_to 1298
    4.8501   -9.5439    4.9365 LP  0  0  0  0  0  0  0  0  0  0  0  0  # atno 4298 bound_to 1298
    1.9034   -8.0239    7.3673 LP  0  0  0  0  0  0  0  0  0  0  0  0  # atno 4299 bound_to 2456
    0.3657   -8.5735    7.3796 LP  0  0  0  0  0  0  0  0  0  0  0  0  # atno 4300 bound_to 2456
    2.5882   -7.7087    4.5361 LP  0  0  0  0  0  0  0  0  0  0  0  0  # atno 4301 bound_to 2510
    2.6766   -9.2360    5.1072 LP  0  0  0  0  0  0  0  0  0  0  0  0  # atno 4302 bound_to 2510
   -2.6744  -18.0156   14.5032 LP  0  0  0  0  0  0  0  0  0  0  0  0  # atno 4306 bound_to 3712
   -3.4934  -16.6164   14.3082 LP  0  0  0  0  0  0  0  0  0  0  0  0  # atno 4307 bound_to 3712
    1.7988  -20.8597    9.5423 LP  0  0  0  0  0  0  0  0  0  0  0  0  # atno 4314 bound_to 3832
    1.8111  -19.6469    8.4488 LP  0  0  0  0  0  0  0  0  0  0  0  0  # atno 4315 bound_to 3832
   -4.6238  -22.0707   11.6148 LP  0  0  0  0  0  0  0  0  0  0  0  0  # atno 4318 bound_to 3762
   -4.0614  -23.2873   10.6819 LP  0  0  0  0  0  0  0  0  0  0  0  0  # atno 4319 bound_to 3762
   -5.1167   -5.4442    9.2495 LP  0  0  0  0  0  0  0  0  0  0  0  0  # atno 4320 bound_to 2467
   -4.9613   -4.8780    7.7258 LP  0  0  0  0  0  0  0  0  0  0  0  0  # atno 4321 bound_to 2467

> <Gold.Score>
     Score     S(PLP)   S(hbond)     S(cho)   S(metal)  DE(clash)   DE(tors)     intcor
     42.93     -41.59       1.04       0.00       0.00       0.00       0.89       0.01

> <Gold.PLP.Fitness>
42.9348

> <Gold.PLP.PLP>
-41.5922

> <Gold.PLP.part.hbond>
-2.0000

> <Gold.PLP.part.metal>
0.0000

> <Gold.PLP.part.buried>
-1.7280

> <Gold.PLP.part.nonpolar>
-41.2430

> <Gold.PLP.part.repulsive>
1.9011

> <Gold.PLP.ligand.clash>
0.0000

> <Gold.PLP.ligand.torsion>
0.8909

> <Gold.PLP.Chemscore.Hbond>
1.0396

> <Gold.PLP.Chemscore.CHOScore>
0.0000

> <Gold.PLP.Chemscore.Metal>
0.0000

> <Gold.Chemscore.Hbonds>
donor molecule, donor type, donor heavy atom, donor atom, acceptor molecule, acceptor atom, score
      L1  H     9    32       P1  1227  0.80
      L1  H     9    33       P1  1223  0.24

> <Gold.PLP.Chemscore.Internal.Correction>
0.0056

