#       Name:                EN300-05313_i001
#       Creating user name   fsindt
#       Creation time:       Tue Feb 28 02:44:30 2023


#       File generated by GOLD software.
#

@<TRIPOS>MOLECULE
EN300-05313_i001|amine_7|mol2|3004|dock11
    33    34     1
SMALL
USER_CHARGES


@<TRIPOS>ATOM
      1 C1          -0.1711 -16.7299  14.7067 C.3            1 <1>                0.0000
      2 C2           0.9531 -16.1880  13.8216 C.3            1 <1>                0.0000
      3 C3           2.1066 -17.1926  13.7899 C.3            1 <1>                0.0000
      4 O4           0.4603 -15.9867  12.4954 O.3            1 <1>                0.0000
      5 C5          -0.2272 -14.8493  12.2636 C.2            1 <1>                0.0000
      6 O6          -0.8631 -14.3291  13.1610 O.2            1 <1>                0.0000
      7 C7          -0.2081 -14.2415  10.9336 C.2            1 <1>                0.0000
      8 C8           0.2740 -14.8784   9.8214 C.2            1 <1>                0.0000
      9 N9           0.7965 -16.1570   9.8130 N.pl3          1 <1>                0.0000
     10 S10          0.1405 -13.8780   8.4504 S.3            1 <1>                0.0000
     11 C11         -0.5782 -12.5672   9.3716 C.2            1 <1>                0.0000
     12 C12         -1.0056 -11.2328   8.7908 C.3            1 <1>                0.0000
     13 C13         -1.9428 -10.5410   9.7843 C.3            1 <1>                0.0000
     14 C14         -1.2931 -10.5480  11.1713 C.3            1 <1>                0.0000
     15 C15         -1.2868 -11.9781  11.7157 C.3            1 <1>                0.0000
     16 C16         -0.7048 -12.9037  10.6591 C.2            1 <1>                0.0000
     17 H17          0.2049 -16.8834  15.7182 H              1 <1>                0.0000
     18 H18         -0.9928 -16.0141  14.7293 H              1 <1>                0.0000
     19 H19         -0.5261 -17.6782  14.3031 H              1 <1>                0.0000
     20 H20          1.3082 -15.2397  14.2251 H              1 <1>                0.0000
     21 H21          2.9076 -16.8065  13.1594 H              1 <1>                0.0000
     22 H22          2.4826 -17.3461  14.8014 H              1 <1>                0.0000
     23 H23          1.7516 -18.1409  13.3864 H              1 <1>                0.0000
     24 H24         -0.1276 -10.6095   8.6219 H              1 <1>                0.0000
     25 H25         -1.5280 -11.3950   7.8479 H              1 <1>                0.0000
     26 H26         -2.1150  -9.5123   9.4675 H              1 <1>                0.0000
     27 H27         -2.8918 -11.0756   9.8235 H              1 <1>                0.0000
     28 H28         -0.2689 -10.1826  11.0956 H              1 <1>                0.0000
     29 H29         -1.8615  -9.9049  11.8431 H              1 <1>                0.0000
     30 H30         -0.6785 -12.0226  12.6192 H              1 <1>                0.0000
     31 H31         -2.3070 -12.2866  11.9442 H              1 <1>                0.0000
     32 H32          0.8400 -16.6686  10.6360 H              1 <1>                0.0000
     33 H33          1.1198 -16.5434   8.9841 H              1 <1>                0.0000
@<TRIPOS>BOND
    1    1    2 1     
    2    1   17 1     
    3    1   18 1     
    4    1   19 1     
    5    2    3 1     
    6    2    4 1     
    7    2   20 1     
    8    3   21 1     
    9    3   22 1     
   10    3   23 1     
   11    4    5 1     
   12    5    6 2     
   13    5    7 1     
   14    7    8 2     
   15    7   16 1     
   16    8    9 1     
   17    8   10 1     
   18    9   32 1     
   19    9   33 1     
   20   10   11 1     
   21   11   12 1     
   22   11   16 2     
   23   12   13 1     
   24   12   24 1     
   25   12   25 1     
   26   13   14 1     
   27   13   26 1     
   28   13   27 1     
   29   14   15 1     
   30   14   28 1     
   31   14   29 1     
   32   15   16 1     
   33   15   30 1     
   34   15   31 1     
@<TRIPOS>SUBSTRUCTURE
      1 ****           1
@<TRIPOS>SET
DONOR_HYDROGENS      STATIC     ATOMS    <user>   **** ""
2 32 33
ATOM$RED        STATIC     ATOMS    COLORGROUP SYSTEM
2 32 33
@<TRIPOS>COMMENT
> <Gold.Version>
2022.2.0

> <Gold.Id.Protein>
3pbl|protein|mol2

> <Gold.Protein.RotatedTorsions>
[ 1303 1298 1297 1294 ] final  141.58 input  179.99 | X-H torsion
[ 2461 2456 2455 2452 ] final   39.96 input   30.03 | X-H torsion
[ 2515 2510 2509 2506 ] final    9.71 input  -89.99 | X-H torsion
[ 3721 3712 3711 3710 ] final   60.50 input -179.91 | X-H torsion
[ 3841 3832 3831 3830 ] final  109.66 input -179.91 | X-H torsion
[ 3767 3762 3761 3758 ] final   64.09 input  -89.99 | X-H torsion
[ 2472 2467 2466 2463 ] final   47.79 input  -89.97 | X-H torsion

> <Gold.Protein.ActiveResidues>
 VAL82   VAL86   LEU89   PHE106  VAL107  ASP110  VAL111  MET112  CYS114  THR115 
 CYS181  SER182  ILE183  PHE188  VAL189  ILE190  SER192  SER193  SER196  TRP342 
 PHE345  PHE346  HIS349  VAL350  TYR365  THR369  GLY372  TYR373 

> <Gold.Protein.RotatedAtoms>
    4.8787   -9.4469    4.9194 H   0  0  0  0  0  0  0  0  0  0  0  0  # atno 1303 bound_to 1298
    1.6619   -7.9357    7.1950 H   0  0  0  0  0  0  0  0  0  0  0  0  # atno 2461 bound_to 2456
   -4.4437   -4.8025    7.6721 H   0  0  0  0  0  0  0  0  0  0  0  0  # atno 2472 bound_to 2467
    2.4738   -7.5382    4.7205 H   0  0  0  0  0  0  0  0  0  0  0  0  # atno 2515 bound_to 2510
   -2.5939  -17.9041   13.3778 H   0  0  0  0  0  0  0  0  0  0  0  0  # atno 3721 bound_to 3712
   -4.5131  -23.2988   10.2271 H   0  0  0  0  0  0  0  0  0  0  0  0  # atno 3767 bound_to 3762
    3.0190  -20.8101    9.0541 H   0  0  0  0  0  0  0  0  0  0  0  0  # atno 3841 bound_to 3832
    3.5459  -10.1126    4.2509 LP  0  0  0  0  0  0  0  0  0  0  0  0  # atno 4297 bound_to 1298
    3.9372   -8.5618    3.9211 LP  0  0  0  0  0  0  0  0  0  0  0  0  # atno 4298 bound_to 1298
    0.3319   -8.7969    7.5909 LP  0  0  0  0  0  0  0  0  0  0  0  0  # atno 4299 bound_to 2456
    1.7441   -9.0753    8.3620 LP  0  0  0  0  0  0  0  0  0  0  0  0  # atno 4300 bound_to 2456
    2.7592   -9.1395    4.8622 LP  0  0  0  0  0  0  0  0  0  0  0  0  # atno 4301 bound_to 2510
    2.0637   -8.3219    6.0928 LP  0  0  0  0  0  0  0  0  0  0  0  0  # atno 4302 bound_to 2510
   -2.9799  -17.4267   14.8614 LP  0  0  0  0  0  0  0  0  0  0  0  0  # atno 4306 bound_to 3712
   -3.5530  -16.6290   13.5568 LP  0  0  0  0  0  0  0  0  0  0  0  0  # atno 4307 bound_to 3712
    1.4859  -20.4845    9.4002 LP  0  0  0  0  0  0  0  0  0  0  0  0  # atno 4314 bound_to 3832
    2.2561  -19.6820    8.2046 LP  0  0  0  0  0  0  0  0  0  0  0  0  # atno 4315 bound_to 3832
   -5.4808  -22.0933   10.7537 LP  0  0  0  0  0  0  0  0  0  0  0  0  # atno 4318 bound_to 3762
   -4.1334  -22.4832   11.5900 LP  0  0  0  0  0  0  0  0  0  0  0  0  # atno 4319 bound_to 3762
   -3.8321   -5.2551    9.1170 LP  0  0  0  0  0  0  0  0  0  0  0  0  # atno 4320 bound_to 2467
   -5.4411   -5.3359    8.8499 LP  0  0  0  0  0  0  0  0  0  0  0  0  # atno 4321 bound_to 2467

> <Gold.Score>
     Score     S(PLP)   S(hbond)     S(cho)   S(metal)  DE(clash)   DE(tors)     intcor
     45.98     -47.08       0.06       0.00       0.00       0.00       0.65       0.01

> <Gold.PLP.Fitness>
45.9783

> <Gold.PLP.PLP>
-47.0816

> <Gold.PLP.part.hbond>
-1.2521

> <Gold.PLP.part.metal>
0.0000

> <Gold.PLP.part.buried>
0.3932

> <Gold.PLP.part.nonpolar>
-47.3793

> <Gold.PLP.part.repulsive>
0.2137

> <Gold.PLP.ligand.clash>
0.0000

> <Gold.PLP.ligand.torsion>
0.6504

> <Gold.PLP.Chemscore.Hbond>
0.0640

> <Gold.PLP.Chemscore.CHOScore>
0.0000

> <Gold.PLP.Chemscore.Metal>
0.0000

> <Gold.Chemscore.Hbonds>
donor molecule, donor type, donor heavy atom, donor atom, acceptor molecule, acceptor atom, score
      L1  H     9    33       P1  1227  0.06

> <Gold.PLP.Chemscore.Internal.Correction>
0.0056

