#       Name:                EN300-05313_i001
#       Creating user name   fsindt
#       Creation time:       Tue Feb 28 02:44:27 2023


#       File generated by GOLD software.
#

@<TRIPOS>MOLECULE
EN300-05313_i001|amine_7|mol2|3004|dock6
    33    34     1
SMALL
USER_CHARGES


@<TRIPOS>ATOM
      1 C1          -4.5290 -10.9973   9.8818 C.3            1 <1>                0.0000
      2 C2          -3.0775 -10.6033   9.6012 C.3            1 <1>                0.0000
      3 C3          -2.4945  -9.8973  10.8270 C.3            1 <1>                0.0000
      4 O4          -2.3118 -11.7762   9.3180 O.3            1 <1>                0.0000
      5 C5          -1.0218 -11.5955   8.9672 C.2            1 <1>                0.0000
      6 O6          -0.6327 -10.4945   8.6255 O.2            1 <1>                0.0000
      7 C7          -0.0909 -12.7231   8.9975 C.2            1 <1>                0.0000
      8 C8           0.7452 -13.0375   7.9597 C.2            1 <1>                0.0000
      9 N9           0.8156 -12.3409   6.7690 N.pl3          1 <1>                0.0000
     10 S10          1.6863 -14.4045   8.3388 S.3            1 <1>                0.0000
     11 C11          0.9546 -14.5737   9.9260 C.2            1 <1>                0.0000
     12 C12          1.3075 -15.6525  10.9322 C.3            1 <1>                0.0000
     13 C13          0.7850 -15.2319  12.3085 C.3            1 <1>                0.0000
     14 C14         -0.6845 -14.8197  12.1799 C.3            1 <1>                0.0000
     15 C15         -0.7702 -13.4980  11.4133 C.3            1 <1>                0.0000
     16 C16          0.0436 -13.6179  10.1346 C.2            1 <1>                0.0000
     17 H17         -5.1130 -10.1026  10.0978 H              1 <1>                0.0000
     18 H18         -4.9443 -11.5001   9.0085 H              1 <1>                0.0000
     19 H19         -4.5637 -11.6696  10.7391 H              1 <1>                0.0000
     20 H20         -3.0427  -9.9309   8.7440 H              1 <1>                0.0000
     21 H21         -1.4604  -9.6166  10.6270 H              1 <1>                0.0000
     22 H22         -3.0785  -9.0027  11.0430 H              1 <1>                0.0000
     23 H23         -2.5292 -10.5696  11.6842 H              1 <1>                0.0000
     24 H24          0.8435 -16.5936  10.6371 H              1 <1>                0.0000
     25 H25          2.3900 -15.7736  10.9737 H              1 <1>                0.0000
     26 H26          0.8696 -16.0687  13.0020 H              1 <1>                0.0000
     27 H27          1.3690 -14.3894  12.6784 H              1 <1>                0.0000
     28 H28         -1.2331 -15.5907  11.6389 H              1 <1>                0.0000
     29 H29         -1.1157 -14.6934  13.1729 H              1 <1>                0.0000
     30 H30         -1.8106 -13.2842  11.1687 H              1 <1>                0.0000
     31 H31         -0.3640 -12.6932  12.0262 H              1 <1>                0.0000
     32 H32          0.2464 -11.5689   6.6243 H              1 <1>                0.0000
     33 H33          1.4343 -12.6237   6.0775 H              1 <1>                0.0000
@<TRIPOS>BOND
    1    1    2 1     
    2    1   17 1     
    3    1   18 1     
    4    1   19 1     
    5    2    3 1     
    6    2    4 1     
    7    2   20 1     
    8    3   21 1     
    9    3   22 1     
   10    3   23 1     
   11    4    5 1     
   12    5    6 2     
   13    5    7 1     
   14    7    8 2     
   15    7   16 1     
   16    8    9 1     
   17    8   10 1     
   18    9   32 1     
   19    9   33 1     
   20   10   11 1     
   21   11   12 1     
   22   11   16 2     
   23   12   13 1     
   24   12   24 1     
   25   12   25 1     
   26   13   14 1     
   27   13   26 1     
   28   13   27 1     
   29   14   15 1     
   30   14   28 1     
   31   14   29 1     
   32   15   16 1     
   33   15   30 1     
   34   15   31 1     
@<TRIPOS>SUBSTRUCTURE
      1 ****           1
@<TRIPOS>SET
DONOR_HYDROGENS      STATIC     ATOMS    <user>   **** ""
2 32 33
ATOM$RED        STATIC     ATOMS    COLORGROUP SYSTEM
2 32 33
@<TRIPOS>COMMENT
> <Gold.Version>
2022.2.0

> <Gold.Id.Protein>
3pbl|protein|mol2

> <Gold.Protein.RotatedTorsions>
[ 1303 1298 1297 1294 ] final    2.71 input  179.99 | X-H torsion
[ 2461 2456 2455 2452 ] final -141.24 input   30.03 | X-H torsion
[ 2515 2510 2509 2506 ] final   31.70 input  -89.99 | X-H torsion
[ 3721 3712 3711 3710 ] final -116.84 input -179.91 | X-H torsion
[ 3841 3832 3831 3830 ] final -175.60 input -179.91 | X-H torsion
[ 3767 3762 3761 3758 ] final -163.68 input  -89.99 | X-H torsion
[ 2472 2467 2466 2463 ] final -112.57 input  -89.97 | X-H torsion

> <Gold.Protein.ActiveResidues>
 VAL82   VAL86   LEU89   PHE106  VAL107  ASP110  VAL111  MET112  CYS114  THR115 
 CYS181  SER182  ILE183  PHE188  VAL189  ILE190  SER192  SER193  SER196  TRP342 
 PHE345  PHE346  HIS349  VAL350  TYR365  THR369  GLY372  TYR373 

> <Gold.Protein.RotatedAtoms>
    3.4009   -9.9073    4.0711 H   0  0  0  0  0  0  0  0  0  0  0  0  # atno 1303 bound_to 1298
    0.8471   -9.2729    8.2463 H   0  0  0  0  0  0  0  0  0  0  0  0  # atno 2461 bound_to 2456
   -4.3811   -5.4260    9.4213 H   0  0  0  0  0  0  0  0  0  0  0  0  # atno 2472 bound_to 2467
    2.3205   -7.4193    5.0233 H   0  0  0  0  0  0  0  0  0  0  0  0  # atno 2515 bound_to 2510
   -3.2004  -16.6804   14.4428 H   0  0  0  0  0  0  0  0  0  0  0  0  # atno 3721 bound_to 3712
   -4.2643  -22.3384   11.6375 H   0  0  0  0  0  0  0  0  0  0  0  0  # atno 3767 bound_to 3762
    2.9180  -20.0005    8.3918 H   0  0  0  0  0  0  0  0  0  0  0  0  # atno 3841 bound_to 3832
    4.1962   -8.4812    4.0697 LP  0  0  0  0  0  0  0  0  0  0  0  0  # atno 4297 bound_to 1298
    4.7654   -9.7327    4.9509 LP  0  0  0  0  0  0  0  0  0  0  0  0  # atno 4298 bound_to 1298
    2.1588   -8.3948    7.8270 LP  0  0  0  0  0  0  0  0  0  0  0  0  # atno 4299 bound_to 2456
    0.7317   -8.1407    7.0750 LP  0  0  0  0  0  0  0  0  0  0  0  0  # atno 4300 bound_to 2456
    2.8240   -8.9112    4.5918 LP  0  0  0  0  0  0  0  0  0  0  0  0  # atno 4301 bound_to 2510
    2.1523   -8.6691    6.0603 LP  0  0  0  0  0  0  0  0  0  0  0  0  # atno 4302 bound_to 2510
   -3.2162  -17.3086   12.9653 LP  0  0  0  0  0  0  0  0  0  0  0  0  # atno 4306 bound_to 3712
   -2.6166  -18.1599   14.2233 LP  0  0  0  0  0  0  0  0  0  0  0  0  # atno 4307 bound_to 3712
    2.4391  -21.1494    9.4052 LP  0  0  0  0  0  0  0  0  0  0  0  0  # atno 4314 bound_to 3832
    1.4195  -19.9523    8.9647 LP  0  0  0  0  0  0  0  0  0  0  0  0  # atno 4315 bound_to 3832
   -4.3532  -23.3315   10.3442 LP  0  0  0  0  0  0  0  0  0  0  0  0  # atno 4318 bound_to 3762
   -5.5097  -22.2051   10.5896 LP  0  0  0  0  0  0  0  0  0  0  0  0  # atno 4319 bound_to 3762
   -5.4630   -5.1176    8.2377 LP  0  0  0  0  0  0  0  0  0  0  0  0  # atno 4320 bound_to 2467
   -3.8728   -4.8500    7.9804 LP  0  0  0  0  0  0  0  0  0  0  0  0  # atno 4321 bound_to 2467

> <Gold.Score>
     Score     S(PLP)   S(hbond)     S(cho)   S(metal)  DE(clash)   DE(tors)     intcor
     51.66     -50.80       0.99       0.00       0.00       0.00       1.06       0.01

> <Gold.PLP.Fitness>
51.6575

> <Gold.PLP.PLP>
-50.8025

> <Gold.PLP.part.hbond>
-1.0000

> <Gold.PLP.part.metal>
0.0000

> <Gold.PLP.part.buried>
-0.6860

> <Gold.PLP.part.nonpolar>
-50.0377

> <Gold.PLP.part.repulsive>
0.0142

> <Gold.PLP.ligand.clash>
0.0000

> <Gold.PLP.ligand.torsion>
1.0640

> <Gold.PLP.Chemscore.Hbond>
0.9920

> <Gold.PLP.Chemscore.CHOScore>
0.0000

> <Gold.PLP.Chemscore.Metal>
0.0000

> <Gold.Chemscore.Hbonds>
donor molecule, donor type, donor heavy atom, donor atom, acceptor molecule, acceptor atom, score
      P1  H  2456  2461       L1     6  0.99

> <Gold.PLP.Chemscore.Internal.Correction>
0.0070

