#       Name:                EN300-05313_i001
#       Creating user name   fsindt
#       Creation time:       Tue Feb 28 02:44:26 2023


#       File generated by GOLD software.
#

@<TRIPOS>MOLECULE
EN300-05313_i001|amine_7|mol2|3004|dock4
    33    34     1
SMALL
USER_CHARGES


@<TRIPOS>ATOM
      1 C1           0.3507 -18.6000  11.9896 C.3            1 <1>                0.0000
      2 C2           0.0942 -17.1574  12.4300 C.3            1 <1>                0.0000
      3 C3           1.0947 -16.7717  13.5213 C.3            1 <1>                0.0000
      4 O4           0.2497 -16.2828  11.3105 O.3            1 <1>                0.0000
      5 C5          -0.0968 -14.9914  11.4895 C.2            1 <1>                0.0000
      6 O6          -0.3647 -14.5821  12.6035 O.2            1 <1>                0.0000
      7 C7          -0.1505 -14.0832  10.3445 C.2            1 <1>                0.0000
      8 C8           0.3196 -14.4108   9.1008 C.2            1 <1>                0.0000
      9 N9           0.8961 -15.6225   8.7730 N.pl3          1 <1>                0.0000
     10 S10          0.0952 -13.1199   8.0139 S.3            1 <1>                0.0000
     11 C11         -0.6468 -12.1050   9.2398 C.2            1 <1>                0.0000
     12 C12         -1.1514 -10.6937   9.0070 C.3            1 <1>                0.0000
     13 C13         -2.0823 -10.3073  10.1594 C.3            1 <1>                0.0000
     14 C14         -1.3848 -10.6129  11.4884 C.3            1 <1>                0.0000
     15 C15         -1.2978 -12.1295  11.6728 C.3            1 <1>                0.0000
     16 C16         -0.7137 -12.7453  10.4114 C.2            1 <1>                0.0000
     17 H17          0.2320 -19.2670  12.8435 H              1 <1>                0.0000
     18 H18         -0.3622 -18.8748  11.2122 H              1 <1>                0.0000
     19 H19          1.3649 -18.6859  11.5995 H              1 <1>                0.0000
     20 H20         -0.9199 -17.0714  12.8201 H              1 <1>                0.0000
     21 H21          0.9120 -15.7440  13.8351 H              1 <1>                0.0000
     22 H22          0.9761 -17.4387  14.3752 H              1 <1>                0.0000
     23 H23          2.1089 -16.8576  13.1312 H              1 <1>                0.0000
     24 H24         -0.3075 -10.0047   8.9722 H              1 <1>                0.0000
     25 H25         -1.6990 -10.6520   8.0653 H              1 <1>                0.0000
     26 H26         -2.3097  -9.2427  10.1033 H              1 <1>                0.0000
     27 H27         -3.0054 -10.8829  10.0913 H              1 <1>                0.0000
     28 H28         -0.3806 -10.1889  11.4786 H              1 <1>                0.0000
     29 H29         -1.9566 -10.1784  12.3083 H              1 <1>                0.0000
     30 H30         -0.6570 -12.3579  12.5245 H              1 <1>                0.0000
     31 H31         -2.2951 -12.5345  11.8445 H              1 <1>                0.0000
     32 H32          0.9904 -16.3131   9.4476 H              1 <1>                0.0000
     33 H33          1.2067 -15.7829   7.8682 H              1 <1>                0.0000
@<TRIPOS>BOND
    1    1    2 1     
    2    1   17 1     
    3    1   18 1     
    4    1   19 1     
    5    2    3 1     
    6    2    4 1     
    7    2   20 1     
    8    3   21 1     
    9    3   22 1     
   10    3   23 1     
   11    4    5 1     
   12    5    6 2     
   13    5    7 1     
   14    7    8 2     
   15    7   16 1     
   16    8    9 1     
   17    8   10 1     
   18    9   32 1     
   19    9   33 1     
   20   10   11 1     
   21   11   12 1     
   22   11   16 2     
   23   12   13 1     
   24   12   24 1     
   25   12   25 1     
   26   13   14 1     
   27   13   26 1     
   28   13   27 1     
   29   14   15 1     
   30   14   28 1     
   31   14   29 1     
   32   15   16 1     
   33   15   30 1     
   34   15   31 1     
@<TRIPOS>SUBSTRUCTURE
      1 ****           1
@<TRIPOS>SET
DONOR_HYDROGENS      STATIC     ATOMS    <user>   **** ""
2 32 33
ATOM$RED        STATIC     ATOMS    COLORGROUP SYSTEM
2 32 33
@<TRIPOS>COMMENT
> <Gold.Version>
2022.2.0

> <Gold.Id.Protein>
3pbl|protein|mol2

> <Gold.Protein.RotatedTorsions>
[ 1303 1298 1297 1294 ] final  -73.15 input  179.99 | X-H torsion
[ 2461 2456 2455 2452 ] final   -1.68 input   30.03 | X-H torsion
[ 2515 2510 2509 2506 ] final -129.55 input  -89.99 | X-H torsion
[ 3721 3712 3711 3710 ] final    6.96 input -179.91 | X-H torsion
[ 3841 3832 3831 3830 ] final  144.85 input -179.91 | X-H torsion
[ 3767 3762 3761 3758 ] final  -88.17 input  -89.99 | X-H torsion
[ 2472 2467 2466 2463 ] final  130.06 input  -89.97 | X-H torsion

> <Gold.Protein.ActiveResidues>
 VAL82   VAL86   LEU89   PHE106  VAL107  ASP110  VAL111  MET112  CYS114  THR115 
 CYS181  SER182  ILE183  PHE188  VAL189  ILE190  SER192  SER193  SER196  TRP342 
 PHE345  PHE346  HIS349  VAL350  TYR365  THR369  GLY372  TYR373 

> <Gold.Protein.RotatedAtoms>
    3.6262   -8.8035    3.7993 H   0  0  0  0  0  0  0  0  0  0  0  0  # atno 1303 bound_to 1298
    1.0149   -7.9974    7.0308 H   0  0  0  0  0  0  0  0  0  0  0  0  # atno 2461 bound_to 2456
   -5.4754   -5.1336    8.2758 H   0  0  0  0  0  0  0  0  0  0  0  0  # atno 2472 bound_to 2467
    2.6629   -9.2432    5.1439 H   0  0  0  0  0  0  0  0  0  0  0  0  # atno 2515 bound_to 2510
   -2.4754  -17.9920   14.1441 H   0  0  0  0  0  0  0  0  0  0  0  0  # atno 3721 bound_to 3712
   -5.2442  -21.9233   11.1893 H   0  0  0  0  0  0  0  0  0  0  0  0  # atno 3767 bound_to 3762
    3.1315  -20.4660    8.6763 H   0  0  0  0  0  0  0  0  0  0  0  0  # atno 3841 bound_to 3832
    4.9031   -9.0580    4.7848 LP  0  0  0  0  0  0  0  0  0  0  0  0  # atno 4297 bound_to 1298
    3.8331  -10.2601    4.5077 LP  0  0  0  0  0  0  0  0  0  0  0  0  # atno 4298 bound_to 1298
    0.5944   -9.1849    8.0702 LP  0  0  0  0  0  0  0  0  0  0  0  0  # atno 4299 bound_to 2456
    2.1284   -8.6257    8.0470 LP  0  0  0  0  0  0  0  0  0  0  0  0  # atno 4300 bound_to 2456
    2.0299   -8.0175    6.0173 LP  0  0  0  0  0  0  0  0  0  0  0  0  # atno 4301 bound_to 2510
    2.6038   -7.7380    4.5142 LP  0  0  0  0  0  0  0  0  0  0  0  0  # atno 4302 bound_to 2510
   -3.4000  -16.7425   14.5461 LP  0  0  0  0  0  0  0  0  0  0  0  0  # atno 4306 bound_to 3712
   -3.2698  -17.2117   12.9874 LP  0  0  0  0  0  0  0  0  0  0  0  0  # atno 4307 bound_to 3712
    1.8562  -20.9043    9.5467 LP  0  0  0  0  0  0  0  0  0  0  0  0  # atno 4314 bound_to 3832
    1.7557  -19.6596    8.4945 LP  0  0  0  0  0  0  0  0  0  0  0  0  # atno 4315 bound_to 3832
   -3.9243  -22.8766   11.3148 LP  0  0  0  0  0  0  0  0  0  0  0  0  # atno 4318 bound_to 3762
   -4.9590  -23.0749   10.0671 LP  0  0  0  0  0  0  0  0  0  0  0  0  # atno 4319 bound_to 3762
   -3.9022   -4.8421    7.9495 LP  0  0  0  0  0  0  0  0  0  0  0  0  # atno 4320 bound_to 2467
   -4.3394   -5.4179    9.4138 LP  0  0  0  0  0  0  0  0  0  0  0  0  # atno 4321 bound_to 2467

> <Gold.Score>
     Score     S(PLP)   S(hbond)     S(cho)   S(metal)  DE(clash)   DE(tors)     intcor
     47.79     -46.79       0.43       0.00       0.00       0.00       0.15       0.01

> <Gold.PLP.Fitness>
47.7859

> <Gold.PLP.PLP>
-46.7895

> <Gold.PLP.part.hbond>
-1.0000

> <Gold.PLP.part.metal>
0.0000

> <Gold.PLP.part.buried>
-4.3992

> <Gold.PLP.part.nonpolar>
-41.9995

> <Gold.PLP.part.repulsive>
0.1897

> <Gold.PLP.ligand.clash>
0.0000

> <Gold.PLP.ligand.torsion>
0.1495

> <Gold.PLP.Chemscore.Hbond>
0.4295

> <Gold.PLP.Chemscore.CHOScore>
0.0000

> <Gold.PLP.Chemscore.Metal>
0.0000

> <Gold.Chemscore.Hbonds>
donor molecule, donor type, donor heavy atom, donor atom, acceptor molecule, acceptor atom, score
      L1  H     9    32       P1  1227  0.43

> <Gold.PLP.Chemscore.Internal.Correction>
0.0070

