#       Name:                EN300-05313_i001
#       Creating user name   fsindt
#       Creation time:       Tue Feb 28 02:44:32 2023


#       File generated by GOLD software.
#

@<TRIPOS>MOLECULE
EN300-05313_i001|amine_7|mol2|3004|dock14
    33    34     1
SMALL
USER_CHARGES


@<TRIPOS>ATOM
      1 C1          -0.1780 -15.7744  13.7746 C.3            1 <1>                0.0000
      2 C2           0.6968 -16.5237  12.7676 C.3            1 <1>                0.0000
      3 C3           2.0103 -15.7647  12.5690 C.3            1 <1>                0.0000
      4 O4           0.9747 -17.8356  13.2615 O.3            1 <1>                0.0000
      5 C5          -0.0161 -18.7466  13.1710 C.2            1 <1>                0.0000
      6 O6          -1.0100 -18.5013  12.5135 O.2            1 <1>                0.0000
      7 C7           0.1043 -20.0292  13.8634 C.2            1 <1>                0.0000
      8 C8           0.6577 -20.1637  15.1087 C.2            1 <1>                0.0000
      9 N9           1.1655 -19.1212  15.8594 N.pl3          1 <1>                0.0000
     10 S10          0.6332 -21.7919  15.6049 S.3            1 <1>                0.0000
     11 C11         -0.1352 -22.3222  14.1177 C.2            1 <1>                0.0000
     12 C12         -0.5057 -23.7579  13.7980 C.3            1 <1>                0.0000
     13 C13         -1.5038 -23.7620  12.6371 C.3            1 <1>                0.0000
     14 C14         -0.9548 -22.8903  11.5037 C.3            1 <1>                0.0000
     15 C15         -1.0028 -21.4217  11.9313 C.3            1 <1>                0.0000
     16 C16         -0.3570 -21.2872  13.3012 C.2            1 <1>                0.0000
     17 H17         -0.3899 -14.7738  13.3978 H              1 <1>                0.0000
     18 H18         -1.1138 -16.3150  13.9160 H              1 <1>                0.0000
     19 H19          0.3465 -15.7004  14.7272 H              1 <1>                0.0000
     20 H20          0.1723 -16.5977  11.8149 H              1 <1>                0.0000
     21 H21          2.6335 -16.2986  11.8515 H              1 <1>                0.0000
     22 H22          1.7984 -14.7641  12.1922 H              1 <1>                0.0000
     23 H23          2.5348 -15.6907  13.5216 H              1 <1>                0.0000
     24 H24          0.3889 -24.3115  13.5128 H              1 <1>                0.0000
     25 H25         -0.9612 -24.2214  14.6732 H              1 <1>                0.0000
     26 H26         -1.6418 -24.7820  12.2784 H              1 <1>                0.0000
     27 H27         -2.4589 -23.3607  12.9759 H              1 <1>                0.0000
     28 H28          0.0761 -23.1745  11.2922 H              1 <1>                0.0000
     29 H29         -1.5627 -23.0294  10.6098 H              1 <1>                0.0000
     30 H30         -0.4611 -20.8125  11.2077 H              1 <1>                0.0000
     31 H31         -2.0400 -21.0910  11.9866 H              1 <1>                0.0000
     32 H32          1.1446 -18.2166  15.5098 H              1 <1>                0.0000
     33 H33          1.5430 -19.2938  16.7361 H              1 <1>                0.0000
@<TRIPOS>BOND
    1    1    2 1     
    2    1   17 1     
    3    1   18 1     
    4    1   19 1     
    5    2    3 1     
    6    2    4 1     
    7    2   20 1     
    8    3   21 1     
    9    3   22 1     
   10    3   23 1     
   11    4    5 1     
   12    5    6 2     
   13    5    7 1     
   14    7    8 2     
   15    7   16 1     
   16    8    9 1     
   17    8   10 1     
   18    9   32 1     
   19    9   33 1     
   20   10   11 1     
   21   11   12 1     
   22   11   16 2     
   23   12   13 1     
   24   12   24 1     
   25   12   25 1     
   26   13   14 1     
   27   13   26 1     
   28   13   27 1     
   29   14   15 1     
   30   14   28 1     
   31   14   29 1     
   32   15   16 1     
   33   15   30 1     
   34   15   31 1     
@<TRIPOS>SUBSTRUCTURE
      1 ****           1
@<TRIPOS>SET
DONOR_HYDROGENS      STATIC     ATOMS    <user>   **** ""
2 32 33
ATOM$RED        STATIC     ATOMS    COLORGROUP SYSTEM
2 32 33
@<TRIPOS>COMMENT
> <Gold.Version>
2022.2.0

> <Gold.Id.Protein>
3pbl|protein|mol2

> <Gold.Protein.RotatedTorsions>
[ 1303 1298 1297 1294 ] final   18.32 input  179.99 | X-H torsion
[ 2461 2456 2455 2452 ] final   10.49 input   30.03 | X-H torsion
[ 2515 2510 2509 2506 ] final  -86.01 input  -89.99 | X-H torsion
[ 3721 3712 3711 3710 ] final   52.97 input -179.91 | X-H torsion
[ 3841 3832 3831 3830 ] final   57.73 input -179.91 | X-H torsion
[ 3767 3762 3761 3758 ] final -126.95 input  -89.99 | X-H torsion
[ 2472 2467 2466 2463 ] final    2.23 input  -89.97 | X-H torsion

> <Gold.Protein.ActiveResidues>
 VAL82   VAL86   LEU89   PHE106  VAL107  ASP110  VAL111  MET112  CYS114  THR115 
 CYS181  SER182  ILE183  PHE188  VAL189  ILE190  SER192  SER193  SER196  TRP342 
 PHE345  PHE346  HIS349  VAL350  TYR365  THR369  GLY372  TYR373 

> <Gold.Protein.RotatedAtoms>
    3.5158  -10.0819    4.2187 H   0  0  0  0  0  0  0  0  0  0  0  0  # atno 1303 bound_to 1298
    1.2069   -7.9429    7.0433 H   0  0  0  0  0  0  0  0  0  0  0  0  # atno 2461 bound_to 2456
   -3.8189   -4.8679    8.0444 H   0  0  0  0  0  0  0  0  0  0  0  0  # atno 2472 bound_to 2467
    2.8276   -8.8817    4.5687 H   0  0  0  0  0  0  0  0  0  0  0  0  # atno 2515 bound_to 2510
   -2.5568  -17.9542   13.4729 H   0  0  0  0  0  0  0  0  0  0  0  0  # atno 3721 bound_to 3712
   -4.7519  -22.0062   11.5673 H   0  0  0  0  0  0  0  0  0  0  0  0  # atno 3767 bound_to 3762
    2.4400  -20.9373    9.5265 H   0  0  0  0  0  0  0  0  0  0  0  0  # atno 3841 bound_to 3832
    3.9815   -8.5412    3.9438 LP  0  0  0  0  0  0  0  0  0  0  0  0  # atno 4297 bound_to 1298
    4.8651   -9.4979    4.9291 LP  0  0  0  0  0  0  0  0  0  0  0  0  # atno 4298 bound_to 1298
    0.4735   -9.0954    7.9385 LP  0  0  0  0  0  0  0  0  0  0  0  0  # atno 4299 bound_to 2456
    2.0574   -8.7697    8.1661 LP  0  0  0  0  0  0  0  0  0  0  0  0  # atno 4300 bound_to 2456
    2.1640   -8.7030    6.0498 LP  0  0  0  0  0  0  0  0  0  0  0  0  # atno 4301 bound_to 2510
    2.3049   -7.4141    5.0571 LP  0  0  0  0  0  0  0  0  0  0  0  0  # atno 4302 bound_to 2510
   -3.0422  -17.3176   14.8646 LP  0  0  0  0  0  0  0  0  0  0  0  0  # atno 4306 bound_to 3712
   -3.5337  -16.6803   13.4437 LP  0  0  0  0  0  0  0  0  0  0  0  0  # atno 4307 bound_to 3712
    1.4692  -19.8549    8.8468 LP  0  0  0  0  0  0  0  0  0  0  0  0  # atno 4314 bound_to 3832
    2.9416  -20.1646    8.2123 LP  0  0  0  0  0  0  0  0  0  0  0  0  # atno 4315 bound_to 3832
   -3.9941  -23.2375   10.8080 LP  0  0  0  0  0  0  0  0  0  0  0  0  # atno 4318 bound_to 3762
   -5.3814  -22.6311   10.1961 LP  0  0  0  0  0  0  0  0  0  0  0  0  # atno 4319 bound_to 3762
   -4.4652   -5.4381    9.4313 LP  0  0  0  0  0  0  0  0  0  0  0  0  # atno 4320 bound_to 2467
   -5.4326   -5.0875    8.1634 LP  0  0  0  0  0  0  0  0  0  0  0  0  # atno 4321 bound_to 2467

> <Gold.Score>
     Score     S(PLP)   S(hbond)     S(cho)   S(metal)  DE(clash)   DE(tors)     intcor
     38.23     -33.94       1.98       0.00       0.00       0.00       0.82       0.01

> <Gold.PLP.Fitness>
38.2319

> <Gold.PLP.PLP>
-33.9364

> <Gold.PLP.part.hbond>
-2.0000

> <Gold.PLP.part.metal>
0.0000

> <Gold.PLP.part.buried>
-4.6991

> <Gold.PLP.part.nonpolar>
-27.4957

> <Gold.PLP.part.repulsive>
0.1001

> <Gold.PLP.ligand.clash>
0.0000

> <Gold.PLP.ligand.torsion>
0.8190

> <Gold.PLP.Chemscore.Hbond>
1.9760

> <Gold.PLP.Chemscore.CHOScore>
0.0000

> <Gold.PLP.Chemscore.Metal>
0.0000

> <Gold.Chemscore.Hbonds>
donor molecule, donor type, donor heavy atom, donor atom, acceptor molecule, acceptor atom, score
      L1  H     9    33       P1  2287  0.98
      P1  H  3712  3721       L1     6  1.00

> <Gold.PLP.Chemscore.Internal.Correction>
0.0056

