#       Name:                EN300-05313_i001
#       Creating user name   fsindt
#       Creation time:       Tue Feb 28 02:44:35 2023


#       File generated by GOLD software.
#

@<TRIPOS>MOLECULE
EN300-05313_i001|amine_7|mol2|3004|dock19
    33    34     1
SMALL
USER_CHARGES


@<TRIPOS>ATOM
      1 C1          -2.2002 -10.3297  10.2663 C.3            1 <1>                0.0000
      2 C2          -0.6810 -10.1909  10.3826 C.3            1 <1>                0.0000
      3 C3          -0.3318  -9.4918  11.6979 C.3            1 <1>                0.0000
      4 O4          -0.0810 -11.4878  10.3586 O.3            1 <1>                0.0000
      5 C5           0.1814 -12.0188   9.1466 C.2            1 <1>                0.0000
      6 O6           0.4384 -11.2909   8.2061 O.2            1 <1>                0.0000
      7 C7           0.1570 -13.4695   8.9630 C.2            1 <1>                0.0000
      8 C8           0.2755 -14.0761   7.7411 C.2            1 <1>                0.0000
      9 N9           0.4309 -13.4060   6.5433 N.pl3          1 <1>                0.0000
     10 S10          0.2057 -15.7695   7.9012 S.3            1 <1>                0.0000
     11 C11          0.0128 -15.6820   9.6443 C.2            1 <1>                0.0000
     12 C12         -0.1272 -16.8817  10.5618 C.3            1 <1>                0.0000
     13 C13          0.1434 -16.4350  12.0010 C.3            1 <1>                0.0000
     14 C14         -0.7001 -15.1932  12.3051 C.3            1 <1>                0.0000
     15 C15         -0.1464 -14.0045  11.5164 C.3            1 <1>                0.0000
     16 C16          0.0107 -14.4114  10.0599 C.2            1 <1>                0.0000
     17 H17         -2.6578  -9.3406  10.2846 H              1 <1>                0.0000
     18 H18         -2.4489 -10.8278   9.3293 H              1 <1>                0.0000
     19 H19         -2.5762 -10.9195  11.1023 H              1 <1>                0.0000
     20 H20         -0.3049  -9.6011   9.5467 H              1 <1>                0.0000
     21 H21          0.7506  -9.3929  11.7807 H              1 <1>                0.0000
     22 H22         -0.7894  -8.5026  11.7162 H              1 <1>                0.0000
     23 H23         -0.7078 -10.0816  12.5339 H              1 <1>                0.0000
     24 H24         -1.1379 -17.2828  10.4875 H              1 <1>                0.0000
     25 H25          0.5940 -17.6472  10.2751 H              1 <1>                0.0000
     26 H26         -0.1268 -17.2366  12.6885 H              1 <1>                0.0000
     27 H27          1.2003 -16.1950  12.1158 H              1 <1>                0.0000
     28 H28         -1.7342 -15.3747  12.0123 H              1 <1>                0.0000
     29 H29         -0.6555 -14.9749  13.3721 H              1 <1>                0.0000
     30 H30         -0.8356 -13.1634  11.5911 H              1 <1>                0.0000
     31 H31          0.8257 -13.7197  11.9191 H              1 <1>                0.0000
     32 H32          0.4624 -12.4366   6.5303 H              1 <1>                0.0000
     33 H33          0.5085 -13.9048   5.7150 H              1 <1>                0.0000
@<TRIPOS>BOND
    1    1    2 1     
    2    1   17 1     
    3    1   18 1     
    4    1   19 1     
    5    2    3 1     
    6    2    4 1     
    7    2   20 1     
    8    3   21 1     
    9    3   22 1     
   10    3   23 1     
   11    4    5 1     
   12    5    6 2     
   13    5    7 1     
   14    7    8 2     
   15    7   16 1     
   16    8    9 1     
   17    8   10 1     
   18    9   32 1     
   19    9   33 1     
   20   10   11 1     
   21   11   12 1     
   22   11   16 2     
   23   12   13 1     
   24   12   24 1     
   25   12   25 1     
   26   13   14 1     
   27   13   26 1     
   28   13   27 1     
   29   14   15 1     
   30   14   28 1     
   31   14   29 1     
   32   15   16 1     
   33   15   30 1     
   34   15   31 1     
@<TRIPOS>SUBSTRUCTURE
      1 ****           1
@<TRIPOS>SET
DONOR_HYDROGENS      STATIC     ATOMS    <user>   **** ""
2 32 33
ATOM$RED        STATIC     ATOMS    COLORGROUP SYSTEM
2 32 33
@<TRIPOS>COMMENT
> <Gold.Version>
2022.2.0

> <Gold.Id.Protein>
3pbl|protein|mol2

> <Gold.Protein.RotatedTorsions>
[ 1303 1298 1297 1294 ] final  -15.72 input  179.99 | X-H torsion
[ 2461 2456 2455 2452 ] final -154.21 input   30.03 | X-H torsion
[ 2515 2510 2509 2506 ] final   77.29 input  -89.99 | X-H torsion
[ 3721 3712 3711 3710 ] final   39.26 input -179.91 | X-H torsion
[ 3841 3832 3831 3830 ] final  104.01 input -179.91 | X-H torsion
[ 3767 3762 3761 3758 ] final  -99.78 input  -89.99 | X-H torsion
[ 2472 2467 2466 2463 ] final   77.27 input  -89.97 | X-H torsion

> <Gold.Protein.ActiveResidues>
 VAL82   VAL86   LEU89   PHE106  VAL107  ASP110  VAL111  MET112  CYS114  THR115 
 CYS181  SER182  ILE183  PHE188  VAL189  ILE190  SER192  SER193  SER196  TRP342 
 PHE345  PHE346  HIS349  VAL350  TYR365  THR369  GLY372  TYR373 

> <Gold.Protein.RotatedAtoms>
    3.3339   -9.6515    3.9253 H   0  0  0  0  0  0  0  0  0  0  0  0  # atno 1303 bound_to 1298
    1.0422   -9.2887    8.3303 H   0  0  0  0  0  0  0  0  0  0  0  0  # atno 2461 bound_to 2456
   -4.9175   -4.8681    7.7094 H   0  0  0  0  0  0  0  0  0  0  0  0  # atno 2472 bound_to 2467
    2.0771   -7.5937    5.6893 H   0  0  0  0  0  0  0  0  0  0  0  0  # atno 2515 bound_to 2510
   -2.5049  -18.0152   13.6636 H   0  0  0  0  0  0  0  0  0  0  0  0  # atno 3721 bound_to 3712
   -5.1131  -21.9146   11.3274 H   0  0  0  0  0  0  0  0  0  0  0  0  # atno 3767 bound_to 3762
    2.9755  -20.8493    9.1162 H   0  0  0  0  0  0  0  0  0  0  0  0  # atno 3841 bound_to 3832
    4.4414   -8.4951    4.2455 LP  0  0  0  0  0  0  0  0  0  0  0  0  # atno 4297 bound_to 1298
    4.5871   -9.9747    4.9209 LP  0  0  0  0  0  0  0  0  0  0  0  0  # atno 4298 bound_to 1298
    2.1206   -8.2534    7.6724 LP  0  0  0  0  0  0  0  0  0  0  0  0  # atno 4299 bound_to 2456
    0.5749   -8.2662    7.1456 LP  0  0  0  0  0  0  0  0  0  0  0  0  # atno 4300 bound_to 2456
    2.7757   -8.2222    4.3541 LP  0  0  0  0  0  0  0  0  0  0  0  0  # atno 4301 bound_to 2510
    2.4440   -9.1836    5.6317 LP  0  0  0  0  0  0  0  0  0  0  0  0  # atno 4302 bound_to 2510
   -3.1568  -17.1231   14.8285 LP  0  0  0  0  0  0  0  0  0  0  0  0  # atno 4306 bound_to 3712
   -3.4789  -16.8044   13.2596 LP  0  0  0  0  0  0  0  0  0  0  0  0  # atno 4307 bound_to 3712
    1.4505  -20.4096    9.3550 LP  0  0  0  0  0  0  0  0  0  0  0  0  # atno 4314 bound_to 3832
    2.3417  -19.7116    8.1781 LP  0  0  0  0  0  0  0  0  0  0  0  0  # atno 4315 bound_to 3832
   -3.9072  -23.0052   11.1751 LP  0  0  0  0  0  0  0  0  0  0  0  0  # atno 4318 bound_to 3762
   -5.1072  -22.9550   10.0687 LP  0  0  0  0  0  0  0  0  0  0  0  0  # atno 4319 bound_to 3762
   -3.6446   -5.0873    8.7084 LP  0  0  0  0  0  0  0  0  0  0  0  0  # atno 4320 bound_to 2467
   -5.1548   -5.4382    9.2211 LP  0  0  0  0  0  0  0  0  0  0  0  0  # atno 4321 bound_to 2467

> <Gold.Score>
     Score     S(PLP)   S(hbond)     S(cho)   S(metal)  DE(clash)   DE(tors)     intcor
     44.59     -42.97       1.00       0.00       0.00       0.00       0.69       0.01

> <Gold.PLP.Fitness>
44.5915

> <Gold.PLP.PLP>
-42.9672

> <Gold.PLP.part.hbond>
-1.0000

> <Gold.PLP.part.metal>
0.0000

> <Gold.PLP.part.buried>
-3.3396

> <Gold.PLP.part.nonpolar>
-39.4206

> <Gold.PLP.part.repulsive>
0.0000

> <Gold.PLP.ligand.clash>
0.0000

> <Gold.PLP.ligand.torsion>
0.6906

> <Gold.PLP.Chemscore.Hbond>
1.0000

> <Gold.PLP.Chemscore.CHOScore>
0.0000

> <Gold.PLP.Chemscore.Metal>
0.0000

> <Gold.Chemscore.Hbonds>
donor molecule, donor type, donor heavy atom, donor atom, acceptor molecule, acceptor atom, score
      P1  H  2456  2461       L1     6  1.00

> <Gold.PLP.Chemscore.Internal.Correction>
0.0056

