#       Name:                EN300-05313_i001
#       Creating user name   fsindt
#       Creation time:       Tue Feb 28 02:44:27 2023


#       File generated by GOLD software.
#

@<TRIPOS>MOLECULE
EN300-05313_i001|amine_7|mol2|3004|dock5
    33    34     1
SMALL
USER_CHARGES


@<TRIPOS>ATOM
      1 C1           2.2829 -16.4101  13.6298 C.3            1 <1>                0.0000
      2 C2           1.0062 -16.2255  12.8071 C.3            1 <1>                0.0000
      3 C3          -0.0979 -15.6556  13.6998 C.3            1 <1>                0.0000
      4 O4           1.2606 -15.3226  11.7290 O.3            1 <1>                0.0000
      5 C5           0.3976 -15.3478  10.6924 C.2            1 <1>                0.0000
      6 O6          -0.2949 -16.3296  10.5010 O.2            1 <1>                0.0000
      7 C7           0.2945 -14.1948   9.7986 C.2            1 <1>                0.0000
      8 C8           0.9103 -14.1314   8.5772 C.2            1 <1>                0.0000
      9 N9           1.6961 -15.1328   8.0407 N.pl3          1 <1>                0.0000
     10 S10          0.5740 -12.6491   7.8106 S.3            1 <1>                0.0000
     11 C11         -0.4168 -12.0856   9.1464 C.2            1 <1>                0.0000
     12 C12         -1.1177 -10.7415   9.1985 C.3            1 <1>                0.0000
     13 C13         -2.1888 -10.7869  10.2915 C.3            1 <1>                0.0000
     14 C14         -1.5625 -11.3233  11.5822 C.3            1 <1>                0.0000
     15 C15         -1.2520 -12.8117  11.4090 C.3            1 <1>                0.0000
     16 C16         -0.4768 -13.0047  10.1153 C.2            1 <1>                0.0000
     17 H17          2.0887 -17.0988  14.4521 H              1 <1>                0.0000
     18 H18          3.0694 -16.8162  12.9938 H              1 <1>                0.0000
     19 H19          2.5999 -15.4469  14.0297 H              1 <1>                0.0000
     20 H20          0.6891 -17.1887  12.4072 H              1 <1>                0.0000
     21 H21         -1.0075 -15.5241  13.1136 H              1 <1>                0.0000
     22 H22         -0.2921 -16.3443  14.5221 H              1 <1>                0.0000
     23 H23          0.2191 -14.6924  14.0997 H              1 <1>                0.0000
     24 H24         -0.3934  -9.9602   9.4288 H              1 <1>                0.0000
     25 H25         -1.5862 -10.5361   8.2359 H              1 <1>                0.0000
     26 H26         -2.5764  -9.7828  10.4641 H              1 <1>                0.0000
     27 H27         -3.0005 -11.4440   9.9796 H              1 <1>                0.0000
     28 H28         -0.6407 -10.7809  11.7925 H              1 <1>                0.0000
     29 H29         -2.2608 -11.1906  12.4085 H              1 <1>                0.0000
     30 H30         -0.6547 -13.1608  12.2513 H              1 <1>                0.0000
     31 H31         -2.1833 -13.3760  11.3600 H              1 <1>                0.0000
     32 H32          1.8431 -15.9527   8.5377 H              1 <1>                0.0000
     33 H33          2.1009 -15.0161   7.1670 H              1 <1>                0.0000
@<TRIPOS>BOND
    1    1    2 1     
    2    1   17 1     
    3    1   18 1     
    4    1   19 1     
    5    2    3 1     
    6    2    4 1     
    7    2   20 1     
    8    3   21 1     
    9    3   22 1     
   10    3   23 1     
   11    4    5 1     
   12    5    6 2     
   13    5    7 1     
   14    7    8 2     
   15    7   16 1     
   16    8    9 1     
   17    8   10 1     
   18    9   32 1     
   19    9   33 1     
   20   10   11 1     
   21   11   12 1     
   22   11   16 2     
   23   12   13 1     
   24   12   24 1     
   25   12   25 1     
   26   13   14 1     
   27   13   26 1     
   28   13   27 1     
   29   14   15 1     
   30   14   28 1     
   31   14   29 1     
   32   15   16 1     
   33   15   30 1     
   34   15   31 1     
@<TRIPOS>SUBSTRUCTURE
      1 ****           1
@<TRIPOS>SET
DONOR_HYDROGENS      STATIC     ATOMS    <user>   **** ""
2 32 33
ATOM$RED        STATIC     ATOMS    COLORGROUP SYSTEM
2 32 33
@<TRIPOS>COMMENT
> <Gold.Version>
2022.2.0

> <Gold.Id.Protein>
3pbl|protein|mol2

> <Gold.Protein.RotatedTorsions>
[ 1303 1298 1297 1294 ] final   69.24 input  179.99 | X-H torsion
[ 2461 2456 2455 2452 ] final  -27.67 input   30.03 | X-H torsion
[ 2515 2510 2509 2506 ] final   41.70 input  -89.99 | X-H torsion
[ 3721 3712 3711 3710 ] final   -7.20 input -179.91 | X-H torsion
[ 3841 3832 3831 3830 ] final  157.46 input -179.91 | X-H torsion
[ 3767 3762 3761 3758 ] final   -3.84 input  -89.99 | X-H torsion
[ 2472 2467 2466 2463 ] final   54.63 input  -89.97 | X-H torsion

> <Gold.Protein.ActiveResidues>
 VAL82   VAL86   LEU89   PHE106  VAL107  ASP110  VAL111  MET112  CYS114  THR115 
 CYS181  SER182  ILE183  PHE188  VAL189  ILE190  SER192  SER193  SER196  TRP342 
 PHE345  PHE346  HIS349  VAL350  TYR365  THR369  GLY372  TYR373 

> <Gold.Protein.RotatedAtoms>
    4.1353  -10.2488    4.7140 H   0  0  0  0  0  0  0  0  0  0  0  0  # atno 1303 bound_to 1298
    0.6500   -8.2002    7.1059 H   0  0  0  0  0  0  0  0  0  0  0  0  # atno 2461 bound_to 2456
   -4.5552   -4.8104    7.6600 H   0  0  0  0  0  0  0  0  0  0  0  0  # atno 2472 bound_to 2467
    2.2549   -7.4089    5.1735 H   0  0  0  0  0  0  0  0  0  0  0  0  # atno 2515 bound_to 2510
   -2.5053  -17.9096   14.3387 H   0  0  0  0  0  0  0  0  0  0  0  0  # atno 3721 bound_to 3712
   -5.3563  -22.6693   10.1727 H   0  0  0  0  0  0  0  0  0  0  0  0  # atno 3767 bound_to 3762
    3.1010  -20.3172    8.5620 H   0  0  0  0  0  0  0  0  0  0  0  0  # atno 3841 bound_to 3832
    3.4283   -9.1109    3.7804 LP  0  0  0  0  0  0  0  0  0  0  0  0  # atno 4297 bound_to 1298
    4.7985   -8.7613    4.5970 LP  0  0  0  0  0  0  0  0  0  0  0  0  # atno 4298 bound_to 1298
    0.9420   -9.2849    8.2915 LP  0  0  0  0  0  0  0  0  0  0  0  0  # atno 4299 bound_to 2456
    2.1456   -8.3229    7.7505 LP  0  0  0  0  0  0  0  0  0  0  0  0  # atno 4300 bound_to 2456
    2.8349   -8.7772    4.4974 LP  0  0  0  0  0  0  0  0  0  0  0  0  # atno 4301 bound_to 2510
    2.2070   -8.8135    6.0044 LP  0  0  0  0  0  0  0  0  0  0  0  0  # atno 4302 bound_to 2510
   -3.4797  -16.6335   14.3525 LP  0  0  0  0  0  0  0  0  0  0  0  0  # atno 4306 bound_to 3712
   -3.1556  -17.4159   12.9562 LP  0  0  0  0  0  0  0  0  0  0  0  0  # atno 4307 bound_to 3712
    2.0341  -21.0160    9.5365 LP  0  0  0  0  0  0  0  0  0  0  0  0  # atno 4314 bound_to 3832
    1.6131  -19.7199    8.6368 LP  0  0  0  0  0  0  0  0  0  0  0  0  # atno 4315 bound_to 3832
   -4.7958  -21.9887   11.5472 LP  0  0  0  0  0  0  0  0  0  0  0  0  # atno 4318 bound_to 3762
   -3.9755  -23.2170   10.8509 LP  0  0  0  0  0  0  0  0  0  0  0  0  # atno 4319 bound_to 3762
   -3.7688   -5.2175    9.0319 LP  0  0  0  0  0  0  0  0  0  0  0  0  # atno 4320 bound_to 2467
   -5.3929   -5.3656    8.9470 LP  0  0  0  0  0  0  0  0  0  0  0  0  # atno 4321 bound_to 2467

> <Gold.Score>
     Score     S(PLP)   S(hbond)     S(cho)   S(metal)  DE(clash)   DE(tors)     intcor
     50.09     -50.94       1.00       0.00       0.00       0.00       1.93       0.01

> <Gold.PLP.Fitness>
50.0886

> <Gold.PLP.PLP>
-50.9421

> <Gold.PLP.part.hbond>
-1.6061

> <Gold.PLP.part.metal>
0.0000

> <Gold.PLP.part.buried>
-2.7282

> <Gold.PLP.part.nonpolar>
-48.1516

> <Gold.PLP.part.repulsive>
0.2426

> <Gold.PLP.ligand.clash>
0.0000

> <Gold.PLP.ligand.torsion>
1.9302

> <Gold.PLP.Chemscore.Hbond>
1.0000

> <Gold.PLP.Chemscore.CHOScore>
0.0000

> <Gold.PLP.Chemscore.Metal>
0.0000

> <Gold.Chemscore.Hbonds>
donor molecule, donor type, donor heavy atom, donor atom, acceptor molecule, acceptor atom, score
      L1  H     9    32       P1  1227  1.00

> <Gold.PLP.Chemscore.Internal.Correction>
0.0070

