#       Name:                EN300-05313_i001
#       Creating user name   fsindt
#       Creation time:       Tue Feb 28 02:44:34 2023


#       File generated by GOLD software.
#

@<TRIPOS>MOLECULE
EN300-05313_i001|amine_7|mol2|3004|dock17
    33    34     1
SMALL
USER_CHARGES


@<TRIPOS>ATOM
      1 C1           2.0526 -16.4942  14.4004 C.3            1 <1>                0.0000
      2 C2           0.6616 -16.9402  13.9453 C.3            1 <1>                0.0000
      3 C3          -0.4025 -16.2082  14.7654 C.3            1 <1>                0.0000
      4 O4           0.4918 -16.6311  12.5605 O.3            1 <1>                0.0000
      5 C5          -0.3641 -17.4045  11.8609 C.2            1 <1>                0.0000
      6 O6          -1.1133 -18.1648  12.4447 O.2            1 <1>                0.0000
      7 C7          -0.3913 -17.3290  10.4006 C.2            1 <1>                0.0000
      8 C8          -0.6970 -18.3948   9.5970 C.2            1 <1>                0.0000
      9 N9          -1.0139 -19.6587  10.0554 N.pl3          1 <1>                0.0000
     10 S10         -0.6333 -17.9479   7.9556 S.3            1 <1>                0.0000
     11 C11         -0.1870 -16.2927   8.3356 C.2            1 <1>                0.0000
     12 C12          0.0649 -15.2056   7.3082 C.3            1 <1>                0.0000
     13 C13          0.0147 -13.8451   8.0087 C.3            1 <1>                0.0000
     14 C14          0.9144 -13.8880   9.2475 C.3            1 <1>                0.0000
     15 C15          0.2719 -14.7896  10.3039 C.3            1 <1>                0.0000
     16 C16         -0.1027 -16.1139   9.6577 C.2            1 <1>                0.0000
     17 H17          2.1821 -16.7299  15.4567 H              1 <1>                0.0000
     18 H18          2.8107 -17.0157  13.8162 H              1 <1>                0.0000
     19 H19          2.1558 -15.4191  14.2528 H              1 <1>                0.0000
     20 H20          0.5583 -18.0152  14.0930 H              1 <1>                0.0000
     21 H21         -1.3934 -16.5260  14.4412 H              1 <1>                0.0000
     22 H22         -0.2729 -16.4440  15.8217 H              1 <1>                0.0000
     23 H23         -0.2992 -15.1332  14.6178 H              1 <1>                0.0000
     24 H24          1.0471 -15.3487   6.8578 H              1 <1>                0.0000
     25 H25         -0.7032 -15.2475   6.5359 H              1 <1>                0.0000
     26 H26          0.3685 -13.0710   7.3277 H              1 <1>                0.0000
     27 H27         -1.0100 -13.6274   8.3096 H              1 <1>                0.0000
     28 H28          1.8916 -14.2862   8.9743 H              1 <1>                0.0000
     29 H29          1.0296 -12.8813   9.6491 H              1 <1>                0.0000
     30 H30          0.9789 -14.9630  11.1152 H              1 <1>                0.0000
     31 H31         -0.6261 -14.3114  10.6952 H              1 <1>                0.0000
     32 H32         -1.0305 -19.8391  11.0083 H              1 <1>                0.0000
     33 H33         -1.2199 -20.3659   9.4243 H              1 <1>                0.0000
@<TRIPOS>BOND
    1    1    2 1     
    2    1   17 1     
    3    1   18 1     
    4    1   19 1     
    5    2    3 1     
    6    2    4 1     
    7    2   20 1     
    8    3   21 1     
    9    3   22 1     
   10    3   23 1     
   11    4    5 1     
   12    5    6 2     
   13    5    7 1     
   14    7    8 2     
   15    7   16 1     
   16    8    9 1     
   17    8   10 1     
   18    9   32 1     
   19    9   33 1     
   20   10   11 1     
   21   11   12 1     
   22   11   16 2     
   23   12   13 1     
   24   12   24 1     
   25   12   25 1     
   26   13   14 1     
   27   13   26 1     
   28   13   27 1     
   29   14   15 1     
   30   14   28 1     
   31   14   29 1     
   32   15   16 1     
   33   15   30 1     
   34   15   31 1     
@<TRIPOS>SUBSTRUCTURE
      1 ****           1
@<TRIPOS>SET
DONOR_HYDROGENS      STATIC     ATOMS    <user>   **** ""
2 32 33
ATOM$RED        STATIC     ATOMS    COLORGROUP SYSTEM
2 32 33
@<TRIPOS>COMMENT
> <Gold.Version>
2022.2.0

> <Gold.Id.Protein>
3pbl|protein|mol2

> <Gold.Protein.RotatedTorsions>
[ 1303 1298 1297 1294 ] final  168.47 input  179.99 | X-H torsion
[ 2461 2456 2455 2452 ] final  -19.83 input   30.03 | X-H torsion
[ 2515 2510 2509 2506 ] final  -85.99 input  -89.99 | X-H torsion
[ 3721 3712 3711 3710 ] final   47.58 input -179.91 | X-H torsion
[ 3841 3832 3831 3830 ] final -142.31 input -179.91 | X-H torsion
[ 3767 3762 3761 3758 ] final  131.74 input  -89.99 | X-H torsion
[ 2472 2467 2466 2463 ] final   58.56 input  -89.97 | X-H torsion

> <Gold.Protein.ActiveResidues>
 VAL82   VAL86   LEU89   PHE106  VAL107  ASP110  VAL111  MET112  CYS114  THR115 
 CYS181  SER182  ILE183  PHE188  VAL189  ILE190  SER192  SER193  SER196  TRP342 
 PHE345  PHE346  HIS349  VAL350  TYR365  THR369  GLY372  TYR373 

> <Gold.Protein.RotatedAtoms>
    4.8989   -9.0342    4.7733 H   0  0  0  0  0  0  0  0  0  0  0  0  # atno 1303 bound_to 1298
    0.7505   -8.1281    7.0690 H   0  0  0  0  0  0  0  0  0  0  0  0  # atno 2461 bound_to 2456
   -4.6195   -4.8170    7.6587 H   0  0  0  0  0  0  0  0  0  0  0  0  # atno 2472 bound_to 2467
    2.8276   -8.8815    4.5685 H   0  0  0  0  0  0  0  0  0  0  0  0  # atno 2515 bound_to 2510
   -2.5338  -17.9830   13.5456 H   0  0  0  0  0  0  0  0  0  0  0  0  # atno 3721 bound_to 3712
   -3.9149  -23.0893   11.0639 H   0  0  0  0  0  0  0  0  0  0  0  0  # atno 3767 bound_to 3762
    2.5277  -19.6962    8.3609 H   0  0  0  0  0  0  0  0  0  0  0  0  # atno 3841 bound_to 3832
    3.8540  -10.2639    4.5237 LP  0  0  0  0  0  0  0  0  0  0  0  0  # atno 4297 bound_to 1298
    3.6090   -8.8234    3.7945 LP  0  0  0  0  0  0  0  0  0  0  0  0  # atno 4298 bound_to 1298
    0.8270   -9.2689    8.2353 LP  0  0  0  0  0  0  0  0  0  0  0  0  # atno 4299 bound_to 2456
    2.1602   -8.4110    7.8437 LP  0  0  0  0  0  0  0  0  0  0  0  0  # atno 4300 bound_to 2456
    2.1642   -8.7034    6.0497 LP  0  0  0  0  0  0  0  0  0  0  0  0  # atno 4301 bound_to 2510
    2.3048   -7.4140    5.0574 LP  0  0  0  0  0  0  0  0  0  0  0  0  # atno 4302 bound_to 2510
   -3.0873  -17.2400   14.8569 LP  0  0  0  0  0  0  0  0  0  0  0  0  # atno 4306 bound_to 3712
   -3.5150  -16.7247   13.3675 LP  0  0  0  0  0  0  0  0  0  0  0  0  # atno 4307 bound_to 3712
    2.8763  -21.0883    9.0798 LP  0  0  0  0  0  0  0  0  0  0  0  0  # atno 4314 bound_to 3832
    1.4331  -20.3649    9.3257 LP  0  0  0  0  0  0  0  0  0  0  0  0  # atno 4315 bound_to 3832
   -5.2055  -22.8587   10.0904 LP  0  0  0  0  0  0  0  0  0  0  0  0  # atno 4318 bound_to 3762
   -5.0067  -21.9273   11.4169 LP  0  0  0  0  0  0  0  0  0  0  0  0  # atno 4319 bound_to 3762
   -3.7376   -5.1953    8.9799 LP  0  0  0  0  0  0  0  0  0  0  0  0  # atno 4320 bound_to 2467
   -5.3598   -5.3812    9.0003 LP  0  0  0  0  0  0  0  0  0  0  0  0  # atno 4321 bound_to 2467

> <Gold.Score>
     Score     S(PLP)   S(hbond)     S(cho)   S(metal)  DE(clash)   DE(tors)     intcor
     39.43     -38.16       1.00       0.00       0.00       0.00       0.87       0.01

> <Gold.PLP.Fitness>
39.4341

> <Gold.PLP.PLP>
-38.1594

> <Gold.PLP.part.hbond>
-1.0000

> <Gold.PLP.part.metal>
0.0000

> <Gold.PLP.part.buried>
2.5685

> <Gold.PLP.part.nonpolar>
-39.6154

> <Gold.PLP.part.repulsive>
0.0898

> <Gold.PLP.ligand.clash>
0.0000

> <Gold.PLP.ligand.torsion>
0.8654

> <Gold.PLP.Chemscore.Hbond>
1.0000

> <Gold.PLP.Chemscore.CHOScore>
0.0000

> <Gold.PLP.Chemscore.Metal>
0.0000

> <Gold.Chemscore.Hbonds>
donor molecule, donor type, donor heavy atom, donor atom, acceptor molecule, acceptor atom, score
      P1  H  3712  3721       L1     6  1.00

> <Gold.PLP.Chemscore.Internal.Correction>
0.0056

