#       Name:                EN300-05313_i001
#       Creating user name   fsindt
#       Creation time:       Tue Feb 28 02:44:26 2023


#       File generated by GOLD software.
#

@<TRIPOS>MOLECULE
EN300-05313_i001|amine_7|mol2|3004|dock3
    33    34     1
SMALL
USER_CHARGES


@<TRIPOS>ATOM
      1 C1           2.1331 -17.4686  14.6199 C.3            1 <1>                0.0000
      2 C2           0.7444 -17.0316  14.1496 C.3            1 <1>                0.0000
      3 C3           0.8369 -15.6485  13.5023 C.3            1 <1>                0.0000
      4 O4           0.2469 -17.9719  13.1953 O.3            1 <1>                0.0000
      5 C5          -0.3955 -19.0546  13.6799 C.2            1 <1>                0.0000
      6 O6          -0.9247 -19.0088  14.7746 O.2            1 <1>                0.0000
      7 C7          -0.4560 -20.2836  12.8895 C.2            1 <1>                0.0000
      8 C8           0.1806 -20.4377  11.6870 C.2            1 <1>                0.0000
      9 N9           0.9498 -19.4670  11.0754 N.pl3          1 <1>                0.0000
     10 S10         -0.1056 -21.9901  11.0498 S.3            1 <1>                0.0000
     11 C11         -1.1027 -22.4604  12.4166 C.2            1 <1>                0.0000
     12 C12         -1.7703 -23.8128  12.5774 C.3            1 <1>                0.0000
     13 C13         -2.1856 -23.9859  14.0408 C.3            1 <1>                0.0000
     14 C14         -2.9590 -22.7427  14.4906 C.3            1 <1>                0.0000
     15 C15         -1.9929 -21.5604  14.5941 C.3            1 <1>                0.0000
     16 C16         -1.1925 -21.4654  13.3049 C.2            1 <1>                0.0000
     17 H17          2.5125 -16.7514  15.3478 H              1 <1>                0.0000
     18 H18          2.0672 -18.4539  15.0812 H              1 <1>                0.0000
     19 H19          2.8091 -17.5116  13.7659 H              1 <1>                0.0000
     20 H20          0.0684 -16.9885  15.0036 H              1 <1>                0.0000
     21 H21         -0.1526 -15.3372  13.1672 H              1 <1>                0.0000
     22 H22          1.2162 -14.9313  14.2301 H              1 <1>                0.0000
     23 H23          1.5128 -15.6915  12.6482 H              1 <1>                0.0000
     24 H24         -2.6522 -23.8634  11.9388 H              1 <1>                0.0000
     25 H25         -1.0703 -24.6012  12.3004 H              1 <1>                0.0000
     26 H26         -2.8216 -24.8659  14.1377 H              1 <1>                0.0000
     27 H27         -1.2969 -24.1065  14.6603 H              1 <1>                0.0000
     28 H28         -3.7372 -22.5145  13.7623 H              1 <1>                0.0000
     29 H29         -3.4129 -22.9285  15.4640 H              1 <1>                0.0000
     30 H30         -2.5567 -20.6400  14.7459 H              1 <1>                0.0000
     31 H31         -1.3126 -21.7167  15.4313 H              1 <1>                0.0000
     32 H32          1.0685 -18.6031  11.5003 H              1 <1>                0.0000
     33 H33          1.3713 -19.6492  10.2210 H              1 <1>                0.0000
@<TRIPOS>BOND
    1    1    2 1     
    2    1   17 1     
    3    1   18 1     
    4    1   19 1     
    5    2    3 1     
    6    2    4 1     
    7    2   20 1     
    8    3   21 1     
    9    3   22 1     
   10    3   23 1     
   11    4    5 1     
   12    5    6 2     
   13    5    7 1     
   14    7    8 2     
   15    7   16 1     
   16    8    9 1     
   17    8   10 1     
   18    9   32 1     
   19    9   33 1     
   20   10   11 1     
   21   11   12 1     
   22   11   16 2     
   23   12   13 1     
   24   12   24 1     
   25   12   25 1     
   26   13   14 1     
   27   13   26 1     
   28   13   27 1     
   29   14   15 1     
   30   14   28 1     
   31   14   29 1     
   32   15   16 1     
   33   15   30 1     
   34   15   31 1     
@<TRIPOS>SUBSTRUCTURE
      1 ****           1
@<TRIPOS>SET
DONOR_HYDROGENS      STATIC     ATOMS    <user>   **** ""
2 32 33
ATOM$RED        STATIC     ATOMS    COLORGROUP SYSTEM
2 32 33
@<TRIPOS>COMMENT
> <Gold.Version>
2022.2.0

> <Gold.Id.Protein>
3pbl|protein|mol2

> <Gold.Protein.RotatedTorsions>
[ 1303 1298 1297 1294 ] final   -4.41 input  179.99 | X-H torsion
[ 2461 2456 2455 2452 ] final -163.52 input   30.03 | X-H torsion
[ 2515 2510 2509 2506 ] final -132.86 input  -89.99 | X-H torsion
[ 3721 3712 3711 3710 ] final  -11.04 input -179.91 | X-H torsion
[ 3841 3832 3831 3830 ] final -171.52 input -179.91 | X-H torsion
[ 3767 3762 3761 3758 ] final  -78.60 input  -89.99 | X-H torsion
[ 2472 2467 2466 2463 ] final  -66.43 input  -89.97 | X-H torsion

> <Gold.Protein.ActiveResidues>
 VAL82   VAL86   LEU89   PHE106  VAL107  ASP110  VAL111  MET112  CYS114  THR115 
 CYS181  SER182  ILE183  PHE188  VAL189  ILE190  SER192  SER193  SER196  TRP342 
 PHE345  PHE346  HIS349  VAL350  TYR365  THR369  GLY372  TYR373 

> <Gold.Protein.RotatedAtoms>
    3.3657   -9.8136    4.0103 H   0  0  0  0  0  0  0  0  0  0  0  0  # atno 1303 bound_to 1298
    1.1892   -9.2785    8.3714 H   0  0  0  0  0  0  0  0  0  0  0  0  # atno 2461 bound_to 2456
   -3.7778   -5.2242    9.0454 H   0  0  0  0  0  0  0  0  0  0  0  0  # atno 2472 bound_to 2467
    2.6434   -9.2510    5.1941 H   0  0  0  0  0  0  0  0  0  0  0  0  # atno 2515 bound_to 2510
   -2.5177  -17.8804   14.3873 H   0  0  0  0  0  0  0  0  0  0  0  0  # atno 3721 bound_to 3712
   -5.3362  -21.9521   11.0648 H   0  0  0  0  0  0  0  0  0  0  0  0  # atno 3767 bound_to 3762
    2.8781  -19.9561    8.3767 H   0  0  0  0  0  0  0  0  0  0  0  0  # atno 3841 bound_to 3832
    4.2932   -8.4755    4.1350 LP  0  0  0  0  0  0  0  0  0  0  0  0  # atno 4297 bound_to 1298
    4.7035   -9.8320    4.9464 LP  0  0  0  0  0  0  0  0  0  0  0  0  # atno 4298 bound_to 1298
    2.0654   -8.1626    7.5624 LP  0  0  0  0  0  0  0  0  0  0  0  0  # atno 4299 bound_to 2456
    0.4831   -8.3673    7.2145 LP  0  0  0  0  0  0  0  0  0  0  0  0  # atno 4300 bound_to 2456
    2.0287   -7.9678    5.9949 LP  0  0  0  0  0  0  0  0  0  0  0  0  # atno 4301 bound_to 2510
    2.6246   -7.7799    4.4862 LP  0  0  0  0  0  0  0  0  0  0  0  0  # atno 4302 bound_to 2510
   -3.4973  -16.6117   14.2949 LP  0  0  0  0  0  0  0  0  0  0  0  0  # atno 4306 bound_to 3712
   -3.1236  -17.4714   12.9578 LP  0  0  0  0  0  0  0  0  0  0  0  0  # atno 4307 bound_to 3712
    2.4992  -21.1556    9.3735 LP  0  0  0  0  0  0  0  0  0  0  0  0  # atno 4314 bound_to 3832
    1.4055  -19.9975    9.0138 LP  0  0  0  0  0  0  0  0  0  0  0  0  # atno 4315 bound_to 3832
   -3.9627  -22.7626   11.4162 LP  0  0  0  0  0  0  0  0  0  0  0  0  # atno 4318 bound_to 3762
   -4.8288  -23.1601   10.0901 LP  0  0  0  0  0  0  0  0  0  0  0  0  # atno 4319 bound_to 3762
   -5.4010   -5.3612    8.9325 LP  0  0  0  0  0  0  0  0  0  0  0  0  # atno 4320 bound_to 2467
   -4.5379   -4.8082    7.6614 LP  0  0  0  0  0  0  0  0  0  0  0  0  # atno 4321 bound_to 2467

> <Gold.Score>
     Score     S(PLP)   S(hbond)     S(cho)   S(metal)  DE(clash)   DE(tors)     intcor
     42.39     -37.68       2.00       0.00       0.00       0.00       0.65       0.01

> <Gold.PLP.Fitness>
42.3927

> <Gold.PLP.PLP>
-37.6799

> <Gold.PLP.part.hbond>
-3.0000

> <Gold.PLP.part.metal>
0.0000

> <Gold.PLP.part.buried>
-4.5959

> <Gold.PLP.part.nonpolar>
-30.4029

> <Gold.PLP.part.repulsive>
0.0331

> <Gold.PLP.ligand.clash>
0.0000

> <Gold.PLP.ligand.torsion>
0.6507

> <Gold.PLP.Chemscore.Hbond>
2.0000

> <Gold.PLP.Chemscore.CHOScore>
0.0000

> <Gold.PLP.Chemscore.Metal>
0.0000

> <Gold.Chemscore.Hbonds>
donor molecule, donor type, donor heavy atom, donor atom, acceptor molecule, acceptor atom, score
      L1  H     9    33       P1  3832  1.00
      P1  H  3712  3721       L1     6  1.00

> <Gold.PLP.Chemscore.Internal.Correction>
0.0143

