#       Name:                EN300-05313_i001
#       Creating user name   fsindt
#       Creation time:       Tue Feb 28 02:44:35 2023


#       File generated by GOLD software.
#

@<TRIPOS>MOLECULE
EN300-05313_i001|amine_7|mol2|3004|dock18
    33    34     1
SMALL
USER_CHARGES


@<TRIPOS>ATOM
      1 C1          -3.6019 -10.7712  10.2490 C.3            1 <1>                0.0000
      2 C2          -2.0755 -10.6747  10.2893 C.3            1 <1>                0.0000
      3 C3          -1.5737 -11.1025  11.6699 C.3            1 <1>                0.0000
      4 O4          -1.5175 -11.5334   9.2925 O.3            1 <1>                0.0000
      5 C5          -0.1889 -11.4399   9.0777 C.2            1 <1>                0.0000
      6 O6           0.4865 -10.6922   9.7598 O.2            1 <1>                0.0000
      7 C7           0.4395 -12.2372   8.0250 C.2            1 <1>                0.0000
      8 C8           1.1610 -11.6921   6.9967 C.2            1 <1>                0.0000
      9 N9           1.3844 -10.3400   6.8242 N.pl3          1 <1>                0.0000
     10 S10          1.7453 -12.9099   5.9606 S.3            1 <1>                0.0000
     11 C11          1.0139 -14.1905   6.9138 C.2            1 <1>                0.0000
     12 C12          1.1057 -15.6700   6.5927 C.3            1 <1>                0.0000
     13 C13          0.7183 -16.4694   7.8397 C.3            1 <1>                0.0000
     14 C14         -0.6080 -15.9316   8.3853 C.3            1 <1>                0.0000
     15 C15         -0.3784 -14.5417   8.9832 C.3            1 <1>                0.0000
     16 C16          0.3659 -13.6874   7.9693 C.2            1 <1>                0.0000
     17 H17         -4.0275 -10.1162  11.0092 H              1 <1>                0.0000
     18 H18         -3.9594 -10.4663   9.2655 H              1 <1>                0.0000
     19 H19         -3.9062 -11.7996  10.4436 H              1 <1>                0.0000
     20 H20         -1.7711  -9.6463  10.0947 H              1 <1>                0.0000
     21 H21         -0.4862 -11.0337  11.6986 H              1 <1>                0.0000
     22 H22         -1.9993 -10.4475  12.4301 H              1 <1>                0.0000
     23 H23         -1.8780 -12.1309  11.8645 H              1 <1>                0.0000
     24 H24          0.4228 -15.9103   5.7778 H              1 <1>                0.0000
     25 H25          2.1265 -15.9183   6.3020 H              1 <1>                0.0000
     26 H26          0.6050 -17.5214   7.5778 H              1 <1>                0.0000
     27 H27          1.4945 -16.3623   8.5973 H              1 <1>                0.0000
     28 H28         -1.3345 -15.8643   7.5755 H              1 <1>                0.0000
     29 H29         -0.9832 -16.6029   9.1576 H              1 <1>                0.0000
     30 H30         -1.3384 -14.0818   9.2179 H              1 <1>                0.0000
     31 H31          0.2190 -14.6285   9.8908 H              1 <1>                0.0000
     32 H32          1.0187  -9.7032   7.4580 H              1 <1>                0.0000
     33 H33          1.9070 -10.0272   6.0693 H              1 <1>                0.0000
@<TRIPOS>BOND
    1    1    2 1     
    2    1   17 1     
    3    1   18 1     
    4    1   19 1     
    5    2    3 1     
    6    2    4 1     
    7    2   20 1     
    8    3   21 1     
    9    3   22 1     
   10    3   23 1     
   11    4    5 1     
   12    5    6 2     
   13    5    7 1     
   14    7    8 2     
   15    7   16 1     
   16    8    9 1     
   17    8   10 1     
   18    9   32 1     
   19    9   33 1     
   20   10   11 1     
   21   11   12 1     
   22   11   16 2     
   23   12   13 1     
   24   12   24 1     
   25   12   25 1     
   26   13   14 1     
   27   13   26 1     
   28   13   27 1     
   29   14   15 1     
   30   14   28 1     
   31   14   29 1     
   32   15   16 1     
   33   15   30 1     
   34   15   31 1     
@<TRIPOS>SUBSTRUCTURE
      1 ****           1
@<TRIPOS>SET
DONOR_HYDROGENS      STATIC     ATOMS    <user>   **** ""
2 32 33
ATOM$RED        STATIC     ATOMS    COLORGROUP SYSTEM
2 32 33
@<TRIPOS>COMMENT
> <Gold.Version>
2022.2.0

> <Gold.Id.Protein>
3pbl|protein|mol2

> <Gold.Protein.RotatedTorsions>
[ 1303 1298 1297 1294 ] final -147.31 input  179.99 | X-H torsion
[ 2461 2456 2455 2452 ] final -164.26 input   30.03 | X-H torsion
[ 2515 2510 2509 2506 ] final  -21.18 input  -89.99 | X-H torsion
[ 3721 3712 3711 3710 ] final  -43.66 input -179.91 | X-H torsion
[ 3841 3832 3831 3830 ] final   50.27 input -179.91 | X-H torsion
[ 3767 3762 3761 3758 ] final  -65.90 input  -89.99 | X-H torsion
[ 2472 2467 2466 2463 ] final   17.35 input  -89.97 | X-H torsion

> <Gold.Protein.ActiveResidues>
 VAL82   VAL86   LEU89   PHE106  VAL107  ASP110  VAL111  MET112  CYS114  THR115 
 CYS181  SER182  ILE183  PHE188  VAL189  ILE190  SER192  SER193  SER196  TRP342 
 PHE345  PHE346  HIS349  VAL350  TYR365  THR369  GLY372  TYR373 

> <Gold.Protein.RotatedAtoms>
    4.5798   -8.5505    4.3638 H   0  0  0  0  0  0  0  0  0  0  0  0  # atno 1303 bound_to 1298
    1.2010   -9.2769    8.3739 H   0  0  0  0  0  0  0  0  0  0  0  0  # atno 2461 bound_to 2456
   -3.9907   -4.8242    7.8708 H   0  0  0  0  0  0  0  0  0  0  0  0  # atno 2472 bound_to 2467
    2.6740   -7.8931    4.4274 H   0  0  0  0  0  0  0  0  0  0  0  0  # atno 2515 bound_to 2510
   -2.6856  -17.5401   14.6919 H   0  0  0  0  0  0  0  0  0  0  0  0  # atno 3721 bound_to 3712
   -5.4307  -22.0190   10.8915 H   0  0  0  0  0  0  0  0  0  0  0  0  # atno 3767 bound_to 3762
    2.3378  -20.9104    9.5656 H   0  0  0  0  0  0  0  0  0  0  0  0  # atno 3841 bound_to 3832
    4.4491  -10.0967    4.8723 LP  0  0  0  0  0  0  0  0  0  0  0  0  # atno 4297 bound_to 1298
    3.3331   -9.4745    3.8554 LP  0  0  0  0  0  0  0  0  0  0  0  0  # atno 4298 bound_to 1298
    2.0601   -8.1559    7.5538 LP  0  0  0  0  0  0  0  0  0  0  0  0  # atno 4299 bound_to 2456
    0.4766   -8.3756    7.2206 LP  0  0  0  0  0  0  0  0  0  0  0  0  # atno 4300 bound_to 2456
    2.5912   -9.2575    5.3205 LP  0  0  0  0  0  0  0  0  0  0  0  0  # atno 4301 bound_to 2510
    2.0313   -7.8487    5.9277 LP  0  0  0  0  0  0  0  0  0  0  0  0  # atno 4302 bound_to 2510
   -3.5674  -16.5718   13.7631 LP  0  0  0  0  0  0  0  0  0  0  0  0  # atno 4306 bound_to 3712
   -2.8597  -17.9041   13.1379 LP  0  0  0  0  0  0  0  0  0  0  0  0  # atno 4307 bound_to 3712
    1.5230  -19.7899    8.7552 LP  0  0  0  0  0  0  0  0  0  0  0  0  # atno 4314 bound_to 3832
    3.0057  -20.2608    8.2587 LP  0  0  0  0  0  0  0  0  0  0  0  0  # atno 4315 bound_to 3832
   -4.0453  -22.6061   11.5262 LP  0  0  0  0  0  0  0  0  0  0  0  0  # atno 4318 bound_to 3762
   -4.6516  -23.2498   10.1534 LP  0  0  0  0  0  0  0  0  0  0  0  0  # atno 4319 bound_to 3762
   -4.2259   -5.3942    9.3828 LP  0  0  0  0  0  0  0  0  0  0  0  0  # atno 4320 bound_to 2467
   -5.5002   -5.1750    8.3855 LP  0  0  0  0  0  0  0  0  0  0  0  0  # atno 4321 bound_to 2467

> <Gold.Score>
     Score     S(PLP)   S(hbond)     S(cho)   S(metal)  DE(clash)   DE(tors)     intcor
     43.12     -41.67       1.22       0.00       0.00       0.00       1.11       0.01

> <Gold.PLP.Fitness>
43.1165

> <Gold.PLP.PLP>
-41.6748

> <Gold.PLP.part.hbond>
-1.7698

> <Gold.PLP.part.metal>
0.0000

> <Gold.PLP.part.buried>
-0.0516

> <Gold.PLP.part.nonpolar>
-41.4166

> <Gold.PLP.part.repulsive>
0.0000

> <Gold.PLP.ligand.clash>
0.0000

> <Gold.PLP.ligand.torsion>
1.1072

> <Gold.PLP.Chemscore.Hbond>
1.2169

> <Gold.PLP.Chemscore.CHOScore>
0.0000

> <Gold.PLP.Chemscore.Metal>
0.0000

> <Gold.Chemscore.Hbonds>
donor molecule, donor type, donor heavy atom, donor atom, acceptor molecule, acceptor atom, score
      L1  H     9    33       P1  2510  0.23
      P1  H  2456  2461       L1     6  0.99

> <Gold.PLP.Chemscore.Internal.Correction>
0.0056

