#       Name:                EN300-05313_i001
#       Creating user name   fsindt
#       Creation time:       Tue Feb 28 02:44:33 2023


#       File generated by GOLD software.
#

@<TRIPOS>MOLECULE
EN300-05313_i001|amine_7|mol2|3004|dock15
    33    34     1
SMALL
USER_CHARGES


@<TRIPOS>ATOM
      1 C1          -0.3214 -17.2300  12.7453 C.3            1 <1>                0.0000
      2 C2          -0.0149 -17.4260  11.2592 C.3            1 <1>                0.0000
      3 C3          -0.8518 -18.5851  10.7144 C.3            1 <1>                0.0000
      4 O4          -0.3354 -16.2303  10.5451 O.3            1 <1>                0.0000
      5 C5           0.4830 -15.1727  10.7231 C.2            1 <1>                0.0000
      6 O6           1.2647 -15.1584  11.6554 O.2            1 <1>                0.0000
      7 C7           0.4306 -14.0433   9.7955 C.2            1 <1>                0.0000
      8 C8           1.1469 -13.9925   8.6296 C.2            1 <1>                0.0000
      9 N9           1.9980 -14.9862   8.1866 N.pl3          1 <1>                0.0000
     10 S10          0.8439 -12.5367   7.8007 S.3            1 <1>                0.0000
     11 C11         -0.2697 -11.9675   9.0333 C.2            1 <1>                0.0000
     12 C12         -1.0026 -10.6402   8.9925 C.3            1 <1>                0.0000
     13 C13         -2.1619 -10.6871   9.9915 C.3            1 <1>                0.0000
     14 C14         -1.6361 -11.1784  11.3436 C.3            1 <1>                0.0000
     15 C15         -1.2785 -12.6622  11.2342 C.3            1 <1>                0.0000
     16 C16         -0.3916 -12.8655  10.0161 C.2            1 <1>                0.0000
     17 H17         -0.0770 -18.1420  13.2899 H              1 <1>                0.0000
     18 H18          0.2749 -16.4043  13.1334 H              1 <1>                0.0000
     19 H19         -1.3803 -17.0043  12.8712 H              1 <1>                0.0000
     20 H20          1.0439 -17.6517  11.1332 H              1 <1>                0.0000
     21 H21         -0.6334 -18.7247   9.6556 H              1 <1>                0.0000
     22 H22         -0.6074 -19.4971  11.2590 H              1 <1>                0.0000
     23 H23         -1.9107 -18.3594  10.8403 H              1 <1>                0.0000
     24 H24         -0.3185  -9.8363   9.2640 H              1 <1>                0.0000
     25 H25         -1.3918 -10.4682   7.9889 H              1 <1>                0.0000
     26 H26         -2.5854  -9.6891  10.1057 H              1 <1>                0.0000
     27 H27         -2.9290 -11.3708   9.6282 H              1 <1>                0.0000
     28 H28         -0.7481 -10.6089  11.6178 H              1 <1>                0.0000
     29 H29         -2.4053 -11.0442  12.1041 H              1 <1>                0.0000
     30 H30         -0.7476 -12.9774  12.1325 H              1 <1>                0.0000
     31 H31         -2.1893 -13.2502  11.1204 H              1 <1>                0.0000
     32 H32          2.1204 -15.7908   8.7144 H              1 <1>                0.0000
     33 H33          2.4732 -14.8795   7.3478 H              1 <1>                0.0000
@<TRIPOS>BOND
    1    1    2 1     
    2    1   17 1     
    3    1   18 1     
    4    1   19 1     
    5    2    3 1     
    6    2    4 1     
    7    2   20 1     
    8    3   21 1     
    9    3   22 1     
   10    3   23 1     
   11    4    5 1     
   12    5    6 2     
   13    5    7 1     
   14    7    8 2     
   15    7   16 1     
   16    8    9 1     
   17    8   10 1     
   18    9   32 1     
   19    9   33 1     
   20   10   11 1     
   21   11   12 1     
   22   11   16 2     
   23   12   13 1     
   24   12   24 1     
   25   12   25 1     
   26   13   14 1     
   27   13   26 1     
   28   13   27 1     
   29   14   15 1     
   30   14   28 1     
   31   14   29 1     
   32   15   16 1     
   33   15   30 1     
   34   15   31 1     
@<TRIPOS>SUBSTRUCTURE
      1 ****           1
@<TRIPOS>SET
DONOR_HYDROGENS      STATIC     ATOMS    <user>   **** ""
2 32 33
ATOM$RED        STATIC     ATOMS    COLORGROUP SYSTEM
2 32 33
@<TRIPOS>COMMENT
> <Gold.Version>
2022.2.0

> <Gold.Id.Protein>
3pbl|protein|mol2

> <Gold.Protein.RotatedTorsions>
[ 1303 1298 1297 1294 ] final -166.47 input  179.99 | X-H torsion
[ 2461 2456 2455 2452 ] final  -98.23 input   30.03 | X-H torsion
[ 2515 2510 2509 2506 ] final  129.16 input  -89.99 | X-H torsion
[ 3721 3712 3711 3710 ] final    2.45 input -179.91 | X-H torsion
[ 3841 3832 3831 3830 ] final -175.66 input -179.91 | X-H torsion
[ 3767 3762 3761 3758 ] final   20.06 input  -89.99 | X-H torsion
[ 2472 2467 2466 2463 ] final  -85.35 input  -89.97 | X-H torsion

> <Gold.Protein.ActiveResidues>
 VAL82   VAL86   LEU89   PHE106  VAL107  ASP110  VAL111  MET112  CYS114  THR115 
 CYS181  SER182  ILE183  PHE188  VAL189  ILE190  SER192  SER193  SER196  TRP342 
 PHE345  PHE346  HIS349  VAL350  TYR365  THR369  GLY372  TYR373 

> <Gold.Protein.RotatedAtoms>
    4.7657   -8.7140    4.5565 H   0  0  0  0  0  0  0  0  0  0  0  0  # atno 1303 bound_to 1298
    0.3921   -8.9926    7.8075 H   0  0  0  0  0  0  0  0  0  0  0  0  # atno 2461 bound_to 2456
   -3.9823   -5.3227    9.2564 H   0  0  0  0  0  0  0  0  0  0  0  0  # atno 2472 bound_to 2467
    2.0624   -8.3130    6.0917 H   0  0  0  0  0  0  0  0  0  0  0  0  # atno 2515 bound_to 2510
   -2.4821  -17.9703   14.2082 H   0  0  0  0  0  0  0  0  0  0  0  0  # atno 3721 bound_to 3712
   -5.1089  -22.9529   10.0684 H   0  0  0  0  0  0  0  0  0  0  0  0  # atno 3767 bound_to 3762
    2.9186  -20.0013    8.3920 H   0  0  0  0  0  0  0  0  0  0  0  0  # atno 3841 bound_to 3832
    4.1946  -10.2317    4.7479 LP  0  0  0  0  0  0  0  0  0  0  0  0  # atno 4297 bound_to 1298
    3.4016   -9.1759    3.7871 LP  0  0  0  0  0  0  0  0  0  0  0  0  # atno 4298 bound_to 1298
    1.9589   -8.8966    8.2585 LP  0  0  0  0  0  0  0  0  0  0  0  0  # atno 4299 bound_to 2456
    1.3866   -7.9191    7.0822 LP  0  0  0  0  0  0  0  0  0  0  0  0  # atno 4300 bound_to 2456
    2.4776   -7.5424    4.7134 LP  0  0  0  0  0  0  0  0  0  0  0  0  # atno 4301 bound_to 2510
    2.7569   -9.1437    4.8697 LP  0  0  0  0  0  0  0  0  0  0  0  0  # atno 4302 bound_to 2510
   -3.4276  -16.7032   14.4882 LP  0  0  0  0  0  0  0  0  0  0  0  0  # atno 4306 bound_to 3712
   -3.2344  -17.2760   12.9713 LP  0  0  0  0  0  0  0  0  0  0  0  0  # atno 4307 bound_to 3712
    2.4382  -21.1492    9.4057 LP  0  0  0  0  0  0  0  0  0  0  0  0  # atno 4314 bound_to 3832
    1.4198  -19.9516    8.9639 LP  0  0  0  0  0  0  0  0  0  0  0  0  # atno 4315 bound_to 3832
   -5.1115  -21.9153   11.3295 LP  0  0  0  0  0  0  0  0  0  0  0  0  # atno 4318 bound_to 3762
   -3.9072  -23.0070   11.1729 LP  0  0  0  0  0  0  0  0  0  0  0  0  # atno 4319 bound_to 3762
   -5.4986   -5.2711    8.6525 LP  0  0  0  0  0  0  0  0  0  0  0  0  # atno 4320 bound_to 2467
   -4.2360   -4.7998    7.7304 LP  0  0  0  0  0  0  0  0  0  0  0  0  # atno 4321 bound_to 2467

> <Gold.Score>
     Score     S(PLP)   S(hbond)     S(cho)   S(metal)  DE(clash)   DE(tors)     intcor
     42.85     -42.24       1.37       0.00       0.00       0.00       1.76       0.01

> <Gold.PLP.Fitness>
42.8454

> <Gold.PLP.PLP>
-42.2398

> <Gold.PLP.part.hbond>
-2.0000

> <Gold.PLP.part.metal>
0.0000

> <Gold.PLP.part.buried>
1.6525

> <Gold.PLP.part.nonpolar>
-43.8887

> <Gold.PLP.part.repulsive>
0.2530

> <Gold.PLP.ligand.clash>
0.0000

> <Gold.PLP.ligand.torsion>
1.7616

> <Gold.PLP.Chemscore.Hbond>
1.3744

> <Gold.PLP.Chemscore.CHOScore>
0.0000

> <Gold.PLP.Chemscore.Metal>
0.0000

> <Gold.Chemscore.Hbonds>
donor molecule, donor type, donor heavy atom, donor atom, acceptor molecule, acceptor atom, score
      L1  H     9    32       P1  1227  1.00
      L1  H     9    33       P1  1223  0.37

> <Gold.PLP.Chemscore.Internal.Correction>
0.0056

