#       Name:                EN300-05313_i001
#       Creating user name   fsindt
#       Creation time:       Tue Feb 28 02:44:25 2023


#       File generated by GOLD software.
#

@<TRIPOS>MOLECULE
EN300-05313_i001|amine_7|mol2|3004|dock2
    33    34     1
SMALL
USER_CHARGES


@<TRIPOS>ATOM
      1 C1           0.2904 -16.8348  13.4587 C.3            1 <1>                0.0000
      2 C2           1.4560 -15.9864  12.9465 C.3            1 <1>                0.0000
      3 C3           2.7254 -16.8391  12.8991 C.3            1 <1>                0.0000
      4 O4           1.1553 -15.5066  11.6344 O.3            1 <1>                0.0000
      5 C5           0.1796 -14.5809  11.5295 C.2            1 <1>                0.0000
      6 O6          -0.6484 -14.4667  12.4137 O.2            1 <1>                0.0000
      7 C7           0.1169 -13.7145  10.3530 C.2            1 <1>                0.0000
      8 C8           0.8381 -13.9415   9.2113 C.2            1 <1>                0.0000
      9 N9           1.7042 -15.0017   9.0271 N.pl3          1 <1>                0.0000
     10 S10          0.5202 -12.7381   8.0500 S.3            1 <1>                0.0000
     11 C11         -0.6067 -11.8992   9.1035 C.2            1 <1>                0.0000
     12 C12         -1.3567 -10.6327   8.7370 C.3            1 <1>                0.0000
     13 C13         -2.5200 -10.4490   9.7152 C.3            1 <1>                0.0000
     14 C14         -1.9944 -10.5861  11.1473 C.3            1 <1>                0.0000
     15 C15         -1.6170 -12.0463  11.4060 C.3            1 <1>                0.0000
     16 C16         -0.7216 -12.5301  10.2764 C.2            1 <1>                0.0000
     17 H17          0.5198 -17.2008  14.4595 H              1 <1>                0.0000
     18 H18         -0.6139 -16.2273  13.4925 H              1 <1>                0.0000
     19 H19          0.1351 -17.6808  12.7892 H              1 <1>                0.0000
     20 H20          1.6114 -15.1404  13.6159 H              1 <1>                0.0000
     21 H21          3.5558 -16.2346  12.5341 H              1 <1>                0.0000
     22 H22          2.9548 -17.2051  13.8998 H              1 <1>                0.0000
     23 H23          2.5700 -17.6851  12.2296 H              1 <1>                0.0000
     24 H24         -0.6843  -9.7774   8.8039 H              1 <1>                0.0000
     25 H25         -1.7432 -10.7178   7.7213 H              1 <1>                0.0000
     26 H26         -2.9570  -9.4595   9.5803 H              1 <1>                0.0000
     27 H27         -3.2764 -11.2115   9.5297 H              1 <1>                0.0000
     28 H28         -1.1152  -9.9545  11.2746 H              1 <1>                0.0000
     29 H29         -2.7689 -10.2800  11.8505 H              1 <1>                0.0000
     30 H30         -1.0864 -12.1240  12.3551 H              1 <1>                0.0000
     31 H31         -2.5194 -12.6568  11.4387 H              1 <1>                0.0000
     32 H32          1.8346 -15.6504   9.7364 H              1 <1>                0.0000
     33 H33          2.1820 -15.0976   8.1884 H              1 <1>                0.0000
@<TRIPOS>BOND
    1    1    2 1     
    2    1   17 1     
    3    1   18 1     
    4    1   19 1     
    5    2    3 1     
    6    2    4 1     
    7    2   20 1     
    8    3   21 1     
    9    3   22 1     
   10    3   23 1     
   11    4    5 1     
   12    5    6 2     
   13    5    7 1     
   14    7    8 2     
   15    7   16 1     
   16    8    9 1     
   17    8   10 1     
   18    9   32 1     
   19    9   33 1     
   20   10   11 1     
   21   11   12 1     
   22   11   16 2     
   23   12   13 1     
   24   12   24 1     
   25   12   25 1     
   26   13   14 1     
   27   13   26 1     
   28   13   27 1     
   29   14   15 1     
   30   14   28 1     
   31   14   29 1     
   32   15   16 1     
   33   15   30 1     
   34   15   31 1     
@<TRIPOS>SUBSTRUCTURE
      1 ****           1
@<TRIPOS>SET
DONOR_HYDROGENS      STATIC     ATOMS    <user>   **** ""
2 32 33
ATOM$RED        STATIC     ATOMS    COLORGROUP SYSTEM
2 32 33
@<TRIPOS>COMMENT
> <Gold.Version>
2022.2.0

> <Gold.Id.Protein>
3pbl|protein|mol2

> <Gold.Protein.RotatedTorsions>
[ 1303 1298 1297 1294 ] final  -58.17 input  179.99 | X-H torsion
[ 2461 2456 2455 2452 ] final   34.76 input   30.03 | X-H torsion
[ 2515 2510 2509 2506 ] final -105.10 input  -89.99 | X-H torsion
[ 3721 3712 3711 3710 ] final   79.17 input -179.91 | X-H torsion
[ 3841 3832 3831 3830 ] final  -34.32 input -179.91 | X-H torsion
[ 3767 3762 3761 3758 ] final  -84.85 input  -89.99 | X-H torsion
[ 2472 2467 2466 2463 ] final  103.47 input  -89.97 | X-H torsion

> <Gold.Protein.ActiveResidues>
 VAL82   VAL86   LEU89   PHE106  VAL107  ASP110  VAL111  MET112  CYS114  THR115 
 CYS181  SER182  ILE183  PHE188  VAL189  ILE190  SER192  SER193  SER196  TRP342 
 PHE345  PHE346  HIS349  VAL350  TYR365  THR369  GLY372  TYR373 

> <Gold.Protein.RotatedAtoms>
    3.4833   -9.0022    3.7772 H   0  0  0  0  0  0  0  0  0  0  0  0  # atno 1303 bound_to 1298
    1.5863   -7.9239    7.1568 H   0  0  0  0  0  0  0  0  0  0  0  0  # atno 2461 bound_to 2456
   -5.2670   -4.9846    7.9261 H   0  0  0  0  0  0  0  0  0  0  0  0  # atno 2472 bound_to 2467
    2.7793   -9.0948    4.7921 H   0  0  0  0  0  0  0  0  0  0  0  0  # atno 2515 bound_to 2510
   -2.7076  -17.7359   13.1835 H   0  0  0  0  0  0  0  0  0  0  0  0  # atno 3721 bound_to 3712
   -5.2780  -21.9311   11.1470 H   0  0  0  0  0  0  0  0  0  0  0  0  # atno 3767 bound_to 3762
    1.5639  -20.0805    9.3018 H   0  0  0  0  0  0  0  0  0  0  0  0  # atno 3841 bound_to 3832
    4.8457   -8.8513    4.6647 LP  0  0  0  0  0  0  0  0  0  0  0  0  # atno 4297 bound_to 1298
    4.0334  -10.2679    4.6499 LP  0  0  0  0  0  0  0  0  0  0  0  0  # atno 4298 bound_to 1298
    0.3399   -8.8557    7.6525 LP  0  0  0  0  0  0  0  0  0  0  0  0  # atno 4299 bound_to 2456
    1.8116   -9.0283    8.3387 LP  0  0  0  0  0  0  0  0  0  0  0  0  # atno 4300 bound_to 2456
    2.0801   -8.4056    6.0967 LP  0  0  0  0  0  0  0  0  0  0  0  0  # atno 4301 bound_to 2510
    2.4371   -7.4984    4.7867 LP  0  0  0  0  0  0  0  0  0  0  0  0  # atno 4302 bound_to 2510
   -2.8357  -17.6905   14.7833 LP  0  0  0  0  0  0  0  0  0  0  0  0  # atno 4306 bound_to 3712
   -3.5660  -16.5594   13.8593 LP  0  0  0  0  0  0  0  0  0  0  0  0  # atno 4307 bound_to 3712
    2.6503  -19.8796    8.1375 LP  0  0  0  0  0  0  0  0  0  0  0  0  # atno 4314 bound_to 3832
    2.7725  -21.1297    9.1811 LP  0  0  0  0  0  0  0  0  0  0  0  0  # atno 4315 bound_to 3832
   -3.9352  -22.8377   11.3516 LP  0  0  0  0  0  0  0  0  0  0  0  0  # atno 4318 bound_to 3762
   -4.9144  -23.1060   10.0726 LP  0  0  0  0  0  0  0  0  0  0  0  0  # atno 4319 bound_to 3762
   -3.6795   -4.9463    8.3065 LP  0  0  0  0  0  0  0  0  0  0  0  0  # atno 4320 bound_to 2467
   -4.7705   -5.4627    9.4064 LP  0  0  0  0  0  0  0  0  0  0  0  0  # atno 4321 bound_to 2467

> <Gold.Score>
     Score     S(PLP)   S(hbond)     S(cho)   S(metal)  DE(clash)   DE(tors)     intcor
     50.06     -49.25       0.54       0.00       0.00       0.00       0.42       0.01

> <Gold.PLP.Fitness>
50.0578

> <Gold.PLP.PLP>
-49.2481

> <Gold.PLP.part.hbond>
-1.0000

> <Gold.PLP.part.metal>
0.0000

> <Gold.PLP.part.buried>
-3.9807

> <Gold.PLP.part.nonpolar>
-45.3517

> <Gold.PLP.part.repulsive>
0.2450

> <Gold.PLP.ligand.clash>
0.0000

> <Gold.PLP.ligand.torsion>
0.4183

> <Gold.PLP.Chemscore.Hbond>
0.5440

> <Gold.PLP.Chemscore.CHOScore>
0.0000

> <Gold.PLP.Chemscore.Metal>
0.0000

> <Gold.Chemscore.Hbonds>
donor molecule, donor type, donor heavy atom, donor atom, acceptor molecule, acceptor atom, score
      L1  H     9    32       P1  1227  0.54

> <Gold.PLP.Chemscore.Internal.Correction>
0.0143

