#       Name:                plp ligand
#       Creating user name   fsindt
#       Creation time:       Tue Feb 28 02:44:24 2023


#       File generated by GOLD software.
#

@<TRIPOS>MOLECULE
plp ligand
    33    34     1
SMALL
USER_CHARGES


@<TRIPOS>ATOM
      1 C1           3.6691  -1.2954  -1.0570 NONPOLAR       1 <1>                0.0000
      2 C2           3.1613  -0.2842  -0.0272 NONPOLAR       1 <1>                0.0000
      3 C3           4.1067   0.9179   0.0164 NONPOLAR       1 <1>                0.0000
      4 O4           1.8514   0.1531  -0.3949 ACCEPTOR       1 <1>                0.0000
      5 C5           1.0212   0.5099   0.6068 NONPOLAR       1 <1>                0.0000
      6 O6           1.4003   0.4509   1.7614 ACCEPTOR       1 <1>                0.0000
      7 C7          -0.3346   0.9676   0.3049 NONPOLAR       1 <1>                0.0000
      8 C8          -0.6537   2.2800   0.0795 NONPOLAR       1 <1>                0.0000
      9 N9           0.2501   3.3242   0.1080 DONOR          1 <1>                0.0000
     10 S10         -2.3171   2.4478  -0.2413 NONPOLAR       1 <1>                0.0000
     11 C11         -2.6101   0.7246  -0.0735 NONPOLAR       1 <1>                0.0000
     12 C12         -3.9626   0.0563  -0.2310 NONPOLAR       1 <1>                0.0000
     13 C13         -3.7491  -1.4472  -0.4257 NONPOLAR       1 <1>                0.0000
     14 C14         -2.8133  -1.9646   0.6709 NONPOLAR       1 <1>                0.0000
     15 C15         -1.4017  -1.4295   0.4202 NONPOLAR       1 <1>                0.0000
     16 C16         -1.4766   0.0742   0.2080 NONPOLAR       1 <1>                0.0000
     17 H17          4.6682  -1.6289  -0.7765                1 <1>                0.0000
     18 H18          2.9956  -2.1518  -1.0880                1 <1>                0.0000
     19 H19          3.7054  -0.8258  -2.0400                1 <1>                0.0000
     20 H20          3.1250  -0.7537   0.9558                1 <1>                0.0000
     21 H21          3.7449   1.6383   0.7501                1 <1>                0.0000
     22 H22          5.1058   0.5844   0.2969                1 <1>                0.0000
     23 H23          4.1430   1.3875  -0.9666                1 <1>                0.0000
     24 H24         -4.5614   0.2276   0.6635                1 <1>                0.0000
     25 H25         -4.4748   0.4683  -1.1006                1 <1>                0.0000
     26 H26         -4.7072  -1.9630  -0.3607                1 <1>                0.0000
     27 H27         -3.3013  -1.6285  -1.4027                1 <1>                0.0000
     28 H28         -3.1660  -1.6203   1.6431                1 <1>                0.0000
     29 H29         -2.7983  -3.0543   0.6528                1 <1>                0.0000
     30 H30         -0.7696  -1.6486   1.2808                1 <1>                0.0000
     31 H31         -0.9854  -1.9000  -0.4706                1 <1>                0.0000
     32 H32          1.1854   3.1511   0.2981                1 <1>                0.0000
     33 H33         -0.0505   4.2306  -0.0621                1 <1>                0.0000
@<TRIPOS>BOND
    1    1    2 1     
    2    1   17 1     
    3    1   18 1     
    4    1   19 1     
    5    2    3 1     
    6    2    4 1     
    7    2   20 1     
    8    3   21 1     
    9    3   22 1     
   10    3   23 1     
   11    4    5 1     
   12    5    6 2     
   13    5    7 1     
   14    7    8 2     
   15    7   16 1     
   16    8    9 1     
   17    8   10 1     
   18    9   32 1     
   19    9   33 1     
   20   10   11 1     
   21   11   12 1     
   22   11   16 2     
   23   12   13 1     
   24   12   24 1     
   25   12   25 1     
   26   13   14 1     
   27   13   26 1     
   28   13   27 1     
   29   14   15 1     
   30   14   28 1     
   31   14   29 1     
   32   15   16 1     
   33   15   30 1     
   34   15   31 1     
@<TRIPOS>SUBSTRUCTURE
      1 ****           1
@<TRIPOS>SET
DONOR_HYDROGENS      STATIC     ATOMS    <user>   **** ""
2 32 33
ATOM$RED        STATIC     ATOMS    COLORGROUP SYSTEM
2 32 33
