#       Name:                EN300-206926_i001
#       Creating user name   fsindt
#       Creation time:       Mon Feb 27 18:37:23 2023


#       File generated by GOLD software.
#

@<TRIPOS>MOLECULE
EN300-206926_i001|acide_3|mol2|420|dock10
    16    15     1
SMALL
USER_CHARGES


@<TRIPOS>ATOM
      1 C1          -3.8725 -10.9951   9.9128 C.3            1 <1>                0.0000
      2 C2          -2.3918 -10.7328  10.0115 C.2            1 <1>                0.0000
      3 O3          -1.9847  -9.5986  10.1525 O.2            1 <1>                0.0000
      4 S4          -1.2841 -12.0353   9.9250 S.3            1 <1>                0.0000
      5 C5          -0.4033 -11.5985   8.4053 C.3            1 <1>                0.0000
      6 C6           0.7726 -12.5564   8.2042 C.3            1 <1>                0.0000
      7 C7           0.2498 -13.9450   7.9401 C.2            1 <1>                0.0000
      8 O8           0.4180 -14.8269   8.7650 O.co2          1 <1>                0.0000
      9 O9          -0.3413 -14.1865   6.9015 O.co2          1 <1>               -1.0000
     10 H10         -4.1807 -10.9491   8.8683 H              1 <1>                0.0000
     11 H11         -4.0939 -11.9843  10.3137 H              1 <1>                0.0000
     12 H12         -4.4139 -10.2417  10.4849 H              1 <1>                0.0000
     13 H13         -1.0832 -11.6746   7.5567 H              1 <1>                0.0000
     14 H14         -0.0309 -10.5771   8.4821 H              1 <1>                0.0000
     15 H15          1.3698 -12.2254   7.3546 H              1 <1>                0.0000
     16 H16          1.3912 -12.5657   9.1016 H              1 <1>                0.0000
@<TRIPOS>BOND
    1    1    2 1     
    2    1   10 1     
    3    1   11 1     
    4    1   12 1     
    5    2    3 2     
    6    2    4 1     
    7    4    5 1     
    8    5    6 1     
    9    5   13 1     
   10    5   14 1     
   11    6    7 1     
   12    6   15 1     
   13    6   16 1     
   14    7    8 ar    
   15    7    9 ar    
@<TRIPOS>SUBSTRUCTURE
      1 ****           1
@<TRIPOS>COMMENT
> <Gold.Version>
2022.2.0

> <Gold.Id.Protein>
3pbl|protein|mol2

> <Gold.Protein.RotatedTorsions>
[ 1303 1298 1297 1294 ] final  -51.50 input  179.99 | X-H torsion
[ 2461 2456 2455 2452 ] final  167.08 input   30.03 | X-H torsion
[ 2515 2510 2509 2506 ] final -159.07 input  -89.99 | X-H torsion
[ 3721 3712 3711 3710 ] final   56.62 input -179.91 | X-H torsion
[ 3841 3832 3831 3830 ] final -111.56 input -179.91 | X-H torsion
[ 3767 3762 3761 3758 ] final  -44.55 input  -89.99 | X-H torsion
[ 2472 2467 2466 2463 ] final    0.92 input  -89.97 | X-H torsion

> <Gold.Protein.ActiveResidues>
 VAL82   VAL86   LEU89   PHE106  VAL107  ASP110  VAL111  MET112  CYS114  THR115 
 CYS181  SER182  ILE183  PHE188  VAL189  ILE190  SER192  SER193  SER196  TRP342 
 PHE345  PHE346  HIS349  VAL350  TYR365  THR369  GLY372  TYR373 

> <Gold.Protein.RotatedAtoms>
    3.4332   -9.0997    3.7802 H   0  0  0  0  0  0  0  0  0  0  0  0  # atno 1303 bound_to 1298
    1.6452   -9.1334    8.3856 H   0  0  0  0  0  0  0  0  0  0  0  0  # atno 2461 bound_to 2456
   -3.8064   -4.8726    8.0612 H   0  0  0  0  0  0  0  0  0  0  0  0  # atno 2472 bound_to 2467
    2.4698   -9.2045    5.5819 H   0  0  0  0  0  0  0  0  0  0  0  0  # atno 2515 bound_to 2510
   -2.5741  -17.9313   13.4258 H   0  0  0  0  0  0  0  0  0  0  0  0  # atno 3721 bound_to 3712
   -5.5086  -22.1959   10.6004 H   0  0  0  0  0  0  0  0  0  0  0  0  # atno 3767 bound_to 3762
    2.1111  -19.5806    8.5154 H   0  0  0  0  0  0  0  0  0  0  0  0  # atno 3841 bound_to 3832
    4.8039   -8.7700    4.6041 LP  0  0  0  0  0  0  0  0  0  0  0  0  # atno 4297 bound_to 1298
    4.1254  -10.2517    4.7076 LP  0  0  0  0  0  0  0  0  0  0  0  0  # atno 4298 bound_to 1298
    1.7597   -7.9610    7.2543 LP  0  0  0  0  0  0  0  0  0  0  0  0  # atno 4299 bound_to 2456
    0.3330   -8.7139    7.5084 LP  0  0  0  0  0  0  0  0  0  0  0  0  # atno 4300 bound_to 2456
    2.0654   -7.6301    5.7353 LP  0  0  0  0  0  0  0  0  0  0  0  0  # atno 4301 bound_to 2510
    2.7616   -8.1640    4.3580 LP  0  0  0  0  0  0  0  0  0  0  0  0  # atno 4302 bound_to 2510
   -3.0118  -17.3704   14.8651 LP  0  0  0  0  0  0  0  0  0  0  0  0  # atno 4306 bound_to 3712
   -3.5440  -16.6539   13.4976 LP  0  0  0  0  0  0  0  0  0  0  0  0  # atno 4307 bound_to 3712
    3.1025  -20.8282    8.7069 LP  0  0  0  0  0  0  0  0  0  0  0  0  # atno 4314 bound_to 3832
    1.6882  -20.7585    9.5202 LP  0  0  0  0  0  0  0  0  0  0  0  0  # atno 4315 bound_to 3832
   -4.2548  -22.3488   11.6355 LP  0  0  0  0  0  0  0  0  0  0  0  0  # atno 4318 bound_to 3762
   -4.3642  -23.3302   10.3350 LP  0  0  0  0  0  0  0  0  0  0  0  0  # atno 4319 bound_to 3762
   -4.4865   -5.4409    9.4327 LP  0  0  0  0  0  0  0  0  0  0  0  0  # atno 4320 bound_to 2467
   -5.4239   -5.0800    8.1452 LP  0  0  0  0  0  0  0  0  0  0  0  0  # atno 4321 bound_to 2467

> <Gold.Score>
     Score     S(PLP)   S(hbond)     S(cho)   S(metal)  DE(clash)   DE(tors)     intcor
     31.39     -31.59       0.00       0.00       0.00       0.00       0.10       0.00

> <Gold.PLP.Fitness>
31.3939

> <Gold.PLP.PLP>
-31.5858

> <Gold.PLP.part.hbond>
0.0000

> <Gold.PLP.part.metal>
0.0000

> <Gold.PLP.part.buried>
-4.8283

> <Gold.PLP.part.nonpolar>
-27.2677

> <Gold.PLP.part.repulsive>
0.1910

> <Gold.PLP.ligand.clash>
0.0000

> <Gold.PLP.ligand.torsion>
0.0979

> <Gold.PLP.Chemscore.Hbond>
0.0000

> <Gold.PLP.Chemscore.CHOScore>
0.0000

> <Gold.PLP.Chemscore.Metal>
0.0000

> <Gold.PLP.Chemscore.Internal.Correction>
0.0038

