#       Name:                EN300-206926_i001
#       Creating user name   fsindt
#       Creation time:       Mon Feb 27 18:37:18 2023


#       File generated by GOLD software.
#

@<TRIPOS>MOLECULE
EN300-206926_i001|acide_3|mol2|420|dock3
    16    15     1
SMALL
USER_CHARGES


@<TRIPOS>ATOM
      1 C1          -4.4655 -10.4934   9.9008 C.3            1 <1>                0.0000
      2 C2          -3.0194 -10.1186  10.0995 C.2            1 <1>                0.0000
      3 O3          -2.4661  -9.3910   9.3018 O.2            1 <1>                0.0000
      4 S4          -2.1575 -10.7195  11.4512 S.3            1 <1>                0.0000
      5 C5          -1.4227 -12.2037  10.7210 C.3            1 <1>                0.0000
      6 C6          -0.0437 -11.8631  10.1522 C.3            1 <1>                0.0000
      7 C7          -0.0925 -11.9227   8.6471 C.2            1 <1>                0.0000
      8 O8          -0.3603 -12.9720   8.0870 O.co2          1 <1>                0.0000
      9 O9           0.1358 -10.9217   7.9896 O.co2          1 <1>               -1.0000
     10 H10         -4.5262 -11.4039   9.3046 H              1 <1>                0.0000
     11 H11         -4.9338 -10.6622  10.8705 H              1 <1>                0.0000
     12 H12         -4.9824  -9.6852   9.3833 H              1 <1>                0.0000
     13 H13         -1.3201 -12.9727  11.4867 H              1 <1>                0.0000
     14 H14         -2.0651 -12.5711   9.9208 H              1 <1>                0.0000
     15 H15          0.2413 -10.8593  10.4669 H              1 <1>                0.0000
     16 H16          0.6887 -12.5812  10.5207 H              1 <1>                0.0000
@<TRIPOS>BOND
    1    1    2 1     
    2    1   10 1     
    3    1   11 1     
    4    1   12 1     
    5    2    3 2     
    6    2    4 1     
    7    4    5 1     
    8    5    6 1     
    9    5   13 1     
   10    5   14 1     
   11    6    7 1     
   12    6   15 1     
   13    6   16 1     
   14    7    8 ar    
   15    7    9 ar    
@<TRIPOS>SUBSTRUCTURE
      1 ****           1
@<TRIPOS>COMMENT
> <Gold.Version>
2022.2.0

> <Gold.Id.Protein>
3pbl|protein|mol2

> <Gold.Protein.RotatedTorsions>
[ 1303 1298 1297 1294 ] final   22.74 input  179.99 | X-H torsion
[ 2461 2456 2455 2452 ] final -124.02 input   30.03 | X-H torsion
[ 2515 2510 2509 2506 ] final   52.50 input  -89.99 | X-H torsion
[ 3721 3712 3711 3710 ] final  -77.23 input -179.91 | X-H torsion
[ 3841 3832 3831 3830 ] final    6.33 input -179.91 | X-H torsion
[ 3767 3762 3761 3758 ] final  166.13 input  -89.99 | X-H torsion
[ 2472 2467 2466 2463 ] final  166.76 input  -89.97 | X-H torsion

> <Gold.Protein.ActiveResidues>
 VAL82   VAL86   LEU89   PHE106  VAL107  ASP110  VAL111  MET112  CYS114  THR115 
 CYS181  SER182  ILE183  PHE188  VAL189  ILE190  SER192  SER193  SER196  TRP342 
 PHE345  PHE346  HIS349  VAL350  TYR365  THR369  GLY372  TYR373 

> <Gold.Protein.RotatedAtoms>
    3.5570  -10.1225    4.2631 H   0  0  0  0  0  0  0  0  0  0  0  0  # atno 1303 bound_to 1298
    0.6209   -9.1994    8.0939 H   0  0  0  0  0  0  0  0  0  0  0  0  # atno 2461 bound_to 2456
   -5.4472   -5.3319    8.8347 H   0  0  0  0  0  0  0  0  0  0  0  0  # atno 2472 bound_to 2467
    2.1901   -7.4292    5.3373 H   0  0  0  0  0  0  0  0  0  0  0  0  # atno 2515 bound_to 2510
   -2.9296  -17.1064   14.7423 H   0  0  0  0  0  0  0  0  0  0  0  0  # atno 3721 bound_to 3712
   -3.9888  -22.7043   11.4604 H   0  0  0  0  0  0  0  0  0  0  0  0  # atno 3767 bound_to 3762
    1.7950  -20.5574    9.5857 H   0  0  0  0  0  0  0  0  0  0  0  0  # atno 3841 bound_to 3832
    3.9218   -8.5697    3.9134 LP  0  0  0  0  0  0  0  0  0  0  0  0  # atno 4297 bound_to 1298
    4.8836   -9.4288    4.9152 LP  0  0  0  0  0  0  0  0  0  0  0  0  # atno 4298 bound_to 1298
    2.1376   -8.5977    8.0223 LP  0  0  0  0  0  0  0  0  0  0  0  0  # atno 4299 bound_to 2456
    0.9790   -8.0113    7.0320 LP  0  0  0  0  0  0  0  0  0  0  0  0  # atno 4300 bound_to 2456
    2.8330   -8.6173    4.4204 LP  0  0  0  0  0  0  0  0  0  0  0  0  # atno 4301 bound_to 2510
    2.2738   -8.9531    5.9175 LP  0  0  0  0  0  0  0  0  0  0  0  0  # atno 4302 bound_to 2510
   -3.4816  -16.7988   13.2663 LP  0  0  0  0  0  0  0  0  0  0  0  0  # atno 4306 bound_to 3712
   -2.6638  -18.1778   13.5764 LP  0  0  0  0  0  0  0  0  0  0  0  0  # atno 4307 bound_to 3712
    2.0503  -19.6395    8.2940 LP  0  0  0  0  0  0  0  0  0  0  0  0  # atno 4314 bound_to 3832
    3.1055  -20.8189    8.6967 LP  0  0  0  0  0  0  0  0  0  0  0  0  # atno 4315 bound_to 3832
   -4.7629  -23.1969   10.1094 LP  0  0  0  0  0  0  0  0  0  0  0  0  # atno 4318 bound_to 3762
   -5.3754  -21.9739   11.0015 LP  0  0  0  0  0  0  0  0  0  0  0  0  # atno 4319 bound_to 3762
   -4.4272   -4.8010    7.6753 LP  0  0  0  0  0  0  0  0  0  0  0  0  # atno 4320 bound_to 2467
   -3.8426   -5.2607    9.1292 LP  0  0  0  0  0  0  0  0  0  0  0  0  # atno 4321 bound_to 2467

> <Gold.Score>
     Score     S(PLP)   S(hbond)     S(cho)   S(metal)  DE(clash)   DE(tors)     intcor
     34.55     -33.39       1.00       0.00       0.00       0.00       0.92       0.00

> <Gold.PLP.Fitness>
34.5482

> <Gold.PLP.PLP>
-33.3901

> <Gold.PLP.part.hbond>
-1.6603

> <Gold.PLP.part.metal>
0.0000

> <Gold.PLP.part.buried>
-4.5487

> <Gold.PLP.part.nonpolar>
-28.0830

> <Gold.PLP.part.repulsive>
0.1382

> <Gold.PLP.ligand.clash>
0.0000

> <Gold.PLP.ligand.torsion>
0.9234

> <Gold.PLP.Chemscore.Hbond>
1.0000

> <Gold.PLP.Chemscore.CHOScore>
0.0000

> <Gold.PLP.Chemscore.Metal>
0.0000

> <Gold.Chemscore.Hbonds>
donor molecule, donor type, donor heavy atom, donor atom, acceptor molecule, acceptor atom, score
      P1  H  2456  2461       L1     9  1.00

> <Gold.PLP.Chemscore.Internal.Correction>
0.0049

