#       Name:                EN300-206926_i001
#       Creating user name   fsindt
#       Creation time:       Mon Feb 27 18:37:28 2023


#       File generated by GOLD software.
#

@<TRIPOS>MOLECULE
EN300-206926_i001|acide_3|mol2|420|dock17
    16    15     1
SMALL
USER_CHARGES


@<TRIPOS>ATOM
      1 C1           0.8714 -13.6537   7.7540 C.3            1 <1>                0.0000
      2 C2           0.4183 -12.2722   8.1504 C.2            1 <1>                0.0000
      3 O3           1.0547 -11.3008   7.7990 O.2            1 <1>                0.0000
      4 S4          -0.9947 -12.0733   9.0964 S.3            1 <1>                0.0000
      5 C5          -0.3119 -11.1402  10.4890 C.3            1 <1>                0.0000
      6 C6          -1.4427 -10.4119  11.2182 C.3            1 <1>                0.0000
      7 C7          -2.5195 -10.0407  10.2314 C.2            1 <1>                0.0000
      8 O8          -3.6471 -10.4850  10.3637 O.co2          1 <1>                0.0000
      9 O9          -2.2631  -9.2960   9.3007 O.co2          1 <1>               -1.0000
     10 H10          1.5456 -14.0471   8.5149 H              1 <1>                0.0000
     11 H11          0.0046 -14.3083   7.6630 H              1 <1>                0.0000
     12 H12          1.3919 -13.6049   6.7976 H              1 <1>                0.0000
     13 H13          0.1828 -11.8252  11.1776 H              1 <1>                0.0000
     14 H14          0.4101 -10.4122  10.1193 H              1 <1>                0.0000
     15 H15         -1.8612 -11.0650  11.9840 H              1 <1>                0.0000
     16 H16         -1.0510  -9.5085  11.6856 H              1 <1>                0.0000
@<TRIPOS>BOND
    1    1    2 1     
    2    1   10 1     
    3    1   11 1     
    4    1   12 1     
    5    2    3 2     
    6    2    4 1     
    7    4    5 1     
    8    5    6 1     
    9    5   13 1     
   10    5   14 1     
   11    6    7 1     
   12    6   15 1     
   13    6   16 1     
   14    7    8 ar    
   15    7    9 ar    
@<TRIPOS>SUBSTRUCTURE
      1 ****           1
@<TRIPOS>COMMENT
> <Gold.Version>
2022.2.0

> <Gold.Id.Protein>
3pbl|protein|mol2

> <Gold.Protein.RotatedTorsions>
[ 1303 1298 1297 1294 ] final  104.54 input  179.99 | X-H torsion
[ 2461 2456 2455 2452 ] final -146.46 input   30.03 | X-H torsion
[ 2515 2510 2509 2506 ] final  -41.87 input  -89.99 | X-H torsion
[ 3721 3712 3711 3710 ] final   63.49 input -179.91 | X-H torsion
[ 3841 3832 3831 3830 ] final -164.08 input -179.91 | X-H torsion
[ 3767 3762 3761 3758 ] final   17.74 input  -89.99 | X-H torsion
[ 2472 2467 2466 2463 ] final  -94.55 input  -89.97 | X-H torsion

> <Gold.Protein.ActiveResidues>
 VAL82   VAL86   LEU89   PHE106  VAL107  ASP110  VAL111  MET112  CYS114  THR115 
 CYS181  SER182  ILE183  PHE188  VAL189  ILE190  SER192  SER193  SER196  TRP342 
 PHE345  PHE346  HIS349  VAL350  TYR365  THR369  GLY372  TYR373 

> <Gold.Protein.RotatedAtoms>
    4.5897   -9.9713    4.9220 H   0  0  0  0  0  0  0  0  0  0  0  0  # atno 1303 bound_to 1298
    0.9237   -9.2835    8.2837 H   0  0  0  0  0  0  0  0  0  0  0  0  # atno 2461 bound_to 2456
   -4.1065   -5.3637    9.3324 H   0  0  0  0  0  0  0  0  0  0  0  0  # atno 2472 bound_to 2467
    2.7726   -8.2087    4.3551 H   0  0  0  0  0  0  0  0  0  0  0  0  # atno 2515 bound_to 2510
   -2.6102  -17.8812   13.3424 H   0  0  0  0  0  0  0  0  0  0  0  0  # atno 3721 bound_to 3712
   -5.1366  -22.9271   10.0727 H   0  0  0  0  0  0  0  0  0  0  0  0  # atno 3767 bound_to 3762
    2.7986  -19.8792    8.3571 H   0  0  0  0  0  0  0  0  0  0  0  0  # atno 3841 bound_to 3832
    3.3344   -9.6556    3.9266 LP  0  0  0  0  0  0  0  0  0  0  0  0  # atno 4297 bound_to 1298
    4.4379   -8.4942    4.2428 LP  0  0  0  0  0  0  0  0  0  0  0  0  # atno 4298 bound_to 1298
    2.1489   -8.3362    7.7650 LP  0  0  0  0  0  0  0  0  0  0  0  0  # atno 4299 bound_to 2456
    0.6650   -8.1887    7.0996 LP  0  0  0  0  0  0  0  0  0  0  0  0  # atno 4300 bound_to 2456
    2.4499   -9.1888    5.6204 LP  0  0  0  0  0  0  0  0  0  0  0  0  # atno 4301 bound_to 2510
    2.0740   -7.6017    5.7002 LP  0  0  0  0  0  0  0  0  0  0  0  0  # atno 4302 bound_to 2510
   -2.9557  -17.4700   14.8555 LP  0  0  0  0  0  0  0  0  0  0  0  0  # atno 4306 bound_to 3712
   -3.5585  -16.6122   13.6035 LP  0  0  0  0  0  0  0  0  0  0  0  0  # atno 4307 bound_to 3712
    2.6053  -21.1569    9.3091 LP  0  0  0  0  0  0  0  0  0  0  0  0  # atno 4314 bound_to 3832
    1.3912  -20.0848    9.1009 LP  0  0  0  0  0  0  0  0  0  0  0  0  # atno 4315 bound_to 3832
   -5.0831  -21.9172   11.3549 LP  0  0  0  0  0  0  0  0  0  0  0  0  # atno 4318 bound_to 3762
   -3.9078  -23.0309   11.1432 LP  0  0  0  0  0  0  0  0  0  0  0  0  # atno 4319 bound_to 3762
   -5.5101   -5.2211    8.5102 LP  0  0  0  0  0  0  0  0  0  0  0  0  # atno 4320 bound_to 2467
   -4.1003   -4.8088    7.7967 LP  0  0  0  0  0  0  0  0  0  0  0  0  # atno 4321 bound_to 2467

> <Gold.Score>
     Score     S(PLP)   S(hbond)     S(cho)   S(metal)  DE(clash)   DE(tors)     intcor
     33.39     -31.41       0.85       0.00       0.00       0.00       0.28       0.00

> <Gold.PLP.Fitness>
33.3863

> <Gold.PLP.PLP>
-31.4097

> <Gold.PLP.part.hbond>
-2.0000

> <Gold.PLP.part.metal>
0.0000

> <Gold.PLP.part.buried>
-5.2745

> <Gold.PLP.part.nonpolar>
-25.3099

> <Gold.PLP.part.repulsive>
0.5200

> <Gold.PLP.ligand.clash>
0.0000

> <Gold.PLP.ligand.torsion>
0.2848

> <Gold.PLP.Chemscore.Hbond>
0.8480

> <Gold.PLP.Chemscore.CHOScore>
0.0000

> <Gold.PLP.Chemscore.Metal>
0.0000

> <Gold.Chemscore.Hbonds>
donor molecule, donor type, donor heavy atom, donor atom, acceptor molecule, acceptor atom, score
      P1  H  2456  2461       L1     3  0.85

> <Gold.PLP.Chemscore.Internal.Correction>
0.0021

