#       Name:                EN300-206926_i001
#       Creating user name   fsindt
#       Creation time:       Mon Feb 27 18:37:31 2023


#       File generated by GOLD software.
#

@<TRIPOS>MOLECULE
EN300-206926_i001|acide_3|mol2|420|dock20
    16    15     1
SMALL
USER_CHARGES


@<TRIPOS>ATOM
      1 C1          -4.8665 -10.1282  11.0235 C.3            1 <1>                0.0000
      2 C2          -4.0280 -10.8011   9.9675 C.2            1 <1>                0.0000
      3 O3          -4.4974 -11.7003   9.3019 O.2            1 <1>                0.0000
      4 S4          -2.4129 -10.2964   9.7068 S.3            1 <1>                0.0000
      5 C5          -1.5387 -11.8382  10.0737 C.3            1 <1>                0.0000
      6 C6          -0.9340 -12.4005   8.7856 C.3            1 <1>                0.0000
      7 C7           0.3677 -11.6994   8.4940 C.2            1 <1>                0.0000
      8 O8           0.7581 -10.8082   9.2288 O.co2          1 <1>                0.0000
      9 O9           1.0306 -12.0233   7.5234 O.co2          1 <1>               -1.0000
     10 H10         -4.7429 -10.6500  11.9725 H              1 <1>                0.0000
     11 H11         -4.5480  -9.0917  11.1346 H              1 <1>                0.0000
     12 H12         -5.9151 -10.1564  10.7273 H              1 <1>                0.0000
     13 H13         -0.7436 -11.6427  10.7932 H              1 <1>                0.0000
     14 H14         -2.2382 -12.5616  10.4927 H              1 <1>                0.0000
     15 H15         -0.7526 -13.4685   8.9053 H              1 <1>                0.0000
     16 H16         -1.6262 -12.2399   7.9591 H              1 <1>                0.0000
@<TRIPOS>BOND
    1    1    2 1     
    2    1   10 1     
    3    1   11 1     
    4    1   12 1     
    5    2    3 2     
    6    2    4 1     
    7    4    5 1     
    8    5    6 1     
    9    5   13 1     
   10    5   14 1     
   11    6    7 1     
   12    6   15 1     
   13    6   16 1     
   14    7    8 ar    
   15    7    9 ar    
@<TRIPOS>SUBSTRUCTURE
      1 ****           1
@<TRIPOS>COMMENT
> <Gold.Version>
2022.2.0

> <Gold.Id.Protein>
3pbl|protein|mol2

> <Gold.Protein.RotatedTorsions>
[ 1303 1298 1297 1294 ] final   78.54 input  179.99 | X-H torsion
[ 2461 2456 2455 2452 ] final -149.81 input   30.03 | X-H torsion
[ 2515 2510 2509 2506 ] final    1.79 input  -89.99 | X-H torsion
[ 3721 3712 3711 3710 ] final   10.92 input -179.91 | X-H torsion
[ 3841 3832 3831 3830 ] final   -3.03 input -179.91 | X-H torsion
[ 3767 3762 3761 3758 ] final -107.35 input  -89.99 | X-H torsion
[ 2472 2467 2466 2463 ] final  179.76 input  -89.97 | X-H torsion

> <Gold.Protein.ActiveResidues>
 VAL82   VAL86   LEU89   PHE106  VAL107  ASP110  VAL111  MET112  CYS114  THR115 
 CYS181  SER182  ILE183  PHE188  VAL189  ILE190  SER192  SER193  SER196  TRP342 
 PHE345  PHE346  HIS349  VAL350  TYR365  THR369  GLY372  TYR373 

> <Gold.Protein.RotatedAtoms>
    4.2629  -10.2047    4.7855 H   0  0  0  0  0  0  0  0  0  0  0  0  # atno 1303 bound_to 1298
    0.9744   -9.2873    8.3052 H   0  0  0  0  0  0  0  0  0  0  0  0  # atno 2461 bound_to 2456
   -5.3489   -5.3864    9.0160 H   0  0  0  0  0  0  0  0  0  0  0  0  # atno 2472 bound_to 2467
    2.5287   -7.6107    4.6275 H   0  0  0  0  0  0  0  0  0  0  0  0  # atno 2515 bound_to 2510
   -2.4716  -18.0075   14.0864 H   0  0  0  0  0  0  0  0  0  0  0  0  # atno 3721 bound_to 3712
   -5.0182  -21.9246   11.4075 H   0  0  0  0  0  0  0  0  0  0  0  0  # atno 3767 bound_to 3762
    1.7114  -20.4519    9.5430 H   0  0  0  0  0  0  0  0  0  0  0  0  # atno 3841 bound_to 3832
    3.3755   -9.2531    3.7990 LP  0  0  0  0  0  0  0  0  0  0  0  0  # atno 4297 bound_to 1298
    4.7237   -8.6632    4.5069 LP  0  0  0  0  0  0  0  0  0  0  0  0  # atno 4298 bound_to 1298
    2.1387   -8.2997    7.7250 LP  0  0  0  0  0  0  0  0  0  0  0  0  # atno 4299 bound_to 2456
    0.6246   -8.2214    7.1182 LP  0  0  0  0  0  0  0  0  0  0  0  0  # atno 4300 bound_to 2456
    2.7234   -9.1941    4.9748 LP  0  0  0  0  0  0  0  0  0  0  0  0  # atno 4301 bound_to 2510
    2.0445   -8.1946    6.0733 LP  0  0  0  0  0  0  0  0  0  0  0  0  # atno 4302 bound_to 2510
   -3.3741  -16.7803   14.5938 LP  0  0  0  0  0  0  0  0  0  0  0  0  # atno 4306 bound_to 3712
   -3.3000  -17.1560   13.0063 LP  0  0  0  0  0  0  0  0  0  0  0  0  # atno 4307 bound_to 3712
    2.1903  -19.6639    8.2292 LP  0  0  0  0  0  0  0  0  0  0  0  0  # atno 4314 bound_to 3832
    3.0621  -20.9163    8.8108 LP  0  0  0  0  0  0  0  0  0  0  0  0  # atno 4315 bound_to 3832
   -3.9137  -23.0810   11.0765 LP  0  0  0  0  0  0  0  0  0  0  0  0  # atno 4318 bound_to 3762
   -5.1956  -22.8692   10.0873 LP  0  0  0  0  0  0  0  0  0  0  0  0  # atno 4319 bound_to 3762
   -4.6392   -4.8186    7.6595 LP  0  0  0  0  0  0  0  0  0  0  0  0  # atno 4320 bound_to 2467
   -3.7289   -5.1885    8.9637 LP  0  0  0  0  0  0  0  0  0  0  0  0  # atno 4321 bound_to 2467

> <Gold.Score>
     Score     S(PLP)   S(hbond)     S(cho)   S(metal)  DE(clash)   DE(tors)     intcor
     31.75     -29.68       1.00       0.00       0.00       0.00       0.47       0.00

> <Gold.PLP.Fitness>
31.7504

> <Gold.PLP.PLP>
-29.6815

> <Gold.PLP.part.hbond>
-1.0000

> <Gold.PLP.part.metal>
0.0000

> <Gold.PLP.part.buried>
-3.3436

> <Gold.PLP.part.nonpolar>
-25.8770

> <Gold.PLP.part.repulsive>
0.1257

> <Gold.PLP.ligand.clash>
0.0000

> <Gold.PLP.ligand.torsion>
0.4666

> <Gold.PLP.Chemscore.Hbond>
1.0000

> <Gold.PLP.Chemscore.CHOScore>
0.0000

> <Gold.PLP.Chemscore.Metal>
0.0000

> <Gold.Chemscore.Hbonds>
donor molecule, donor type, donor heavy atom, donor atom, acceptor molecule, acceptor atom, score
      P1  H  2456  2461       L1     8  1.00

> <Gold.PLP.Chemscore.Internal.Correction>
0.0021

