#       Name:                EN300-206926_i001
#       Creating user name   fsindt
#       Creation time:       Mon Feb 27 18:37:25 2023


#       File generated by GOLD software.
#

@<TRIPOS>MOLECULE
EN300-206926_i001|acide_3|mol2|420|dock12
    16    15     1
SMALL
USER_CHARGES


@<TRIPOS>ATOM
      1 C1           0.2066 -13.0163   7.7357 C.3            1 <1>                0.0000
      2 C2           0.2063 -12.2231   9.0169 C.2            1 <1>                0.0000
      3 O3           0.6412 -11.0905   9.0294 O.2            1 <1>                0.0000
      4 S4          -0.4079 -12.9199  10.4550 S.3            1 <1>                0.0000
      5 C5          -1.5842 -11.6360  10.9490 C.3            1 <1>                0.0000
      6 C6          -2.6980 -11.5358   9.9049 C.3            1 <1>                0.0000
      7 C7          -3.0595 -10.0882   9.6934 C.2            1 <1>                0.0000
      8 O8          -4.1954  -9.7048   9.9152 O.co2          1 <1>                0.0000
      9 O9          -2.2161  -9.3003   9.3005 O.co2          1 <1>               -1.0000
     10 H10          1.1422 -13.5693   7.6510 H              1 <1>                0.0000
     11 H11         -0.6295 -13.7156   7.7409 H              1 <1>                0.0000
     12 H12          0.1076 -12.3379   6.8883 H              1 <1>                0.0000
     13 H13         -2.0154 -11.8913  11.9170 H              1 <1>                0.0000
     14 H14         -1.0677 -10.6790  11.0223 H              1 <1>                0.0000
     15 H15         -2.3540 -11.9655   8.9641 H              1 <1>                0.0000
     16 H16         -3.5741 -12.0817  10.2548 H              1 <1>                0.0000
@<TRIPOS>BOND
    1    1    2 1     
    2    1   10 1     
    3    1   11 1     
    4    1   12 1     
    5    2    3 2     
    6    2    4 1     
    7    4    5 1     
    8    5    6 1     
    9    5   13 1     
   10    5   14 1     
   11    6    7 1     
   12    6   15 1     
   13    6   16 1     
   14    7    8 ar    
   15    7    9 ar    
@<TRIPOS>SUBSTRUCTURE
      1 ****           1
@<TRIPOS>COMMENT
> <Gold.Version>
2022.2.0

> <Gold.Id.Protein>
3pbl|protein|mol2

> <Gold.Protein.RotatedTorsions>
[ 1303 1298 1297 1294 ] final -152.96 input  179.99 | X-H torsion
[ 2461 2456 2455 2452 ] final -148.67 input   30.03 | X-H torsion
[ 2515 2510 2509 2506 ] final  128.57 input  -89.99 | X-H torsion
[ 3721 3712 3711 3710 ] final    4.37 input -179.91 | X-H torsion
[ 3841 3832 3831 3830 ] final   11.90 input -179.91 | X-H torsion
[ 3767 3762 3761 3758 ] final  175.43 input  -89.99 | X-H torsion
[ 2472 2467 2466 2463 ] final -149.32 input  -89.97 | X-H torsion

> <Gold.Protein.ActiveResidues>
 VAL82   VAL86   LEU89   PHE106  VAL107  ASP110  VAL111  MET112  CYS114  THR115 
 CYS181  SER182  ILE183  PHE188  VAL189  ILE190  SER192  SER193  SER196  TRP342 
 PHE345  PHE346  HIS349  VAL350  TYR365  THR369  GLY372  TYR373 

> <Gold.Protein.RotatedAtoms>
    4.6409   -8.5898    4.4216 H   0  0  0  0  0  0  0  0  0  0  0  0  # atno 1303 bound_to 1298
    0.9570   -9.2862    8.2981 H   0  0  0  0  0  0  0  0  0  0  0  0  # atno 2461 bound_to 2456
   -4.9684   -5.4600    9.3363 H   0  0  0  0  0  0  0  0  0  0  0  0  # atno 2472 bound_to 2467
    2.0608   -8.3035    6.0907 H   0  0  0  0  0  0  0  0  0  0  0  0  # atno 2515 bound_to 2510
   -2.4789  -17.9801   14.1811 H   0  0  0  0  0  0  0  0  0  0  0  0  # atno 3721 bound_to 3712
   -4.0554  -22.5891   11.5357 H   0  0  0  0  0  0  0  0  0  0  0  0  # atno 3767 bound_to 3762
    1.8520  -20.6167    9.6036 H   0  0  0  0  0  0  0  0  0  0  0  0  # atno 3841 bound_to 3832
    4.3767  -10.1456    4.8410 LP  0  0  0  0  0  0  0  0  0  0  0  0  # atno 4297 bound_to 1298
    3.3444   -9.3862    3.8290 LP  0  0  0  0  0  0  0  0  0  0  0  0  # atno 4298 bound_to 1298
    2.1425   -8.3120    7.7386 LP  0  0  0  0  0  0  0  0  0  0  0  0  # atno 4299 bound_to 2456
    0.6381   -8.2101    7.1116 LP  0  0  0  0  0  0  0  0  0  0  0  0  # atno 4300 bound_to 2456
    2.4817   -7.5474    4.7062 LP  0  0  0  0  0  0  0  0  0  0  0  0  # atno 4301 bound_to 2510
    2.7544   -9.1482    4.8779 LP  0  0  0  0  0  0  0  0  0  0  0  0  # atno 4302 bound_to 2510
   -3.4161  -16.7195   14.5133 LP  0  0  0  0  0  0  0  0  0  0  0  0  # atno 4306 bound_to 3712
   -3.2496  -17.2485   12.9774 LP  0  0  0  0  0  0  0  0  0  0  0  0  # atno 4307 bound_to 3712
    1.9693  -19.6345    8.3397 LP  0  0  0  0  0  0  0  0  0  0  0  0  # atno 4314 bound_to 3832
    3.1207  -20.7554    8.6304 LP  0  0  0  0  0  0  0  0  0  0  0  0  # atno 4315 bound_to 3832
   -4.6329  -23.2575   10.1621 LP  0  0  0  0  0  0  0  0  0  0  0  0  # atno 4318 bound_to 3762
   -5.4389  -22.0284   10.8735 LP  0  0  0  0  0  0  0  0  0  0  0  0  # atno 4319 bound_to 3762
   -5.1105   -4.9216    7.8012 LP  0  0  0  0  0  0  0  0  0  0  0  0  # atno 4320 bound_to 2467
   -3.6382   -5.0121    8.5018 LP  0  0  0  0  0  0  0  0  0  0  0  0  # atno 4321 bound_to 2467

> <Gold.Score>
     Score     S(PLP)   S(hbond)     S(cho)   S(metal)  DE(clash)   DE(tors)     intcor
     34.09     -31.76       1.00       0.00       0.00       0.00       0.33       0.00

> <Gold.PLP.Fitness>
34.0922

> <Gold.PLP.PLP>
-31.7577

> <Gold.PLP.part.hbond>
-2.0000

> <Gold.PLP.part.metal>
0.0000

> <Gold.PLP.part.buried>
-4.8502

> <Gold.PLP.part.nonpolar>
-25.9461

> <Gold.PLP.part.repulsive>
0.4876

> <Gold.PLP.ligand.clash>
0.0000

> <Gold.PLP.ligand.torsion>
0.3338

> <Gold.PLP.Chemscore.Hbond>
1.0000

> <Gold.PLP.Chemscore.CHOScore>
0.0000

> <Gold.PLP.Chemscore.Metal>
0.0000

> <Gold.Chemscore.Hbonds>
donor molecule, donor type, donor heavy atom, donor atom, acceptor molecule, acceptor atom, score
      P1  H  2456  2461       L1     3  1.00

> <Gold.PLP.Chemscore.Internal.Correction>
0.0021

