#       Name:                EN300-206926_i001
#       Creating user name   fsindt
#       Creation time:       Mon Feb 27 18:37:17 2023


#       File generated by GOLD software.
#

@<TRIPOS>MOLECULE
EN300-206926_i001|acide_3|mol2|420|dock1
    16    15     1
SMALL
USER_CHARGES


@<TRIPOS>ATOM
      1 C1          -4.2127 -10.8086   9.9123 C.3            1 <1>                0.0000
      2 C2          -2.8119 -10.2577   9.9853 C.2            1 <1>                0.0000
      3 O3          -2.4971  -9.3077   9.2995 O.2            1 <1>                0.0000
      4 S4          -1.6648 -10.9723  11.0363 S.3            1 <1>                0.0000
      5 C5          -0.2394 -11.0715   9.9252 C.3            1 <1>                0.0000
      6 C6          -0.2955 -12.3832   9.1397 C.3            1 <1>                0.0000
      7 C7           0.4008 -12.2056   7.8151 C.2            1 <1>                0.0000
      8 O8           0.8021 -11.1041   7.4802 O.co2          1 <1>                0.0000
      9 O9           0.5628 -13.1633   7.0782 O.co2          1 <1>               -1.0000
     10 H10         -4.2601 -11.5799   9.1435 H              1 <1>                0.0000
     11 H11         -4.4847 -11.2390  10.8761 H              1 <1>                0.0000
     12 H12         -4.9065 -10.0053   9.6642 H              1 <1>                0.0000
     13 H13         -0.2606 -10.2312   9.2313 H              1 <1>                0.0000
     14 H14          0.6799 -11.0370  10.5098 H              1 <1>                0.0000
     15 H15          0.2012 -13.1691   9.7087 H              1 <1>                0.0000
     16 H16         -1.3357 -12.6603   8.9691 H              1 <1>                0.0000
@<TRIPOS>BOND
    1    1    2 1     
    2    1   10 1     
    3    1   11 1     
    4    1   12 1     
    5    2    3 2     
    6    2    4 1     
    7    4    5 1     
    8    5    6 1     
    9    5   13 1     
   10    5   14 1     
   11    6    7 1     
   12    6   15 1     
   13    6   16 1     
   14    7    8 ar    
   15    7    9 ar    
@<TRIPOS>SUBSTRUCTURE
      1 ****           1
@<TRIPOS>COMMENT
> <Gold.Version>
2022.2.0

> <Gold.Id.Protein>
3pbl|protein|mol2

> <Gold.Protein.RotatedTorsions>
[ 1303 1298 1297 1294 ] final  -91.24 input  179.99 | X-H torsion
[ 2461 2456 2455 2452 ] final -131.53 input   30.03 | X-H torsion
[ 2515 2510 2509 2506 ] final -118.38 input  -89.99 | X-H torsion
[ 3721 3712 3711 3710 ] final    6.62 input -179.91 | X-H torsion
[ 3841 3832 3831 3830 ] final  -75.40 input -179.91 | X-H torsion
[ 3767 3762 3761 3758 ] final  -31.46 input  -89.99 | X-H torsion
[ 2472 2467 2466 2463 ] final -147.23 input  -89.97 | X-H torsion

> <Gold.Protein.ActiveResidues>
 VAL82   VAL86   LEU89   PHE106  VAL107  ASP110  VAL111  MET112  CYS114  THR115 
 CYS181  SER182  ILE183  PHE188  VAL189  ILE190  SER192  SER193  SER196  TRP342 
 PHE345  PHE346  HIS349  VAL350  TYR365  THR369  GLY372  TYR373 

> <Gold.Protein.RotatedAtoms>
    3.8424   -8.6162    3.8769 H   0  0  0  0  0  0  0  0  0  0  0  0  # atno 1303 bound_to 1298
    0.7138   -9.2385    8.1655 H   0  0  0  0  0  0  0  0  0  0  0  0  # atno 2461 bound_to 2456
   -4.9372   -5.4616    9.3504 H   0  0  0  0  0  0  0  0  0  0  0  0  # atno 2472 bound_to 2467
    2.7227   -9.1947    4.9774 H   0  0  0  0  0  0  0  0  0  0  0  0  # atno 2515 bound_to 2510
   -2.4758  -17.9906   14.1489 H   0  0  0  0  0  0  0  0  0  0  0  0  # atno 3721 bound_to 3712
   -5.5022  -22.3354   10.4370 H   0  0  0  0  0  0  0  0  0  0  0  0  # atno 3767 bound_to 3762
    1.7143  -19.6912    8.8602 H   0  0  0  0  0  0  0  0  0  0  0  0  # atno 3841 bound_to 3832
    4.9014   -9.3347    4.8910 LP  0  0  0  0  0  0  0  0  0  0  0  0  # atno 4297 bound_to 1298
    3.6185  -10.1707    4.3239 LP  0  0  0  0  0  0  0  0  0  0  0  0  # atno 4298 bound_to 1298
    2.1570   -8.5080    7.9395 LP  0  0  0  0  0  0  0  0  0  0  0  0  # atno 4299 bound_to 2456
    0.8668   -8.0618    7.0433 LP  0  0  0  0  0  0  0  0  0  0  0  0  # atno 4300 bound_to 2456
    2.0442   -8.1919    6.0727 LP  0  0  0  0  0  0  0  0  0  0  0  0  # atno 4301 bound_to 2510
    2.5297   -7.6121    4.6253 LP  0  0  0  0  0  0  0  0  0  0  0  0  # atno 4302 bound_to 2510
   -3.4021  -16.7394   14.5419 LP  0  0  0  0  0  0  0  0  0  0  0  0  # atno 4306 bound_to 3712
   -3.2672  -17.2165   12.9860 LP  0  0  0  0  0  0  0  0  0  0  0  0  # atno 4307 bound_to 3712
    3.0641  -20.3749    8.3248 LP  0  0  0  0  0  0  0  0  0  0  0  0  # atno 4314 bound_to 3832
    2.1850  -21.0840    9.5041 LP  0  0  0  0  0  0  0  0  0  0  0  0  # atno 4315 bound_to 3832
   -4.4163  -22.2077   11.6500 LP  0  0  0  0  0  0  0  0  0  0  0  0  # atno 4318 bound_to 3762
   -4.2092  -23.3318   10.4839 LP  0  0  0  0  0  0  0  0  0  0  0  0  # atno 4319 bound_to 3762
   -5.1380   -4.9311    7.8192 LP  0  0  0  0  0  0  0  0  0  0  0  0  # atno 4320 bound_to 2467
   -3.6418   -5.0009    8.4696 LP  0  0  0  0  0  0  0  0  0  0  0  0  # atno 4321 bound_to 2467

> <Gold.Score>
     Score     S(PLP)   S(hbond)     S(cho)   S(metal)  DE(clash)   DE(tors)     intcor
     35.85     -34.76       0.72       0.00       0.00       0.00       0.54       0.00

> <Gold.PLP.Fitness>
35.8508

> <Gold.PLP.PLP>
-34.7627

> <Gold.PLP.part.hbond>
-1.8899

> <Gold.PLP.part.metal>
0.0000

> <Gold.PLP.part.buried>
-4.7415

> <Gold.PLP.part.nonpolar>
-28.9417

> <Gold.PLP.part.repulsive>
0.6345

> <Gold.PLP.ligand.clash>
0.0000

> <Gold.PLP.ligand.torsion>
0.5383

> <Gold.PLP.Chemscore.Hbond>
0.7200

> <Gold.PLP.Chemscore.CHOScore>
0.0000

> <Gold.PLP.Chemscore.Metal>
0.0000

> <Gold.Chemscore.Hbonds>
donor molecule, donor type, donor heavy atom, donor atom, acceptor molecule, acceptor atom, score
      P1  H  2456  2461       L1     8  0.72

> <Gold.PLP.Chemscore.Internal.Correction>
0.0049

