#       Name:                EN300-206926_i001
#       Creating user name   fsindt
#       Creation time:       Mon Feb 27 18:37:28 2023


#       File generated by GOLD software.
#

@<TRIPOS>MOLECULE
EN300-206926_i001|acide_3|mol2|420|dock16
    16    15     1
SMALL
USER_CHARGES


@<TRIPOS>ATOM
      1 C1           0.0809 -15.6820  12.1414 C.3            1 <1>                0.0000
      2 C2           0.7048 -15.8774  13.4992 C.2            1 <1>                0.0000
      3 O3           0.0770 -15.6030  14.5005 O.2            1 <1>                0.0000
      4 S4           2.2994 -16.4868  13.6288 S.3            1 <1>                0.0000
      5 C5           2.0128 -17.8826  14.7449 C.3            1 <1>                0.0000
      6 C6           1.3184 -19.0120  13.9811 C.3            1 <1>                0.0000
      7 C7          -0.1675 -18.7618  13.9559 C.2            1 <1>                0.0000
      8 O8          -0.7415 -18.6061  12.8916 O.co2          1 <1>                0.0000
      9 O9          -0.7956 -18.7149  14.9998 O.co2          1 <1>               -1.0000
     10 H10          0.2994 -14.6762  11.7826 H              1 <1>                0.0000
     11 H11          0.4905 -16.4133  11.4446 H              1 <1>                0.0000
     12 H12         -0.9984 -15.8150  12.2149 H              1 <1>                0.0000
     13 H13          2.9669 -18.2393  15.1330 H              1 <1>                0.0000
     14 H14          1.3807 -17.5617  15.5729 H              1 <1>                0.0000
     15 H15          1.6983 -19.0474  12.9602 H              1 <1>                0.0000
     16 H16          1.5185 -19.9621  14.4764 H              1 <1>                0.0000
@<TRIPOS>BOND
    1    1    2 1     
    2    1   10 1     
    3    1   11 1     
    4    1   12 1     
    5    2    3 2     
    6    2    4 1     
    7    4    5 1     
    8    5    6 1     
    9    5   13 1     
   10    5   14 1     
   11    6    7 1     
   12    6   15 1     
   13    6   16 1     
   14    7    8 ar    
   15    7    9 ar    
@<TRIPOS>SUBSTRUCTURE
      1 ****           1
@<TRIPOS>COMMENT
> <Gold.Version>
2022.2.0

> <Gold.Id.Protein>
3pbl|protein|mol2

> <Gold.Protein.RotatedTorsions>
[ 1303 1298 1297 1294 ] final   20.98 input  179.99 | X-H torsion
[ 2461 2456 2455 2452 ] final   49.56 input   30.03 | X-H torsion
[ 2515 2510 2509 2506 ] final -136.09 input  -89.99 | X-H torsion
[ 3721 3712 3711 3710 ] final  -13.29 input -179.91 | X-H torsion
[ 3841 3832 3831 3830 ] final   -6.61 input -179.91 | X-H torsion
[ 3767 3762 3761 3758 ] final  -49.91 input  -89.99 | X-H torsion
[ 2472 2467 2466 2463 ] final   63.73 input  -89.97 | X-H torsion

> <Gold.Protein.ActiveResidues>
 VAL82   VAL86   LEU89   PHE106  VAL107  ASP110  VAL111  MET112  CYS114  THR115 
 CYS181  SER182  ILE183  PHE188  VAL189  ILE190  SER192  SER193  SER196  TRP342 
 PHE345  PHE346  HIS349  VAL350  TYR365  THR369  GLY372  TYR373 

> <Gold.Protein.RotatedAtoms>
    3.5401  -10.1068    4.2453 H   0  0  0  0  0  0  0  0  0  0  0  0  # atno 1303 bound_to 1298
    1.7921   -7.9719    7.2766 H   0  0  0  0  0  0  0  0  0  0  0  0  # atno 2461 bound_to 2456
   -4.7037   -4.8279    7.6634 H   0  0  0  0  0  0  0  0  0  0  0  0  # atno 2472 bound_to 2467
    2.6237   -9.2557    5.2432 H   0  0  0  0  0  0  0  0  0  0  0  0  # atno 2515 bound_to 2510
   -2.5258  -17.8621   14.4147 H   0  0  0  0  0  0  0  0  0  0  0  0  # atno 3721 bound_to 3712
   -5.4992  -22.1448   10.6717 H   0  0  0  0  0  0  0  0  0  0  0  0  # atno 3767 bound_to 3762
    1.6838  -20.4101    9.5227 H   0  0  0  0  0  0  0  0  0  0  0  0  # atno 3841 bound_to 3832
    3.9455   -8.5578    3.9253 LP  0  0  0  0  0  0  0  0  0  0  0  0  # atno 4297 bound_to 1298
    4.8768   -9.4565    4.9211 LP  0  0  0  0  0  0  0  0  0  0  0  0  # atno 4298 bound_to 1298
    0.3367   -8.6844    7.4803 LP  0  0  0  0  0  0  0  0  0  0  0  0  # atno 4299 bound_to 2456
    1.6090   -9.1516    8.3911 LP  0  0  0  0  0  0  0  0  0  0  0  0  # atno 4300 bound_to 2456
    2.0287   -7.9205    5.9707 LP  0  0  0  0  0  0  0  0  0  0  0  0  # atno 4301 bound_to 2510
    2.6443   -7.8225    4.4614 LP  0  0  0  0  0  0  0  0  0  0  0  0  # atno 4302 bound_to 2510
   -3.5068  -16.6005   14.2603 LP  0  0  0  0  0  0  0  0  0  0  0  0  # atno 4306 bound_to 3712
   -3.1048  -17.5038   12.9607 LP  0  0  0  0  0  0  0  0  0  0  0  0  # atno 4307 bound_to 3712
    2.2445  -19.6785    8.2087 LP  0  0  0  0  0  0  0  0  0  0  0  0  # atno 4314 bound_to 3832
    3.0397  -20.9500    8.8548 LP  0  0  0  0  0  0  0  0  0  0  0  0  # atno 4315 bound_to 3832
   -4.1951  -22.4111   11.6178 LP  0  0  0  0  0  0  0  0  0  0  0  0  # atno 4318 bound_to 3762
   -4.4334  -23.3189   10.2815 LP  0  0  0  0  0  0  0  0  0  0  0  0  # atno 4319 bound_to 3762
   -3.7025   -5.1657    8.9083 LP  0  0  0  0  0  0  0  0  0  0  0  0  # atno 4320 bound_to 2467
   -5.3108   -5.3999    9.0672 LP  0  0  0  0  0  0  0  0  0  0  0  0  # atno 4321 bound_to 2467

> <Gold.Score>
     Score     S(PLP)   S(hbond)     S(cho)   S(metal)  DE(clash)   DE(tors)     intcor
     29.99     -24.43       2.00       0.00       0.00       0.00       0.22       0.00

> <Gold.PLP.Fitness>
29.9928

> <Gold.PLP.PLP>
-24.4266

> <Gold.PLP.part.hbond>
-3.0000

> <Gold.PLP.part.metal>
0.0000

> <Gold.PLP.part.buried>
-3.8055

> <Gold.PLP.part.nonpolar>
-18.2455

> <Gold.PLP.part.repulsive>
0.1028

> <Gold.PLP.ligand.clash>
0.0000

> <Gold.PLP.ligand.torsion>
0.2180

> <Gold.PLP.Chemscore.Hbond>
2.0000

> <Gold.PLP.Chemscore.CHOScore>
0.0000

> <Gold.PLP.Chemscore.Metal>
0.0000

> <Gold.Chemscore.Hbonds>
donor molecule, donor type, donor heavy atom, donor atom, acceptor molecule, acceptor atom, score
      P1  H  2305  2313       L1     3  1.00
      P1  H  3712  3721       L1     9  1.00

> <Gold.PLP.Chemscore.Internal.Correction>
0.0021

