#       Name:                EN300-206926_i001
#       Creating user name   fsindt
#       Creation time:       Mon Feb 27 18:37:20 2023


#       File generated by GOLD software.
#

@<TRIPOS>MOLECULE
EN300-206926_i001|acide_3|mol2|420|dock5
    16    15     1
SMALL
USER_CHARGES


@<TRIPOS>ATOM
      1 C1          -4.3941  -9.5734  10.1940 C.3            1 <1>                0.0000
      2 C2          -3.8187 -10.9551  10.0188 C.2            1 <1>                0.0000
      3 O3          -4.4824 -11.8272   9.4984 O.2            1 <1>                0.0000
      4 S4          -2.2282 -11.2941  10.5541 S.3            1 <1>                0.0000
      5 C5          -1.4766 -11.8195   8.9935 C.3            1 <1>                0.0000
      6 C6          -0.0199 -12.2184   9.2379 C.3            1 <1>                0.0000
      7 C7           0.7456 -12.1433   7.9419 C.2            1 <1>                0.0000
      8 O8           0.7867 -11.0967   7.3179 O.co2          1 <1>                0.0000
      9 O9           1.3237 -13.1292   7.5174 O.co2          1 <1>               -1.0000
     10 H10         -4.9004  -9.5101  11.1572 H              1 <1>                0.0000
     11 H11         -3.5907  -8.8376  10.1568 H              1 <1>                0.0000
     12 H12         -5.1076  -9.3730   9.3947 H              1 <1>                0.0000
     13 H13         -2.0252 -12.6731   8.5954 H              1 <1>                0.0000
     14 H14         -1.5133 -10.9981   8.2780 H              1 <1>                0.0000
     15 H15          0.4263 -11.5382   9.9633 H              1 <1>                0.0000
     16 H16          0.0180 -13.2370   9.6238 H              1 <1>                0.0000
@<TRIPOS>BOND
    1    1    2 1     
    2    1   10 1     
    3    1   11 1     
    4    1   12 1     
    5    2    3 2     
    6    2    4 1     
    7    4    5 1     
    8    5    6 1     
    9    5   13 1     
   10    5   14 1     
   11    6    7 1     
   12    6   15 1     
   13    6   16 1     
   14    7    8 ar    
   15    7    9 ar    
@<TRIPOS>SUBSTRUCTURE
      1 ****           1
@<TRIPOS>COMMENT
> <Gold.Version>
2022.2.0

> <Gold.Id.Protein>
3pbl|protein|mol2

> <Gold.Protein.RotatedTorsions>
[ 1303 1298 1297 1294 ] final -137.94 input  179.99 | X-H torsion
[ 2461 2456 2455 2452 ] final -130.37 input   30.03 | X-H torsion
[ 2515 2510 2509 2506 ] final  122.87 input  -89.99 | X-H torsion
[ 3721 3712 3711 3710 ] final    8.21 input -179.91 | X-H torsion
[ 3841 3832 3831 3830 ] final   -6.94 input -179.91 | X-H torsion
[ 3767 3762 3761 3758 ] final  -77.97 input  -89.99 | X-H torsion
[ 2472 2467 2466 2463 ] final -160.68 input  -89.97 | X-H torsion

> <Gold.Protein.ActiveResidues>
 VAL82   VAL86   LEU89   PHE106  VAL107  ASP110  VAL111  MET112  CYS114  THR115 
 CYS181  SER182  ILE183  PHE188  VAL189  ILE190  SER192  SER193  SER196  TRP342 
 PHE345  PHE346  HIS349  VAL350  TYR365  THR369  GLY372  TYR373 

> <Gold.Protein.RotatedAtoms>
    4.4687   -8.5030    4.2682 H   0  0  0  0  0  0  0  0  0  0  0  0  # atno 1303 bound_to 1298
    0.6988   -9.2332    8.1549 H   0  0  0  0  0  0  0  0  0  0  0  0  # atno 2461 bound_to 2456
   -5.1280   -5.4432    9.2411 H   0  0  0  0  0  0  0  0  0  0  0  0  # atno 2472 bound_to 2467
    2.0470   -8.2119    6.0766 H   0  0  0  0  0  0  0  0  0  0  0  0  # atno 2515 bound_to 2510
   -2.4740  -17.9973   14.1259 H   0  0  0  0  0  0  0  0  0  0  0  0  # atno 3721 bound_to 3712
   -5.3416  -21.9546   11.0565 H   0  0  0  0  0  0  0  0  0  0  0  0  # atno 3767 bound_to 3762
    1.6814  -20.4062    9.5207 H   0  0  0  0  0  0  0  0  0  0  0  0  # atno 3841 bound_to 3832
    4.5620  -10.0001    4.9133 LP  0  0  0  0  0  0  0  0  0  0  0  0  # atno 4297 bound_to 1298
    3.3313   -9.6186    3.9101 LP  0  0  0  0  0  0  0  0  0  0  0  0  # atno 4298 bound_to 1298
    2.1550   -8.5218    7.9526 LP  0  0  0  0  0  0  0  0  0  0  0  0  # atno 4299 bound_to 2456
    0.8838   -8.0534    7.0408 LP  0  0  0  0  0  0  0  0  0  0  0  0  # atno 4300 bound_to 2456
    2.5212   -7.5997    4.6392 LP  0  0  0  0  0  0  0  0  0  0  0  0  # atno 4301 bound_to 2510
    2.7287   -9.1876    4.9590 LP  0  0  0  0  0  0  0  0  0  0  0  0  # atno 4302 bound_to 2510
   -3.3920  -16.7542   14.5615 LP  0  0  0  0  0  0  0  0  0  0  0  0  # atno 4306 bound_to 3712
   -3.2795  -17.1940   12.9929 LP  0  0  0  0  0  0  0  0  0  0  0  0  # atno 4307 bound_to 3712
    2.2496  -19.6800    8.2069 LP  0  0  0  0  0  0  0  0  0  0  0  0  # atno 4314 bound_to 3832
    3.0375  -20.9531    8.8589 LP  0  0  0  0  0  0  0  0  0  0  0  0  # atno 4315 bound_to 3832
   -3.9659  -22.7550   11.4223 LP  0  0  0  0  0  0  0  0  0  0  0  0  # atno 4318 bound_to 3762
   -4.8201  -23.1652   10.0924 LP  0  0  0  0  0  0  0  0  0  0  0  0  # atno 4319 bound_to 3762
   -4.9486   -4.8748    7.7209 LP  0  0  0  0  0  0  0  0  0  0  0  0  # atno 4320 bound_to 2467
   -3.6403   -5.0756    8.6773 LP  0  0  0  0  0  0  0  0  0  0  0  0  # atno 4321 bound_to 2467

> <Gold.Score>
     Score     S(PLP)   S(hbond)     S(cho)   S(metal)  DE(clash)   DE(tors)     intcor
     32.57     -30.83       0.66       0.00       0.00       0.00       0.12       0.00

> <Gold.PLP.Fitness>
32.5724

> <Gold.PLP.PLP>
-30.8308

> <Gold.PLP.part.hbond>
-1.0000

> <Gold.PLP.part.metal>
0.0000

> <Gold.PLP.part.buried>
-3.3756

> <Gold.PLP.part.nonpolar>
-27.7819

> <Gold.PLP.part.repulsive>
0.2016

> <Gold.PLP.ligand.clash>
0.0000

> <Gold.PLP.ligand.torsion>
0.1156

> <Gold.PLP.Chemscore.Hbond>
0.6560

> <Gold.PLP.Chemscore.CHOScore>
0.0000

> <Gold.PLP.Chemscore.Metal>
0.0000

> <Gold.Chemscore.Hbonds>
donor molecule, donor type, donor heavy atom, donor atom, acceptor molecule, acceptor atom, score
      P1  H  2456  2461       L1     8  0.66

> <Gold.PLP.Chemscore.Internal.Correction>
0.0049

