#       Name:                EN300-206926_i001
#       Creating user name   fsindt
#       Creation time:       Mon Feb 27 18:37:20 2023


#       File generated by GOLD software.
#

@<TRIPOS>MOLECULE
EN300-206926_i001|acide_3|mol2|420|dock6
    16    15     1
SMALL
USER_CHARGES


@<TRIPOS>ATOM
      1 C1          -0.1000 -15.0001  12.4651 C.3            1 <1>                0.0000
      2 C2           0.5024 -15.8053  13.5875 C.2            1 <1>                0.0000
      3 O3          -0.0171 -15.8012  14.6839 O.2            1 <1>                0.0000
      4 S4           1.9198 -16.7261  13.3155 S.3            1 <1>                0.0000
      5 C5           1.3002 -18.3806  13.7092 C.3            1 <1>                0.0000
      6 C6           1.3385 -19.2519  12.4521 C.3            1 <1>                0.0000
      7 C7           0.0407 -19.1058  11.7000 C.2            1 <1>                0.0000
      8 O8          -0.0387 -19.4808  10.5426 O.co2          1 <1>                0.0000
      9 O9          -0.9297 -18.6124  12.2489 O.co2          1 <1>               -1.0000
     10 H10          0.3309 -13.9988  12.4645 H              1 <1>                0.0000
     11 H11          0.1122 -15.4876  11.5136 H              1 <1>                0.0000
     12 H12         -1.1787 -14.9313  12.6056 H              1 <1>                0.0000
     13 H13          1.9259 -18.8287  14.4811 H              1 <1>                0.0000
     14 H14          0.2743 -18.3079  14.0698 H              1 <1>                0.0000
     15 H15          2.1648 -18.9356  11.8156 H              1 <1>                0.0000
     16 H16          1.4779 -20.2947  12.7370 H              1 <1>                0.0000
@<TRIPOS>BOND
    1    1    2 1     
    2    1   10 1     
    3    1   11 1     
    4    1   12 1     
    5    2    3 2     
    6    2    4 1     
    7    4    5 1     
    8    5    6 1     
    9    5   13 1     
   10    5   14 1     
   11    6    7 1     
   12    6   15 1     
   13    6   16 1     
   14    7    8 ar    
   15    7    9 ar    
@<TRIPOS>SUBSTRUCTURE
      1 ****           1
@<TRIPOS>COMMENT
> <Gold.Version>
2022.2.0

> <Gold.Id.Protein>
3pbl|protein|mol2

> <Gold.Protein.RotatedTorsions>
[ 1303 1298 1297 1294 ] final  134.89 input  179.99 | X-H torsion
[ 2461 2456 2455 2452 ] final -175.91 input   30.03 | X-H torsion
[ 2515 2510 2509 2506 ] final  161.63 input  -89.99 | X-H torsion
[ 3721 3712 3711 3710 ] final   57.79 input -179.91 | X-H torsion
[ 3841 3832 3831 3830 ] final  -33.98 input -179.91 | X-H torsion
[ 3767 3762 3761 3758 ] final -142.80 input  -89.99 | X-H torsion
[ 2472 2467 2466 2463 ] final  -77.71 input  -89.97 | X-H torsion

> <Gold.Protein.ActiveResidues>
 VAL82   VAL86   LEU89   PHE106  VAL107  ASP110  VAL111  MET112  CYS114  THR115 
 CYS181  SER182  ILE183  PHE188  VAL189  ILE190  SER192  SER193  SER196  TRP342 
 PHE345  PHE346  HIS349  VAL350  TYR365  THR369  GLY372  TYR373 

> <Gold.Protein.RotatedAtoms>
    4.8472   -9.5507    4.9378 H   0  0  0  0  0  0  0  0  0  0  0  0  # atno 1303 bound_to 1298
    1.3866   -9.2374    8.3992 H   0  0  0  0  0  0  0  0  0  0  0  0  # atno 2461 bound_to 2456
   -3.8907   -5.2848    9.1793 H   0  0  0  0  0  0  0  0  0  0  0  0  # atno 2472 bound_to 2467
    2.2068   -8.8123    6.0046 H   0  0  0  0  0  0  0  0  0  0  0  0  # atno 2515 bound_to 2510
   -2.5799  -17.9234   13.4111 H   0  0  0  0  0  0  0  0  0  0  0  0  # atno 3721 bound_to 3712
   -4.5316  -22.1253   11.6367 H   0  0  0  0  0  0  0  0  0  0  0  0  # atno 3767 bound_to 3762
    1.5643  -20.0843    9.3050 H   0  0  0  0  0  0  0  0  0  0  0  0  # atno 3841 bound_to 3832
    3.4865  -10.0480    4.1845 LP  0  0  0  0  0  0  0  0  0  0  0  0  # atno 4297 bound_to 1298
    4.0282   -8.5226    3.9690 LP  0  0  0  0  0  0  0  0  0  0  0  0  # atno 4298 bound_to 1298
    1.9589   -8.0600    7.4227 LP  0  0  0  0  0  0  0  0  0  0  0  0  # atno 4299 bound_to 2456
    0.3923   -8.5110    7.3264 LP  0  0  0  0  0  0  0  0  0  0  0  0  # atno 4300 bound_to 2456
    2.2551   -7.4085    5.1723 LP  0  0  0  0  0  0  0  0  0  0  0  0  # atno 4301 bound_to 2510
    2.8349   -8.7780    4.4979 LP  0  0  0  0  0  0  0  0  0  0  0  0  # atno 4302 bound_to 2510
   -3.0022  -17.3874   14.8644 LP  0  0  0  0  0  0  0  0  0  0  0  0  # atno 4306 bound_to 3712
   -3.5470  -16.6460   13.5153 LP  0  0  0  0  0  0  0  0  0  0  0  0  # atno 4307 bound_to 3712
    2.6458  -19.8764    8.1374 LP  0  0  0  0  0  0  0  0  0  0  0  0  # atno 4314 bound_to 3832
    2.7766  -21.1285    9.1775 LP  0  0  0  0  0  0  0  0  0  0  0  0  # atno 4315 bound_to 3832
   -4.1203  -23.3126   10.5937 LP  0  0  0  0  0  0  0  0  0  0  0  0  # atno 4318 bound_to 3762
   -5.4753  -22.4370   10.3409 LP  0  0  0  0  0  0  0  0  0  0  0  0  # atno 4319 bound_to 3762
   -5.4709   -5.3099    8.7687 LP  0  0  0  0  0  0  0  0  0  0  0  0  # atno 4320 bound_to 2467
   -4.3552   -4.7988    7.6913 LP  0  0  0  0  0  0  0  0  0  0  0  0  # atno 4321 bound_to 2467

> <Gold.Score>
     Score     S(PLP)   S(hbond)     S(cho)   S(metal)  DE(clash)   DE(tors)     intcor
     31.61     -24.39       2.90       0.00       0.00       0.00       0.75       0.00

> <Gold.PLP.Fitness>
31.6080

> <Gold.PLP.PLP>
-24.3928

> <Gold.PLP.part.hbond>
-2.8969

> <Gold.PLP.part.metal>
0.0000

> <Gold.PLP.part.buried>
-4.4887

> <Gold.PLP.part.nonpolar>
-17.5392

> <Gold.PLP.part.repulsive>
0.2065

> <Gold.PLP.ligand.clash>
0.0000

> <Gold.PLP.ligand.torsion>
0.7467

> <Gold.PLP.Chemscore.Hbond>
2.9013

> <Gold.PLP.Chemscore.CHOScore>
0.0000

> <Gold.PLP.Chemscore.Metal>
0.0000

> <Gold.Chemscore.Hbonds>
donor molecule, donor type, donor heavy atom, donor atom, acceptor molecule, acceptor atom, score
      P1  H  2305  2313       L1     3  1.00
      P1  H  3712  3721       L1     9  0.93
      P1  H  3832  3841       L1     8  0.98

> <Gold.PLP.Chemscore.Internal.Correction>
0.0049

