#       Name:                EN300-206926_i001
#       Creating user name   fsindt
#       Creation time:       Mon Feb 27 18:37:30 2023


#       File generated by GOLD software.
#

@<TRIPOS>MOLECULE
EN300-206926_i001|acide_3|mol2|420|dock19
    16    15     1
SMALL
USER_CHARGES


@<TRIPOS>ATOM
      1 C1           0.9340 -14.4334   7.4760 C.3            1 <1>                0.0000
      2 C2           0.7101 -13.9092   8.8711 C.2            1 <1>                0.0000
      3 O3          -0.2018 -13.1399   9.0910 O.2            1 <1>                0.0000
      4 S4           1.7426 -14.3997  10.1456 S.3            1 <1>                0.0000
      5 C5           0.5129 -14.9753  11.3425 C.3            1 <1>                0.0000
      6 C6           1.1850 -15.8998  12.3596 C.3            1 <1>                0.0000
      7 C7           0.1895 -16.2839  13.4239 C.2            1 <1>                0.0000
      8 O8          -0.7898 -16.9486  13.1313 O.co2          1 <1>                0.0000
      9 O9           0.3633 -15.9297  14.5775 O.co2          1 <1>               -1.0000
     10 H10          1.6098 -13.7659   6.9413 H              1 <1>                0.0000
     11 H11          1.3731 -15.4296   7.5282 H              1 <1>                0.0000
     12 H12         -0.0191 -14.4835   6.9494 H              1 <1>                0.0000
     13 H13          0.0809 -14.1187  11.8600 H              1 <1>                0.0000
     14 H14         -0.2744 -15.5197  10.8212 H              1 <1>                0.0000
     15 H15          1.5414 -16.7976  11.8546 H              1 <1>                0.0000
     16 H16          2.0272 -15.3829  12.8194 H              1 <1>                0.0000
@<TRIPOS>BOND
    1    1    2 1     
    2    1   10 1     
    3    1   11 1     
    4    1   12 1     
    5    2    3 2     
    6    2    4 1     
    7    4    5 1     
    8    5    6 1     
    9    5   13 1     
   10    5   14 1     
   11    6    7 1     
   12    6   15 1     
   13    6   16 1     
   14    7    8 ar    
   15    7    9 ar    
@<TRIPOS>SUBSTRUCTURE
      1 ****           1
@<TRIPOS>COMMENT
> <Gold.Version>
2022.2.0

> <Gold.Id.Protein>
3pbl|protein|mol2

> <Gold.Protein.RotatedTorsions>
[ 1303 1298 1297 1294 ] final   11.24 input  179.99 | X-H torsion
[ 2461 2456 2455 2452 ] final  -90.92 input   30.03 | X-H torsion
[ 2515 2510 2509 2506 ] final  156.69 input  -89.99 | X-H torsion
[ 3721 3712 3711 3710 ] final   56.30 input -179.91 | X-H torsion
[ 3841 3832 3831 3830 ] final   -7.34 input -179.91 | X-H torsion
[ 3767 3762 3761 3758 ] final  -69.53 input  -89.99 | X-H torsion
[ 2472 2467 2466 2463 ] final  -25.36 input  -89.97 | X-H torsion

> <Gold.Protein.ActiveResidues>
 VAL82   VAL86   LEU89   PHE106  VAL107  ASP110  VAL111  MET112  CYS114  THR115 
 CYS181  SER182  ILE183  PHE188  VAL189  ILE190  SER192  SER193  SER196  TRP342 
 PHE345  PHE346  HIS349  VAL350  TYR365  THR369  GLY372  TYR373 

> <Gold.Protein.RotatedAtoms>
    3.4576  -10.0085    4.1498 H   0  0  0  0  0  0  0  0  0  0  0  0  # atno 1303 bound_to 1298
    0.3570   -8.9176    7.7203 H   0  0  0  0  0  0  0  0  0  0  0  0  # atno 2461 bound_to 2456
   -3.6459   -4.9916    8.4405 H   0  0  0  0  0  0  0  0  0  0  0  0  # atno 2472 bound_to 2467
    2.1789   -8.7425    6.0352 H   0  0  0  0  0  0  0  0  0  0  0  0  # atno 2515 bound_to 2510
   -2.5725  -17.9334   13.4299 H   0  0  0  0  0  0  0  0  0  0  0  0  # atno 3721 bound_to 3712
   -5.4071  -21.9967   10.9416 H   0  0  0  0  0  0  0  0  0  0  0  0  # atno 3767 bound_to 3762
    1.6785  -20.4015    9.5183 H   0  0  0  0  0  0  0  0  0  0  0  0  # atno 3841 bound_to 3832
    4.0785   -8.5060    3.9976 LP  0  0  0  0  0  0  0  0  0  0  0  0  # atno 4297 bound_to 1298
    4.8263   -9.6066    4.9443 LP  0  0  0  0  0  0  0  0  0  0  0  0  # atno 4298 bound_to 1298
    1.8801   -8.9730    8.3073 LP  0  0  0  0  0  0  0  0  0  0  0  0  # atno 4299 bound_to 2456
    1.5005   -7.9176    7.1205 LP  0  0  0  0  0  0  0  0  0  0  0  0  # atno 4300 bound_to 2456
    2.2870   -7.4102    5.0976 LP  0  0  0  0  0  0  0  0  0  0  0  0  # atno 4301 bound_to 2510
    2.8310   -8.8462    4.5420 LP  0  0  0  0  0  0  0  0  0  0  0  0  # atno 4302 bound_to 2510
   -3.0145  -17.3657   14.8652 LP  0  0  0  0  0  0  0  0  0  0  0  0  # atno 4306 bound_to 3712
   -3.5432  -16.6561   13.4928 LP  0  0  0  0  0  0  0  0  0  0  0  0  # atno 4307 bound_to 3712
    2.2556  -19.6818    8.2048 LP  0  0  0  0  0  0  0  0  0  0  0  0  # atno 4314 bound_to 3832
    3.0348  -20.9566    8.8638 LP  0  0  0  0  0  0  0  0  0  0  0  0  # atno 4315 bound_to 3832
   -4.0182  -22.6511   11.4979 LP  0  0  0  0  0  0  0  0  0  0  0  0  # atno 4318 bound_to 3762
   -4.7023  -23.2271   10.1316 LP  0  0  0  0  0  0  0  0  0  0  0  0  # atno 4319 bound_to 3762
   -4.9088   -5.4621    9.3625 LP  0  0  0  0  0  0  0  0  0  0  0  0  # atno 4320 bound_to 2467
   -5.1620   -4.9398    7.8361 LP  0  0  0  0  0  0  0  0  0  0  0  0  # atno 4321 bound_to 2467

> <Gold.Score>
     Score     S(PLP)   S(hbond)     S(cho)   S(metal)  DE(clash)   DE(tors)     intcor
     30.11     -26.06       1.46       0.00       0.00       0.00       0.17       0.00

> <Gold.PLP.Fitness>
30.1144

> <Gold.PLP.PLP>
-26.0560

> <Gold.PLP.part.hbond>
-2.0000

> <Gold.PLP.part.metal>
0.0000

> <Gold.PLP.part.buried>
-3.8943

> <Gold.PLP.part.nonpolar>
-20.7777

> <Gold.PLP.part.repulsive>
0.1007

> <Gold.PLP.ligand.clash>
0.0000

> <Gold.PLP.ligand.torsion>
0.1679

> <Gold.PLP.Chemscore.Hbond>
1.4640

> <Gold.PLP.Chemscore.CHOScore>
0.0000

> <Gold.PLP.Chemscore.Metal>
0.0000

> <Gold.Chemscore.Hbonds>
donor molecule, donor type, donor heavy atom, donor atom, acceptor molecule, acceptor atom, score
      P1  H  2305  2313       L1     9  1.00
      P1  H  3712  3721       L1     8  0.46

> <Gold.PLP.Chemscore.Internal.Correction>
0.0021

