#       Name:                EN300-206926_i001
#       Creating user name   fsindt
#       Creation time:       Mon Feb 27 18:37:24 2023


#       File generated by GOLD software.
#

@<TRIPOS>MOLECULE
EN300-206926_i001|acide_3|mol2|420|dock11
    16    15     1
SMALL
USER_CHARGES


@<TRIPOS>ATOM
      1 C1          -5.2007 -10.8240   9.6872 C.3            1 <1>                0.0000
      2 C2          -3.7131 -10.6899   9.8875 C.2            1 <1>                0.0000
      3 O3          -3.2194  -9.5938  10.0515 O.2            1 <1>                0.0000
      4 S4          -2.7198 -12.0843   9.8838 S.3            1 <1>                0.0000
      5 C5          -1.1382 -11.3448  10.3614 C.3            1 <1>                0.0000
      6 C6           0.0028 -12.2891   9.9776 C.3            1 <1>                0.0000
      7 C7           0.2812 -12.1665   8.5016 C.2            1 <1>                0.0000
      8 O8           0.6402 -11.0987   8.0355 O.co2          1 <1>                0.0000
      9 O9           0.1473 -13.1352   7.7734 O.co2          1 <1>               -1.0000
     10 H10         -5.4310 -10.7622   8.6235 H              1 <1>                0.0000
     11 H11         -5.5345 -11.7861  10.0759 H              1 <1>                0.0000
     12 H12         -5.7125 -10.0207  10.2170 H              1 <1>                0.0000
     13 H13         -1.0116 -10.3932   9.8453 H              1 <1>                0.0000
     14 H14         -1.1255 -11.1786  11.4386 H              1 <1>                0.0000
     15 H15          0.8984 -12.0242  10.5394 H              1 <1>                0.0000
     16 H16         -0.2814 -13.3155  10.2097 H              1 <1>                0.0000
@<TRIPOS>BOND
    1    1    2 1     
    2    1   10 1     
    3    1   11 1     
    4    1   12 1     
    5    2    3 2     
    6    2    4 1     
    7    4    5 1     
    8    5    6 1     
    9    5   13 1     
   10    5   14 1     
   11    6    7 1     
   12    6   15 1     
   13    6   16 1     
   14    7    8 ar    
   15    7    9 ar    
@<TRIPOS>SUBSTRUCTURE
      1 ****           1
@<TRIPOS>COMMENT
> <Gold.Version>
2022.2.0

> <Gold.Id.Protein>
3pbl|protein|mol2

> <Gold.Protein.RotatedTorsions>
[ 1303 1298 1297 1294 ] final   11.46 input  179.99 | X-H torsion
[ 2461 2456 2455 2452 ] final -150.68 input   30.03 | X-H torsion
[ 2515 2510 2509 2506 ] final -169.61 input  -89.99 | X-H torsion
[ 3721 3712 3711 3710 ] final -100.07 input -179.91 | X-H torsion
[ 3841 3832 3831 3830 ] final    9.54 input -179.91 | X-H torsion
[ 3767 3762 3761 3758 ] final  101.37 input  -89.99 | X-H torsion
[ 2472 2467 2466 2463 ] final   -2.92 input  -89.97 | X-H torsion

> <Gold.Protein.ActiveResidues>
 VAL82   VAL86   LEU89   PHE106  VAL107  ASP110  VAL111  MET112  CYS114  THR115 
 CYS181  SER182  ILE183  PHE188  VAL189  ILE190  SER192  SER193  SER196  TRP342 
 PHE345  PHE346  HIS349  VAL350  TYR365  THR369  GLY372  TYR373 

> <Gold.Protein.RotatedAtoms>
    3.4592  -10.0110    4.1519 H   0  0  0  0  0  0  0  0  0  0  0  0  # atno 1303 bound_to 1298
    0.9876   -9.2879    8.3104 H   0  0  0  0  0  0  0  0  0  0  0  0  # atno 2461 bound_to 2456
   -3.7718   -4.8871    8.1121 H   0  0  0  0  0  0  0  0  0  0  0  0  # atno 2472 bound_to 2467
    2.3956   -9.1335    5.7213 H   0  0  0  0  0  0  0  0  0  0  0  0  # atno 2515 bound_to 2510
   -3.0960  -16.8363   14.6120 H   0  0  0  0  0  0  0  0  0  0  0  0  # atno 3721 bound_to 3712
   -4.0819  -23.2974   10.6482 H   0  0  0  0  0  0  0  0  0  0  0  0  # atno 3767 bound_to 3762
    1.8273  -20.5920    9.5967 H   0  0  0  0  0  0  0  0  0  0  0  0  # atno 3841 bound_to 3832
    4.0755   -8.5069    3.9958 LP  0  0  0  0  0  0  0  0  0  0  0  0  # atno 4297 bound_to 1298
    4.8277   -9.6032    4.9440 LP  0  0  0  0  0  0  0  0  0  0  0  0  # atno 4298 bound_to 1298
    2.1355   -8.2905    7.7146 LP  0  0  0  0  0  0  0  0  0  0  0  0  # atno 4299 bound_to 2456
    0.6146   -8.2300    7.1233 LP  0  0  0  0  0  0  0  0  0  0  0  0  # atno 4300 bound_to 2456
    2.1024   -7.5321    5.5974 LP  0  0  0  0  0  0  0  0  0  0  0  0  # atno 4301 bound_to 2510
    2.7987   -8.3332    4.3564 LP  0  0  0  0  0  0  0  0  0  0  0  0  # atno 4302 bound_to 2510
   -3.3442  -17.0731   13.0435 LP  0  0  0  0  0  0  0  0  0  0  0  0  # atno 4306 bound_to 3712
   -2.6091  -18.2154   13.9497 LP  0  0  0  0  0  0  0  0  0  0  0  0  # atno 4307 bound_to 3712
    2.0033  -19.6357    8.3198 LP  0  0  0  0  0  0  0  0  0  0  0  0  # atno 4314 bound_to 3832
    3.1153  -20.7827    8.6582 LP  0  0  0  0  0  0  0  0  0  0  0  0  # atno 4315 bound_to 3832
   -5.4560  -22.4873   10.2985 LP  0  0  0  0  0  0  0  0  0  0  0  0  # atno 4318 bound_to 3762
   -4.5892  -22.0906   11.6243 LP  0  0  0  0  0  0  0  0  0  0  0  0  # atno 4319 bound_to 3762
   -4.5492   -5.4482    9.4339 LP  0  0  0  0  0  0  0  0  0  0  0  0  # atno 4320 bound_to 2467
   -5.3957   -5.0581    8.0930 LP  0  0  0  0  0  0  0  0  0  0  0  0  # atno 4321 bound_to 2467

> <Gold.Score>
     Score     S(PLP)   S(hbond)     S(cho)   S(metal)  DE(clash)   DE(tors)     intcor
     33.30     -30.73       1.00       0.00       0.00       0.00       0.21       0.00

> <Gold.PLP.Fitness>
33.3035

> <Gold.PLP.PLP>
-30.7284

> <Gold.PLP.part.hbond>
-1.0000

> <Gold.PLP.part.metal>
0.0000

> <Gold.PLP.part.buried>
-4.3263

> <Gold.PLP.part.nonpolar>
-26.1300

> <Gold.PLP.part.repulsive>
0.6083

> <Gold.PLP.ligand.clash>
0.0000

> <Gold.PLP.ligand.torsion>
0.2135

> <Gold.PLP.Chemscore.Hbond>
1.0000

> <Gold.PLP.Chemscore.CHOScore>
0.0000

> <Gold.PLP.Chemscore.Metal>
0.0000

> <Gold.Chemscore.Hbonds>
donor molecule, donor type, donor heavy atom, donor atom, acceptor molecule, acceptor atom, score
      P1  H  2456  2461       L1     8  1.00

> <Gold.PLP.Chemscore.Internal.Correction>
0.0021

