#       Name:                EN300-206926_i001
#       Creating user name   fsindt
#       Creation time:       Mon Feb 27 18:37:18 2023


#       File generated by GOLD software.
#

@<TRIPOS>MOLECULE
EN300-206926_i001|acide_3|mol2|420|dock2
    16    15     1
SMALL
USER_CHARGES


@<TRIPOS>ATOM
      1 C1           0.4709 -13.1300   8.0284 C.3            1 <1>                0.0000
      2 C2           0.0479 -11.8815   8.7587 C.2            1 <1>                0.0000
      3 O3           0.0514 -10.8124   8.1850 O.2            1 <1>                0.0000
      4 S4          -0.4378 -11.9716  10.3979 S.3            1 <1>                0.0000
      5 C5          -1.6801 -10.6557  10.4305 C.3            1 <1>                0.0000
      6 C6          -2.6919 -10.8817   9.3053 C.3            1 <1>                0.0000
      7 C7          -4.0806 -10.5888   9.8123 C.2            1 <1>                0.0000
      8 O8          -4.9850 -11.3795   9.6042 O.co2          1 <1>                0.0000
      9 O9          -4.2997  -9.5610  10.4305 O.co2          1 <1>               -1.0000
     10 H10          1.5445 -13.2751   8.1487 H              1 <1>                0.0000
     11 H11         -0.0602 -13.9887   8.4390 H              1 <1>                0.0000
     12 H12          0.2344 -13.0290   6.9692 H              1 <1>                0.0000
     13 H13         -2.1959 -10.6668  11.3907 H              1 <1>                0.0000
     14 H14         -1.1915  -9.6914  10.2915 H              1 <1>                0.0000
     15 H15         -2.4622 -10.2185   8.4714 H              1 <1>                0.0000
     16 H16         -2.6382 -11.9178   8.9711 H              1 <1>                0.0000
@<TRIPOS>BOND
    1    1    2 1     
    2    1   10 1     
    3    1   11 1     
    4    1   12 1     
    5    2    3 2     
    6    2    4 1     
    7    4    5 1     
    8    5    6 1     
    9    5   13 1     
   10    5   14 1     
   11    6    7 1     
   12    6   15 1     
   13    6   16 1     
   14    7    8 ar    
   15    7    9 ar    
@<TRIPOS>SUBSTRUCTURE
      1 ****           1
@<TRIPOS>COMMENT
> <Gold.Version>
2022.2.0

> <Gold.Id.Protein>
3pbl|protein|mol2

> <Gold.Protein.RotatedTorsions>
[ 1303 1298 1297 1294 ] final -124.93 input  179.99 | X-H torsion
[ 2461 2456 2455 2452 ] final -113.91 input   30.03 | X-H torsion
[ 2515 2510 2509 2506 ] final   52.41 input  -89.99 | X-H torsion
[ 3721 3712 3711 3710 ] final  -31.73 input -179.91 | X-H torsion
[ 3841 3832 3831 3830 ] final   82.70 input -179.91 | X-H torsion
[ 3767 3762 3761 3758 ] final  -33.04 input  -89.99 | X-H torsion
[ 2472 2467 2466 2463 ] final  -78.60 input  -89.97 | X-H torsion

> <Gold.Protein.ActiveResidues>
 VAL82   VAL86   LEU89   PHE106  VAL107  ASP110  VAL111  MET112  CYS114  THR115 
 CYS181  SER182  ILE183  PHE188  VAL189  ILE190  SER192  SER193  SER196  TRP342 
 PHE345  PHE346  HIS349  VAL350  TYR365  THR369  GLY372  TYR373 

> <Gold.Protein.RotatedAtoms>
    4.2999   -8.4758    4.1403 H   0  0  0  0  0  0  0  0  0  0  0  0  # atno 1303 bound_to 1298
    0.5133   -9.1307    7.9878 H   0  0  0  0  0  0  0  0  0  0  0  0  # atno 2461 bound_to 2456
   -3.9007   -5.2894    9.1889 H   0  0  0  0  0  0  0  0  0  0  0  0  # atno 2472 bound_to 2467
    2.1906   -7.4289    5.3359 H   0  0  0  0  0  0  0  0  0  0  0  0  # atno 2515 bound_to 2510
   -2.6127  -17.6807   14.6061 H   0  0  0  0  0  0  0  0  0  0  0  0  # atno 3721 bound_to 3712
   -5.5052  -22.3176   10.4558 H   0  0  0  0  0  0  0  0  0  0  0  0  # atno 3767 bound_to 3762
    2.7608  -20.9441    9.3339 H   0  0  0  0  0  0  0  0  0  0  0  0  # atno 3841 bound_to 3832
    4.6985   -9.8391    4.9457 LP  0  0  0  0  0  0  0  0  0  0  0  0  # atno 4297 bound_to 1298
    3.3637   -9.8068    4.0056 LP  0  0  0  0  0  0  0  0  0  0  0  0  # atno 4298 bound_to 1298
    2.0875   -8.7181    8.1250 LP  0  0  0  0  0  0  0  0  0  0  0  0  # atno 4299 bound_to 2456
    1.1368   -7.9595    7.0354 LP  0  0  0  0  0  0  0  0  0  0  0  0  # atno 4300 bound_to 2456
    2.8330   -8.6188    4.4209 LP  0  0  0  0  0  0  0  0  0  0  0  0  # atno 4301 bound_to 2510
    2.2732   -8.9519    5.9183 LP  0  0  0  0  0  0  0  0  0  0  0  0  # atno 4302 bound_to 2510
   -3.5592  -16.5554   13.9614 LP  0  0  0  0  0  0  0  0  0  0  0  0  # atno 4306 bound_to 3712
   -2.9521  -17.7582   13.0387 LP  0  0  0  0  0  0  0  0  0  0  0  0  # atno 4307 bound_to 3712
    1.3896  -20.1319    9.1440 LP  0  0  0  0  0  0  0  0  0  0  0  0  # atno 4314 bound_to 3832
    2.6506  -19.8798    8.1375 LP  0  0  0  0  0  0  0  0  0  0  0  0  # atno 4315 bound_to 3832
   -4.3958  -22.2237   11.6505 LP  0  0  0  0  0  0  0  0  0  0  0  0  # atno 4318 bound_to 3762
   -4.2267  -23.3336   10.4647 LP  0  0  0  0  0  0  0  0  0  0  0  0  # atno 4319 bound_to 3762
   -5.4749   -5.3055    8.7554 LP  0  0  0  0  0  0  0  0  0  0  0  0  # atno 4320 bound_to 2467
   -4.3412   -4.7987    7.6950 LP  0  0  0  0  0  0  0  0  0  0  0  0  # atno 4321 bound_to 2467

> <Gold.Score>
     Score     S(PLP)   S(hbond)     S(cho)   S(metal)  DE(clash)   DE(tors)     intcor
     31.66     -30.26       1.00       0.00       0.00       0.00       0.80       0.00

> <Gold.PLP.Fitness>
31.6637

> <Gold.PLP.PLP>
-30.2616

> <Gold.PLP.part.hbond>
-1.0000

> <Gold.PLP.part.metal>
0.0000

> <Gold.PLP.part.buried>
-2.8079

> <Gold.PLP.part.nonpolar>
-26.9788

> <Gold.PLP.part.repulsive>
0.2601

> <Gold.PLP.ligand.clash>
0.0000

> <Gold.PLP.ligand.torsion>
0.8014

> <Gold.PLP.Chemscore.Hbond>
1.0000

> <Gold.PLP.Chemscore.CHOScore>
0.0000

> <Gold.PLP.Chemscore.Metal>
0.0000

> <Gold.Chemscore.Hbonds>
donor molecule, donor type, donor heavy atom, donor atom, acceptor molecule, acceptor atom, score
      P1  H  2456  2461       L1     3  1.00

> <Gold.PLP.Chemscore.Internal.Correction>
0.0049

