#       Name:                EN300-206926_i001
#       Creating user name   fsindt
#       Creation time:       Mon Feb 27 18:37:27 2023


#       File generated by GOLD software.
#

@<TRIPOS>MOLECULE
EN300-206926_i001|acide_3|mol2|420|dock15
    16    15     1
SMALL
USER_CHARGES


@<TRIPOS>ATOM
      1 C1           1.1784 -13.8216   7.2013 C.3            1 <1>                0.0000
      2 C2           0.4214 -13.5433   8.4743 C.2            1 <1>                0.0000
      3 O3           0.1729 -14.4487   9.2427 O.2            1 <1>                0.0000
      4 S4          -0.0878 -11.9493   8.8364 S.3            1 <1>                0.0000
      5 C5          -1.0562 -12.2611  10.3334 C.3            1 <1>                0.0000
      6 C6          -1.5853 -10.9352  10.8837 C.3            1 <1>                0.0000
      7 C7          -2.5803 -10.3504   9.9146 C.2            1 <1>                0.0000
      8 O8          -3.6598 -10.8919   9.7480 O.co2          1 <1>                0.0000
      9 O9          -2.3056  -9.3357   9.2969 O.co2          1 <1>               -1.0000
     10 H10          0.4739 -14.0608   6.4047 H              1 <1>                0.0000
     11 H11          1.7568 -12.9408   6.9224 H              1 <1>                0.0000
     12 H12          1.8518 -14.6646   7.3560 H              1 <1>                0.0000
     13 H13         -1.8944 -12.9156  10.0941 H              1 <1>                0.0000
     14 H14         -0.4242 -12.7389  11.0819 H              1 <1>                0.0000
     15 H15         -2.0719 -11.1084  11.8436 H              1 <1>                0.0000
     16 H16         -0.7562 -10.2403  11.0168 H              1 <1>                0.0000
@<TRIPOS>BOND
    1    1    2 1     
    2    1   10 1     
    3    1   11 1     
    4    1   12 1     
    5    2    3 2     
    6    2    4 1     
    7    4    5 1     
    8    5    6 1     
    9    5   13 1     
   10    5   14 1     
   11    6    7 1     
   12    6   15 1     
   13    6   16 1     
   14    7    8 ar    
   15    7    9 ar    
@<TRIPOS>SUBSTRUCTURE
      1 ****           1
@<TRIPOS>COMMENT
> <Gold.Version>
2022.2.0

> <Gold.Id.Protein>
3pbl|protein|mol2

> <Gold.Protein.RotatedTorsions>
[ 1303 1298 1297 1294 ] final  139.46 input  179.99 | X-H torsion
[ 2461 2456 2455 2452 ] final   10.76 input   30.03 | X-H torsion
[ 2515 2510 2509 2506 ] final  -12.13 input  -89.99 | X-H torsion
[ 3721 3712 3711 3710 ] final  149.64 input -179.91 | X-H torsion
[ 3841 3832 3831 3830 ] final  -59.74 input -179.91 | X-H torsion
[ 3767 3762 3761 3758 ] final -111.65 input  -89.99 | X-H torsion
[ 2472 2467 2466 2463 ] final -148.67 input  -89.97 | X-H torsion

> <Gold.Protein.ActiveResidues>
 VAL82   VAL86   LEU89   PHE106  VAL107  ASP110  VAL111  MET112  CYS114  THR115 
 CYS181  SER182  ILE183  PHE188  VAL189  ILE190  SER192  SER193  SER196  TRP342 
 PHE345  PHE346  HIS349  VAL350  TYR365  THR369  GLY372  TYR373 

> <Gold.Protein.RotatedAtoms>
    4.8698   -9.4801    4.9261 H   0  0  0  0  0  0  0  0  0  0  0  0  # atno 1303 bound_to 1298
    1.2112   -7.9420    7.0440 H   0  0  0  0  0  0  0  0  0  0  0  0  # atno 2461 bound_to 2456
   -4.9587   -5.4605    9.3408 H   0  0  0  0  0  0  0  0  0  0  0  0  # atno 2472 bound_to 2467
    2.6202   -7.7707    4.4925 H   0  0  0  0  0  0  0  0  0  0  0  0  # atno 2515 bound_to 2510
   -3.2036  -16.8684   13.1949 H   0  0  0  0  0  0  0  0  0  0  0  0  # atno 3721 bound_to 3712
   -4.9618  -21.9358   11.4489 H   0  0  0  0  0  0  0  0  0  0  0  0  # atno 3767 bound_to 3762
    1.6120  -19.8142    9.0336 H   0  0  0  0  0  0  0  0  0  0  0  0  # atno 3841 bound_to 3832
    3.5261  -10.0931    4.2296 LP  0  0  0  0  0  0  0  0  0  0  0  0  # atno 4297 bound_to 1298
    3.9659   -8.5481    3.9357 LP  0  0  0  0  0  0  0  0  0  0  0  0  # atno 4298 bound_to 1298
    0.4712   -9.0931    7.9355 LP  0  0  0  0  0  0  0  0  0  0  0  0  # atno 4299 bound_to 2456
    2.0554   -8.7728    8.1685 LP  0  0  0  0  0  0  0  0  0  0  0  0  # atno 4300 bound_to 2456
    2.6476   -9.2500    5.1830 LP  0  0  0  0  0  0  0  0  0  0  0  0  # atno 4301 bound_to 2510
    2.0288   -7.9787    6.0001 LP  0  0  0  0  0  0  0  0  0  0  0  0  # atno 4302 bound_to 2510
   -2.6176  -18.2180   13.8374 LP  0  0  0  0  0  0  0  0  0  0  0  0  # atno 4306 bound_to 3712
   -3.2114  -17.0335   14.7919 LP  0  0  0  0  0  0  0  0  0  0  0  0  # atno 4307 bound_to 3712
    2.9457  -20.1701    8.2147 LP  0  0  0  0  0  0  0  0  0  0  0  0  # atno 4314 bound_to 3832
    2.4216  -21.1469    9.4138 LP  0  0  0  0  0  0  0  0  0  0  0  0  # atno 4315 bound_to 3832
   -3.9236  -23.1206   11.0187 LP  0  0  0  0  0  0  0  0  0  0  0  0  # atno 4318 bound_to 3762
   -5.2421  -22.8184   10.1038 LP  0  0  0  0  0  0  0  0  0  0  0  0  # atno 4319 bound_to 3762
   -5.1191   -4.9245    7.8067 LP  0  0  0  0  0  0  0  0  0  0  0  0  # atno 4320 bound_to 2467
   -3.6391   -5.0086    8.4918 LP  0  0  0  0  0  0  0  0  0  0  0  0  # atno 4321 bound_to 2467

> <Gold.Score>
     Score     S(PLP)   S(hbond)     S(cho)   S(metal)  DE(clash)   DE(tors)     intcor
     31.22     -31.45       0.00       0.00       0.00       0.00       0.12       0.00

> <Gold.PLP.Fitness>
31.2192

> <Gold.PLP.PLP>
-31.4504

> <Gold.PLP.part.hbond>
-0.9012

> <Gold.PLP.part.metal>
0.0000

> <Gold.PLP.part.buried>
-5.0563

> <Gold.PLP.part.nonpolar>
-26.5240

> <Gold.PLP.part.repulsive>
0.3692

> <Gold.PLP.ligand.clash>
0.0000

> <Gold.PLP.ligand.torsion>
0.1166

> <Gold.PLP.Chemscore.Hbond>
0.0000

> <Gold.PLP.Chemscore.CHOScore>
0.0000

> <Gold.PLP.Chemscore.Metal>
0.0000

> <Gold.PLP.Chemscore.Internal.Correction>
0.0021

