#       Name:                EN300-206926_i001
#       Creating user name   fsindt
#       Creation time:       Mon Feb 27 18:37:21 2023


#       File generated by GOLD software.
#

@<TRIPOS>MOLECULE
EN300-206926_i001|acide_3|mol2|420|dock7
    16    15     1
SMALL
USER_CHARGES


@<TRIPOS>ATOM
      1 C1           0.4545 -15.8456  12.3460 C.3            1 <1>                0.0000
      2 C2           0.1135 -14.7562  11.3622 C.2            1 <1>                0.0000
      3 O3           0.6238 -14.7513  10.2614 O.2            1 <1>                0.0000
      4 S4          -0.9943 -13.5257  11.7976 S.3            1 <1>                0.0000
      5 C5          -1.0091 -12.5600  10.2668 C.3            1 <1>                0.0000
      6 C6          -1.9287 -11.3490  10.4367 C.3            1 <1>                0.0000
      7 C7          -1.6003 -10.3179   9.3879 C.2            1 <1>                0.0000
      8 O8          -2.2664  -9.3002   9.3039 O.co2          1 <1>                0.0000
      9 O9          -0.6684 -10.5013   8.6233 O.co2          1 <1>               -1.0000
     10 H10          1.3118 -15.5387  12.9451 H              1 <1>                0.0000
     11 H11         -0.3993 -16.0259  12.9991 H              1 <1>                0.0000
     12 H12          0.6980 -16.7602  11.8053 H              1 <1>                0.0000
     13 H13          0.0018 -12.2199  10.0420 H              1 <1>                0.0000
     14 H14         -1.3738 -13.1813   9.4489 H              1 <1>                0.0000
     15 H15         -2.9667 -11.6625  10.3255 H              1 <1>                0.0000
     16 H16         -1.7833 -10.9186  11.4275 H              1 <1>                0.0000
@<TRIPOS>BOND
    1    1    2 1     
    2    1   10 1     
    3    1   11 1     
    4    1   12 1     
    5    2    3 2     
    6    2    4 1     
    7    4    5 1     
    8    5    6 1     
    9    5   13 1     
   10    5   14 1     
   11    6    7 1     
   12    6   15 1     
   13    6   16 1     
   14    7    8 ar    
   15    7    9 ar    
@<TRIPOS>SUBSTRUCTURE
      1 ****           1
@<TRIPOS>COMMENT
> <Gold.Version>
2022.2.0

> <Gold.Id.Protein>
3pbl|protein|mol2

> <Gold.Protein.RotatedTorsions>
[ 1303 1298 1297 1294 ] final -169.01 input  179.99 | X-H torsion
[ 2461 2456 2455 2452 ] final -110.63 input   30.03 | X-H torsion
[ 2515 2510 2509 2506 ] final  -77.56 input  -89.99 | X-H torsion
[ 3721 3712 3711 3710 ] final -113.30 input -179.91 | X-H torsion
[ 3841 3832 3831 3830 ] final -102.40 input -179.91 | X-H torsion
[ 3767 3762 3761 3758 ] final    8.22 input  -89.99 | X-H torsion
[ 2472 2467 2466 2463 ] final  150.28 input  -89.97 | X-H torsion

> <Gold.Protein.ActiveResidues>
 VAL82   VAL86   LEU89   PHE106  VAL107  ASP110  VAL111  MET112  CYS114  THR115 
 CYS181  SER182  ILE183  PHE188  VAL189  ILE190  SER192  SER193  SER196  TRP342 
 PHE345  PHE346  HIS349  VAL350  TYR365  THR369  GLY372  TYR373 

> <Gold.Protein.RotatedAtoms>
    4.7854   -8.7416    4.5809 H   0  0  0  0  0  0  0  0  0  0  0  0  # atno 1303 bound_to 1298
    0.4830   -9.1047    7.9513 H   0  0  0  0  0  0  0  0  0  0  0  0  # atno 2461 bound_to 2456
   -5.5070   -5.2483    8.5846 H   0  0  0  0  0  0  0  0  0  0  0  0  # atno 2472 bound_to 2467
    2.8352   -8.7665    4.4917 H   0  0  0  0  0  0  0  0  0  0  0  0  # atno 2515 bound_to 2510
   -3.1801  -16.7095   14.4830 H   0  0  0  0  0  0  0  0  0  0  0  0  # atno 3721 bound_to 3712
   -5.2431  -22.8165   10.1038 H   0  0  0  0  0  0  0  0  0  0  0  0  # atno 3767 bound_to 3762
    1.9948  -19.5835    8.5900 H   0  0  0  0  0  0  0  0  0  0  0  0  # atno 3841 bound_to 3832
    4.1596  -10.2427    4.7278 LP  0  0  0  0  0  0  0  0  0  0  0  0  # atno 4297 bound_to 1298
    3.4169   -9.1373    3.7828 LP  0  0  0  0  0  0  0  0  0  0  0  0  # atno 4298 bound_to 1298
    2.0655   -8.7566    8.1559 LP  0  0  0  0  0  0  0  0  0  0  0  0  # atno 4299 bound_to 2456
    1.1890   -7.9470    7.0411 LP  0  0  0  0  0  0  0  0  0  0  0  0  # atno 4300 bound_to 2456
    2.2113   -8.8235    5.9994 LP  0  0  0  0  0  0  0  0  0  0  0  0  # atno 4301 bound_to 2510
    2.2500   -7.4089    5.1846 LP  0  0  0  0  0  0  0  0  0  0  0  0  # atno 4302 bound_to 2510
   -3.2446  -17.2576   12.9753 LP  0  0  0  0  0  0  0  0  0  0  0  0  # atno 4306 bound_to 3712
   -2.6116  -18.1773   14.1669 LP  0  0  0  0  0  0  0  0  0  0  0  0  # atno 4307 bound_to 3712
    3.1252  -20.7229    8.5985 LP  0  0  0  0  0  0  0  0  0  0  0  0  # atno 4314 bound_to 3832
    1.7998  -20.8606    9.5424 LP  0  0  0  0  0  0  0  0  0  0  0  0  # atno 4315 bound_to 3832
   -4.9605  -21.9368   11.4503 LP  0  0  0  0  0  0  0  0  0  0  0  0  # atno 4318 bound_to 3762
   -3.9240  -23.1219   11.0168 LP  0  0  0  0  0  0  0  0  0  0  0  0  # atno 4319 bound_to 3762
   -4.1703   -4.8030    7.7593 LP  0  0  0  0  0  0  0  0  0  0  0  0  # atno 4320 bound_to 2467
   -4.0398   -5.3422    9.2952 LP  0  0  0  0  0  0  0  0  0  0  0  0  # atno 4321 bound_to 2467

> <Gold.Score>
     Score     S(PLP)   S(hbond)     S(cho)   S(metal)  DE(clash)   DE(tors)     intcor
     29.75     -26.95       1.00       0.00       0.00       0.00       0.10       0.00

> <Gold.PLP.Fitness>
29.7501

> <Gold.PLP.PLP>
-26.9481

> <Gold.PLP.part.hbond>
-2.0000

> <Gold.PLP.part.metal>
0.0000

> <Gold.PLP.part.buried>
-4.0132

> <Gold.PLP.part.nonpolar>
-22.1652

> <Gold.PLP.part.repulsive>
0.5383

> <Gold.PLP.ligand.clash>
0.0000

> <Gold.PLP.ligand.torsion>
0.1009

> <Gold.PLP.Chemscore.Hbond>
1.0000

> <Gold.PLP.Chemscore.CHOScore>
0.0000

> <Gold.PLP.Chemscore.Metal>
0.0000

> <Gold.Chemscore.Hbonds>
donor molecule, donor type, donor heavy atom, donor atom, acceptor molecule, acceptor atom, score
      P1  H  2456  2461       L1     9  1.00

> <Gold.PLP.Chemscore.Internal.Correction>
0.0038

