#       Name:                EN300-206926_i001
#       Creating user name   fsindt
#       Creation time:       Mon Feb 27 18:37:22 2023


#       File generated by GOLD software.
#

@<TRIPOS>MOLECULE
EN300-206926_i001|acide_3|mol2|420|dock8
    16    15     1
SMALL
USER_CHARGES


@<TRIPOS>ATOM
      1 C1          -3.9652 -10.1923  10.2242 C.3            1 <1>                0.0000
      2 C2          -2.6627 -10.9312  10.3933 C.2            1 <1>                0.0000
      3 O3          -1.9818 -10.7425  11.3796 O.2            1 <1>                0.0000
      4 S4          -2.1439 -12.0372   9.1938 S.3            1 <1>                0.0000
      5 C5          -0.5621 -12.5539   9.9058 C.3            1 <1>                0.0000
      6 C6           0.3163 -13.1609   8.8099 C.3            1 <1>                0.0000
      7 C7           0.7622 -12.0752   7.8647 C.2            1 <1>                0.0000
      8 O8           0.5019 -10.9094   8.1090 O.co2          1 <1>                0.0000
      9 O9           1.3832 -12.3625   6.8555 O.co2          1 <1>               -1.0000
     10 H10         -3.7855  -9.2552   9.6972 H              1 <1>                0.0000
     11 H11         -4.6588 -10.8055   9.6487 H              1 <1>                0.0000
     12 H12         -4.3933  -9.9817  11.2041 H              1 <1>                0.0000
     13 H13         -0.0584 -11.6892  10.3379 H              1 <1>                0.0000
     14 H14         -0.7391 -13.2973  10.6829 H              1 <1>                0.0000
     15 H15          1.1899 -13.6299   9.2625 H              1 <1>                0.0000
     16 H16         -0.2541 -13.9095   8.2602 H              1 <1>                0.0000
@<TRIPOS>BOND
    1    1    2 1     
    2    1   10 1     
    3    1   11 1     
    4    1   12 1     
    5    2    3 2     
    6    2    4 1     
    7    4    5 1     
    8    5    6 1     
    9    5   13 1     
   10    5   14 1     
   11    6    7 1     
   12    6   15 1     
   13    6   16 1     
   14    7    8 ar    
   15    7    9 ar    
@<TRIPOS>SUBSTRUCTURE
      1 ****           1
@<TRIPOS>COMMENT
> <Gold.Version>
2022.2.0

> <Gold.Id.Protein>
3pbl|protein|mol2

> <Gold.Protein.RotatedTorsions>
[ 1303 1298 1297 1294 ] final  -29.10 input  179.99 | X-H torsion
[ 2461 2456 2455 2452 ] final -151.30 input   30.03 | X-H torsion
[ 2515 2510 2509 2506 ] final  105.30 input  -89.99 | X-H torsion
[ 3721 3712 3711 3710 ] final   42.17 input -179.91 | X-H torsion
[ 3841 3832 3831 3830 ] final  -93.04 input -179.91 | X-H torsion
[ 3767 3762 3761 3758 ] final   75.77 input  -89.99 | X-H torsion
[ 2472 2467 2466 2463 ] final   49.93 input  -89.97 | X-H torsion

> <Gold.Protein.ActiveResidues>
 VAL82   VAL86   LEU89   PHE106  VAL107  ASP110  VAL111  MET112  CYS114  THR115 
 CYS181  SER182  ILE183  PHE188  VAL189  ILE190  SER192  SER193  SER196  TRP342 
 PHE345  PHE346  HIS349  VAL350  TYR365  THR369  GLY372  TYR373 

> <Gold.Protein.RotatedAtoms>
    3.3358   -9.4463    3.8470 H   0  0  0  0  0  0  0  0  0  0  0  0  # atno 1303 bound_to 1298
    0.9971   -9.2882    8.3140 H   0  0  0  0  0  0  0  0  0  0  0  0  # atno 2461 bound_to 2456
   -4.4785   -4.8045    7.6670 H   0  0  0  0  0  0  0  0  0  0  0  0  # atno 2472 bound_to 2467
    2.0288   -7.9409    5.9812 H   0  0  0  0  0  0  0  0  0  0  0  0  # atno 2515 bound_to 2510
   -2.5141  -18.0056   13.6217 H   0  0  0  0  0  0  0  0  0  0  0  0  # atno 3721 bound_to 3712
   -4.3597  -23.3304   10.3378 H   0  0  0  0  0  0  0  0  0  0  0  0  # atno 3767 bound_to 3762
    1.8852  -19.6045    8.6766 H   0  0  0  0  0  0  0  0  0  0  0  0  # atno 3841 bound_to 3832
    4.6001   -8.5621    4.3818 LP  0  0  0  0  0  0  0  0  0  0  0  0  # atno 4297 bound_to 1298
    4.4266  -10.1129    4.8630 LP  0  0  0  0  0  0  0  0  0  0  0  0  # atno 4298 bound_to 1298
    2.1331   -8.2839    7.7072 LP  0  0  0  0  0  0  0  0  0  0  0  0  # atno 4299 bound_to 2456
    0.6074   -8.2363    7.1271 LP  0  0  0  0  0  0  0  0  0  0  0  0  # atno 4300 bound_to 2456
    2.6359   -7.8040    4.4718 LP  0  0  0  0  0  0  0  0  0  0  0  0  # atno 4301 bound_to 2510
    2.6322   -9.2544    5.2219 LP  0  0  0  0  0  0  0  0  0  0  0  0  # atno 4302 bound_to 2510
   -3.1326  -17.1635   14.8407 LP  0  0  0  0  0  0  0  0  0  0  0  0  # atno 4306 bound_to 3712
   -3.4925  -16.7750   13.2959 LP  0  0  0  0  0  0  0  0  0  0  0  0  # atno 4307 bound_to 3712
    3.1256  -20.6066    8.4941 LP  0  0  0  0  0  0  0  0  0  0  0  0  # atno 4314 bound_to 3832
    1.9260  -20.9526    9.5467 LP  0  0  0  0  0  0  0  0  0  0  0  0  # atno 4315 bound_to 3832
   -5.5092  -22.1996   10.5967 LP  0  0  0  0  0  0  0  0  0  0  0  0  # atno 4318 bound_to 3762
   -4.2583  -22.3453   11.6363 LP  0  0  0  0  0  0  0  0  0  0  0  0  # atno 4319 bound_to 3762
   -3.8111   -5.2435    9.0911 LP  0  0  0  0  0  0  0  0  0  0  0  0  # atno 4320 bound_to 2467
   -5.4273   -5.3455    8.8809 LP  0  0  0  0  0  0  0  0  0  0  0  0  # atno 4321 bound_to 2467

> <Gold.Score>
     Score     S(PLP)   S(hbond)     S(cho)   S(metal)  DE(clash)   DE(tors)     intcor
     31.81     -29.11       1.00       0.00       0.00       0.00       0.15       0.00

> <Gold.PLP.Fitness>
31.8067

> <Gold.PLP.PLP>
-29.1074

> <Gold.PLP.part.hbond>
-1.0000

> <Gold.PLP.part.metal>
0.0000

> <Gold.PLP.part.buried>
-4.7097

> <Gold.PLP.part.nonpolar>
-24.2304

> <Gold.PLP.part.repulsive>
0.1332

> <Gold.PLP.ligand.clash>
0.0000

> <Gold.PLP.ligand.torsion>
0.1523

> <Gold.PLP.Chemscore.Hbond>
1.0000

> <Gold.PLP.Chemscore.CHOScore>
0.0000

> <Gold.PLP.Chemscore.Metal>
0.0000

> <Gold.Chemscore.Hbonds>
donor molecule, donor type, donor heavy atom, donor atom, acceptor molecule, acceptor atom, score
      P1  H  2456  2461       L1     8  1.00

> <Gold.PLP.Chemscore.Internal.Correction>
0.0038

