#       Name:                EN300-206926_i001
#       Creating user name   fsindt
#       Creation time:       Mon Feb 27 18:37:22 2023


#       File generated by GOLD software.
#

@<TRIPOS>MOLECULE
EN300-206926_i001|acide_3|mol2|420|dock9
    16    15     1
SMALL
USER_CHARGES


@<TRIPOS>ATOM
      1 C1          -4.4235 -10.4520  10.0654 C.3            1 <1>                0.0000
      2 C2          -2.9377 -10.2731   9.8882 C.2            1 <1>                0.0000
      3 O3          -2.5093  -9.3009   9.3022 O.2            1 <1>                0.0000
      4 S4          -1.8542 -11.4417  10.5139 S.3            1 <1>                0.0000
      5 C5          -1.0846 -12.0111   8.9778 C.3            1 <1>                0.0000
      6 C6           0.3153 -12.5505   9.2783 C.3            1 <1>                0.0000
      7 C7           0.8842 -13.1897   8.0377 C.2            1 <1>                0.0000
      8 O8           1.0589 -12.5216   7.0330 O.co2          1 <1>                0.0000
      9 O9           1.1697 -14.3750   8.0388 O.co2          1 <1>               -1.0000
     10 H10         -4.8255 -11.0110   9.2203 H              1 <1>                0.0000
     11 H11         -4.6162 -10.9997  10.9879 H              1 <1>                0.0000
     12 H12         -4.9037  -9.4748  10.1159 H              1 <1>                0.0000
     13 H13         -1.6923 -12.8021   8.5384 H              1 <1>                0.0000
     14 H14         -1.0107 -11.1785   8.2782 H              1 <1>                0.0000
     15 H15          0.9608 -11.7307   9.5932 H              1 <1>                0.0000
     16 H16          0.2555 -13.2924  10.0745 H              1 <1>                0.0000
@<TRIPOS>BOND
    1    1    2 1     
    2    1   10 1     
    3    1   11 1     
    4    1   12 1     
    5    2    3 2     
    6    2    4 1     
    7    4    5 1     
    8    5    6 1     
    9    5   13 1     
   10    5   14 1     
   11    6    7 1     
   12    6   15 1     
   13    6   16 1     
   14    7    8 ar    
   15    7    9 ar    
@<TRIPOS>SUBSTRUCTURE
      1 ****           1
@<TRIPOS>COMMENT
> <Gold.Version>
2022.2.0

> <Gold.Id.Protein>
3pbl|protein|mol2

> <Gold.Protein.RotatedTorsions>
[ 1303 1298 1297 1294 ] final   15.59 input  179.99 | X-H torsion
[ 2461 2456 2455 2452 ] final -156.77 input   30.03 | X-H torsion
[ 2515 2510 2509 2506 ] final   70.66 input  -89.99 | X-H torsion
[ 3721 3712 3711 3710 ] final  -33.87 input -179.91 | X-H torsion
[ 3841 3832 3831 3830 ] final  -42.83 input -179.91 | X-H torsion
[ 3767 3762 3761 3758 ] final -132.36 input  -89.99 | X-H torsion
[ 2472 2467 2466 2463 ] final   25.54 input  -89.97 | X-H torsion

> <Gold.Protein.ActiveResidues>
 VAL82   VAL86   LEU89   PHE106  VAL107  ASP110  VAL111  MET112  CYS114  THR115 
 CYS181  SER182  ILE183  PHE188  VAL189  ILE190  SER192  SER193  SER196  TRP342 
 PHE345  PHE346  HIS349  VAL350  TYR365  THR369  GLY372  TYR373 

> <Gold.Protein.RotatedAtoms>
    3.4922  -10.0549    4.1918 H   0  0  0  0  0  0  0  0  0  0  0  0  # atno 1303 bound_to 1298
    1.0823   -9.2877    8.3433 H   0  0  0  0  0  0  0  0  0  0  0  0  # atno 2461 bound_to 2456
   -4.1015   -4.8093    7.7956 H   0  0  0  0  0  0  0  0  0  0  0  0  # atno 2472 bound_to 2467
    2.1016   -7.5346    5.6011 H   0  0  0  0  0  0  0  0  0  0  0  0  # atno 2515 bound_to 2510
   -2.6249  -17.6566   14.6239 H   0  0  0  0  0  0  0  0  0  0  0  0  # atno 3721 bound_to 3712
   -4.6763  -22.0419   11.5974 H   0  0  0  0  0  0  0  0  0  0  0  0  # atno 3767 bound_to 3762
    1.5630  -19.9844    9.2164 H   0  0  0  0  0  0  0  0  0  0  0  0  # atno 3841 bound_to 3832
    4.0187   -8.5261    3.9638 LP  0  0  0  0  0  0  0  0  0  0  0  0  # atno 4297 bound_to 1298
    4.8515   -9.5401    4.9360 LP  0  0  0  0  0  0  0  0  0  0  0  0  # atno 4298 bound_to 1298
    2.1076   -8.2274    7.6419 LP  0  0  0  0  0  0  0  0  0  0  0  0  # atno 4299 bound_to 2456
    0.5478   -8.2932    7.1632 LP  0  0  0  0  0  0  0  0  0  0  0  0  # atno 4300 bound_to 2456
    2.7979   -8.3288    4.3561 LP  0  0  0  0  0  0  0  0  0  0  0  0  # atno 4301 bound_to 2510
    2.3974   -9.1361    5.7179 LP  0  0  0  0  0  0  0  0  0  0  0  0  # atno 4302 bound_to 2510
   -3.5622  -16.5557   13.9257 LP  0  0  0  0  0  0  0  0  0  0  0  0  # atno 4306 bound_to 3712
   -2.9349  -17.7858   13.0538 LP  0  0  0  0  0  0  0  0  0  0  0  0  # atno 4307 bound_to 3712
    2.7609  -19.9682    8.1484 LP  0  0  0  0  0  0  0  0  0  0  0  0  # atno 4314 bound_to 3832
    2.6630  -21.1520    9.2689 LP  0  0  0  0  0  0  0  0  0  0  0  0  # atno 4315 bound_to 3832
   -4.0314  -23.2687   10.7336 LP  0  0  0  0  0  0  0  0  0  0  0  0  # atno 4318 bound_to 3762
   -5.4196  -22.5642   10.2403 LP  0  0  0  0  0  0  0  0  0  0  0  0  # atno 4319 bound_to 3762
   -4.1052   -5.3626    9.3319 LP  0  0  0  0  0  0  0  0  0  0  0  0  # atno 4320 bound_to 2467
   -5.5101   -5.2215    8.5115 LP  0  0  0  0  0  0  0  0  0  0  0  0  # atno 4321 bound_to 2467

> <Gold.Score>
     Score     S(PLP)   S(hbond)     S(cho)   S(metal)  DE(clash)   DE(tors)     intcor
     33.49     -33.83       0.00       0.00       0.00       0.00       0.17       0.00

> <Gold.PLP.Fitness>
33.4949

> <Gold.PLP.PLP>
-33.8344

> <Gold.PLP.part.hbond>
-0.8984

> <Gold.PLP.part.metal>
0.0000

> <Gold.PLP.part.buried>
-4.8661

> <Gold.PLP.part.nonpolar>
-29.1271

> <Gold.PLP.part.repulsive>
0.8519

> <Gold.PLP.ligand.clash>
0.0000

> <Gold.PLP.ligand.torsion>
0.1717

> <Gold.PLP.Chemscore.Hbond>
0.0000

> <Gold.PLP.Chemscore.CHOScore>
0.0000

> <Gold.PLP.Chemscore.Metal>
0.0000

> <Gold.PLP.Chemscore.Internal.Correction>
0.0038

