#       Name:                EN300-206926_i001
#       Creating user name   fsindt
#       Creation time:       Mon Feb 27 18:37:29 2023


#       File generated by GOLD software.
#

@<TRIPOS>MOLECULE
EN300-206926_i001|acide_3|mol2|420|dock18
    16    15     1
SMALL
USER_CHARGES


@<TRIPOS>ATOM
      1 C1           1.9000 -16.2022  13.0154 C.3            1 <1>                0.0000
      2 C2           0.5853 -15.6190  13.4653 C.2            1 <1>                0.0000
      3 O3           0.2151 -15.7696  14.6109 O.2            1 <1>                0.0000
      4 S4          -0.3859 -14.7437  12.3600 S.3            1 <1>                0.0000
      5 C5           0.5617 -14.9982  10.8390 C.3            1 <1>                0.0000
      6 C6           0.1952 -13.9149   9.8225 C.3            1 <1>                0.0000
      7 C7           0.6181 -14.3552   8.4447 C.2            1 <1>                0.0000
      8 O8           1.3950 -13.6732   7.7985 O.co2          1 <1>                0.0000
      9 O9           0.1834 -15.3935   7.9762 O.co2          1 <1>               -1.0000
     10 H10          1.7392 -17.2122  12.6382 H              1 <1>                0.0000
     11 H11          2.3211 -15.5817  12.2243 H              1 <1>                0.0000
     12 H12          2.5904 -16.2347  13.8582 H              1 <1>                0.0000
     13 H13          1.6273 -14.9424  11.0612 H              1 <1>                0.0000
     14 H14          0.3277 -15.9790  10.4250 H              1 <1>                0.0000
     15 H15         -0.8825 -13.7525   9.8372 H              1 <1>                0.0000
     16 H16          0.7060 -12.9872  10.0803 H              1 <1>                0.0000
@<TRIPOS>BOND
    1    1    2 1     
    2    1   10 1     
    3    1   11 1     
    4    1   12 1     
    5    2    3 2     
    6    2    4 1     
    7    4    5 1     
    8    5    6 1     
    9    5   13 1     
   10    5   14 1     
   11    6    7 1     
   12    6   15 1     
   13    6   16 1     
   14    7    8 ar    
   15    7    9 ar    
@<TRIPOS>SUBSTRUCTURE
      1 ****           1
@<TRIPOS>COMMENT
> <Gold.Version>
2022.2.0

> <Gold.Id.Protein>
3pbl|protein|mol2

> <Gold.Protein.RotatedTorsions>
[ 1303 1298 1297 1294 ] final  140.38 input  179.99 | X-H torsion
[ 2461 2456 2455 2452 ] final   58.70 input   30.03 | X-H torsion
[ 2515 2510 2509 2506 ] final   45.46 input  -89.99 | X-H torsion
[ 3721 3712 3711 3710 ] final   81.06 input -179.91 | X-H torsion
[ 3841 3832 3831 3830 ] final   74.40 input -179.91 | X-H torsion
[ 3767 3762 3761 3758 ] final -156.94 input  -89.99 | X-H torsion
[ 2472 2467 2466 2463 ] final   16.72 input  -89.97 | X-H torsion

> <Gold.Protein.ActiveResidues>
 VAL82   VAL86   LEU89   PHE106  VAL107  ASP110  VAL111  MET112  CYS114  THR115 
 CYS181  SER182  ILE183  PHE188  VAL189  ILE190  SER192  SER193  SER196  TRP342 
 PHE345  PHE346  HIS349  VAL350  TYR365  THR369  GLY372  TYR373 

> <Gold.Protein.RotatedAtoms>
    4.8738   -9.4656    4.9233 H   0  0  0  0  0  0  0  0  0  0  0  0  # atno 1303 bound_to 1298
    1.9019   -8.0228    7.3657 H   0  0  0  0  0  0  0  0  0  0  0  0  # atno 2461 bound_to 2456
   -3.9828   -4.8256    7.8771 H   0  0  0  0  0  0  0  0  0  0  0  0  # atno 2472 bound_to 2467
    2.2315   -7.4122    5.2306 H   0  0  0  0  0  0  0  0  0  0  0  0  # atno 2515 bound_to 2510
   -2.7204  -17.7159   13.1677 H   0  0  0  0  0  0  0  0  0  0  0  0  # atno 3721 bound_to 3712
   -4.3457  -22.2640   11.6488 H   0  0  0  0  0  0  0  0  0  0  0  0  # atno 3767 bound_to 3762
    2.6599  -20.9563    9.4073 H   0  0  0  0  0  0  0  0  0  0  0  0  # atno 3841 bound_to 3832
    3.5347  -10.1017    4.2388 LP  0  0  0  0  0  0  0  0  0  0  0  0  # atno 4297 bound_to 1298
    3.9534   -8.5540    3.9293 LP  0  0  0  0  0  0  0  0  0  0  0  0  # atno 4298 bound_to 1298
    0.3651   -8.5753    7.3811 LP  0  0  0  0  0  0  0  0  0  0  0  0  # atno 4299 bound_to 2456
    1.4710   -9.2100    8.4012 LP  0  0  0  0  0  0  0  0  0  0  0  0  # atno 4300 bound_to 2456
    2.8359   -8.7231    4.4675 LP  0  0  0  0  0  0  0  0  0  0  0  0  # atno 4301 bound_to 2510
    2.2294   -8.8643    5.9771 LP  0  0  0  0  0  0  0  0  0  0  0  0  # atno 4302 bound_to 2510
   -2.8224  -17.7158   14.7701 LP  0  0  0  0  0  0  0  0  0  0  0  0  # atno 4306 bound_to 3712
   -3.5645  -16.5571   13.8906 LP  0  0  0  0  0  0  0  0  0  0  0  0  # atno 4307 bound_to 3712
    1.3981  -20.0314    9.0488 LP  0  0  0  0  0  0  0  0  0  0  0  0  # atno 4314 bound_to 3832
    2.7586  -19.9662    8.1480 LP  0  0  0  0  0  0  0  0  0  0  0  0  # atno 4315 bound_to 3832
   -4.2713  -23.3357   10.4188 LP  0  0  0  0  0  0  0  0  0  0  0  0  # atno 4318 bound_to 3762
   -5.5102  -22.2752   10.5038 LP  0  0  0  0  0  0  0  0  0  0  0  0  # atno 4319 bound_to 3762
   -4.2354   -5.3964    9.3860 LP  0  0  0  0  0  0  0  0  0  0  0  0  # atno 4320 bound_to 2467
   -5.4987   -5.1714    8.3760 LP  0  0  0  0  0  0  0  0  0  0  0  0  # atno 4321 bound_to 2467

> <Gold.Score>
     Score     S(PLP)   S(hbond)     S(cho)   S(metal)  DE(clash)   DE(tors)     intcor
     28.74     -26.17       1.00       0.00       0.00       0.00       0.21       0.00

> <Gold.PLP.Fitness>
28.7449

> <Gold.PLP.PLP>
-26.1654

> <Gold.PLP.part.hbond>
-1.0000

> <Gold.PLP.part.metal>
0.0000

> <Gold.PLP.part.buried>
-4.8229

> <Gold.PLP.part.nonpolar>
-20.7359

> <Gold.PLP.part.repulsive>
0.2994

> <Gold.PLP.ligand.clash>
0.0000

> <Gold.PLP.ligand.torsion>
0.2113

> <Gold.PLP.Chemscore.Hbond>
1.0000

> <Gold.PLP.Chemscore.CHOScore>
0.0000

> <Gold.PLP.Chemscore.Metal>
0.0000

> <Gold.Chemscore.Hbonds>
donor molecule, donor type, donor heavy atom, donor atom, acceptor molecule, acceptor atom, score
      P1  H  2305  2313       L1     3  1.00

> <Gold.PLP.Chemscore.Internal.Correction>
0.0021

