#       Name:                EN300-206926_i001
#       Creating user name   fsindt
#       Creation time:       Mon Feb 27 18:37:25 2023


#       File generated by GOLD software.
#

@<TRIPOS>MOLECULE
EN300-206926_i001|acide_3|mol2|420|dock13
    16    15     1
SMALL
USER_CHARGES


@<TRIPOS>ATOM
      1 C1          -0.9824 -11.6960  10.6006 C.3            1 <1>                0.0000
      2 C2           0.1278 -12.0724   9.6537 C.2            1 <1>                0.0000
      3 O3           0.5421 -11.2618   8.8517 O.2            1 <1>                0.0000
      4 S4           0.8045 -13.6441   9.7096 S.3            1 <1>                0.0000
      5 C5          -0.1426 -14.3454  11.0834 C.3            1 <1>                0.0000
      6 C6           0.7480 -15.2992  11.8823 C.3            1 <1>                0.0000
      7 C7          -0.0391 -15.8792  13.0292 C.2            1 <1>                0.0000
      8 O8          -0.9987 -16.5980  12.8082 O.co2          1 <1>                0.0000
      9 O9           0.2837 -15.6295  14.1780 O.co2          1 <1>               -1.0000
     10 H10         -1.9443 -11.9285  10.1436 H              1 <1>                0.0000
     11 H11         -0.8754 -12.2586  11.5281 H              1 <1>                0.0000
     12 H12         -0.9306 -10.6285  10.8151 H              1 <1>                0.0000
     13 H13         -0.4892 -13.5419  11.7333 H              1 <1>                0.0000
     14 H14         -1.0005 -14.8917  10.6917 H              1 <1>                0.0000
     15 H15          1.0916 -16.1047  11.2334 H              1 <1>                0.0000
     16 H16          1.6079 -14.7537  12.2708 H              1 <1>                0.0000
@<TRIPOS>BOND
    1    1    2 1     
    2    1   10 1     
    3    1   11 1     
    4    1   12 1     
    5    2    3 2     
    6    2    4 1     
    7    4    5 1     
    8    5    6 1     
    9    5   13 1     
   10    5   14 1     
   11    6    7 1     
   12    6   15 1     
   13    6   16 1     
   14    7    8 ar    
   15    7    9 ar    
@<TRIPOS>SUBSTRUCTURE
      1 ****           1
@<TRIPOS>COMMENT
> <Gold.Version>
2022.2.0

> <Gold.Id.Protein>
3pbl|protein|mol2

> <Gold.Protein.RotatedTorsions>
[ 1303 1298 1297 1294 ] final  -67.99 input  179.99 | X-H torsion
[ 2461 2456 2455 2452 ] final -153.80 input   30.03 | X-H torsion
[ 2515 2510 2509 2506 ] final -115.97 input  -89.99 | X-H torsion
[ 3721 3712 3711 3710 ] final   82.74 input -179.91 | X-H torsion
[ 3841 3832 3831 3830 ] final   12.44 input -179.91 | X-H torsion
[ 3767 3762 3761 3758 ] final  -39.56 input  -89.99 | X-H torsion
[ 2472 2467 2466 2463 ] final  -60.69 input  -89.97 | X-H torsion

> <Gold.Protein.ActiveResidues>
 VAL82   VAL86   LEU89   PHE106  VAL107  ASP110  VAL111  MET112  CYS114  THR115 
 CYS181  SER182  ILE183  PHE188  VAL189  ILE190  SER192  SER193  SER196  TRP342 
 PHE345  PHE346  HIS349  VAL350  TYR365  THR369  GLY372  TYR373 

> <Gold.Protein.RotatedAtoms>
    3.5727   -8.8682    3.7872 H   0  0  0  0  0  0  0  0  0  0  0  0  # atno 1303 bound_to 1298
    1.0359   -9.2888    8.3281 H   0  0  0  0  0  0  0  0  0  0  0  0  # atno 2461 bound_to 2456
   -3.7320   -5.1917    8.9695 H   0  0  0  0  0  0  0  0  0  0  0  0  # atno 2472 bound_to 2467
    2.7342   -9.1799    4.9425 H   0  0  0  0  0  0  0  0  0  0  0  0  # atno 2515 bound_to 2510
   -2.7321  -17.6977   13.1543 H   0  0  0  0  0  0  0  0  0  0  0  0  # atno 3721 bound_to 3712
   -5.5111  -22.2469   10.5361 H   0  0  0  0  0  0  0  0  0  0  0  0  # atno 3767 bound_to 3762
    1.8578  -20.6224    9.6050 H   0  0  0  0  0  0  0  0  0  0  0  0  # atno 3841 bound_to 3832
    4.8892   -8.9837    4.7463 LP  0  0  0  0  0  0  0  0  0  0  0  0  # atno 4297 bound_to 1298
    3.9005  -10.2697    4.5583 LP  0  0  0  0  0  0  0  0  0  0  0  0  # atno 4298 bound_to 1298
    2.1224   -8.2576    7.6773 LP  0  0  0  0  0  0  0  0  0  0  0  0  # atno 4299 bound_to 2456
    0.5794   -8.2620    7.1429 LP  0  0  0  0  0  0  0  0  0  0  0  0  # atno 4300 bound_to 2456
    2.0492   -8.2304    6.0804 LP  0  0  0  0  0  0  0  0  0  0  0  0  # atno 4301 bound_to 2510
    2.5132   -7.5885    4.6524 LP  0  0  0  0  0  0  0  0  0  0  0  0  # atno 4302 bound_to 2510
   -2.8107  -17.7381   14.7575 LP  0  0  0  0  0  0  0  0  0  0  0  0  # atno 4306 bound_to 3712
   -3.5627  -16.5559   13.9187 LP  0  0  0  0  0  0  0  0  0  0  0  0  # atno 4307 bound_to 3712
    1.9616  -19.6344    8.3444 LP  0  0  0  0  0  0  0  0  0  0  0  0  # atno 4314 bound_to 3832
    3.1218  -20.7490    8.6240 LP  0  0  0  0  0  0  0  0  0  0  0  0  # atno 4315 bound_to 3832
   -4.3141  -22.2928   11.6459 LP  0  0  0  0  0  0  0  0  0  0  0  0  # atno 4318 bound_to 3762
   -4.3025  -23.3352   10.3890 LP  0  0  0  0  0  0  0  0  0  0  0  0  # atno 4319 bound_to 3762
   -5.3530   -5.3841    9.0105 LP  0  0  0  0  0  0  0  0  0  0  0  0  # atno 4320 bound_to 2467
   -4.6318   -4.8177    7.6592 LP  0  0  0  0  0  0  0  0  0  0  0  0  # atno 4321 bound_to 2467

> <Gold.Score>
     Score     S(PLP)   S(hbond)     S(cho)   S(metal)  DE(clash)   DE(tors)     intcor
     32.59     -25.71       2.46       0.00       0.00       0.00       0.26       0.00

> <Gold.PLP.Fitness>
32.5921

> <Gold.PLP.PLP>
-25.7132

> <Gold.PLP.part.hbond>
-3.0000

> <Gold.PLP.part.metal>
0.0000

> <Gold.PLP.part.buried>
-4.1994

> <Gold.PLP.part.nonpolar>
-19.3299

> <Gold.PLP.part.repulsive>
0.1311

> <Gold.PLP.ligand.clash>
0.0000

> <Gold.PLP.ligand.torsion>
0.2576

> <Gold.PLP.Chemscore.Hbond>
2.4640

> <Gold.PLP.Chemscore.CHOScore>
0.0000

> <Gold.PLP.Chemscore.Metal>
0.0000

> <Gold.Chemscore.Hbonds>
donor molecule, donor type, donor heavy atom, donor atom, acceptor molecule, acceptor atom, score
      P1  H  2456  2461       L1     3  1.00
      P1  H  2305  2313       L1     9  1.00
      P1  H  3712  3721       L1     8  0.46

> <Gold.PLP.Chemscore.Internal.Correction>
0.0021

