#       Name:                EN300-206926_i001
#       Creating user name   fsindt
#       Creation time:       Mon Feb 27 18:37:19 2023


#       File generated by GOLD software.
#

@<TRIPOS>MOLECULE
EN300-206926_i001|acide_3|mol2|420|dock4
    16    15     1
SMALL
USER_CHARGES


@<TRIPOS>ATOM
      1 C1          -3.6142 -10.8109   9.8915 C.3            1 <1>                0.0000
      2 C2          -2.1980 -10.8880  10.4009 C.2            1 <1>                0.0000
      3 O3          -1.4671  -9.9239  10.3096 O.2            1 <1>                0.0000
      4 S4          -1.6206 -12.3359  11.1088 S.3            1 <1>                0.0000
      5 C5          -0.1628 -12.6306  10.0772 C.3            1 <1>                0.0000
      6 C6          -0.5903 -12.7520   8.6131 C.3            1 <1>                0.0000
      7 C7           0.5065 -12.2245   7.7243 C.2            1 <1>                0.0000
      8 O8           0.8822 -11.0704   7.8391 O.co2          1 <1>                0.0000
      9 O9           1.0180 -12.9520   6.8902 O.co2          1 <1>               -1.0000
     10 H10         -3.6414 -11.1181   8.8460 H              1 <1>                0.0000
     11 H11         -4.2490 -11.4724  10.4811 H              1 <1>                0.0000
     12 H12         -3.9765  -9.7866   9.9787 H              1 <1>                0.0000
     13 H13          0.5327 -11.7983  10.1849 H              1 <1>                0.0000
     14 H14          0.3239 -13.5539  10.3913 H              1 <1>                0.0000
     15 H15         -0.7789 -13.7987   8.3752 H              1 <1>                0.0000
     16 H16         -1.4994 -12.1729   8.4509 H              1 <1>                0.0000
@<TRIPOS>BOND
    1    1    2 1     
    2    1   10 1     
    3    1   11 1     
    4    1   12 1     
    5    2    3 2     
    6    2    4 1     
    7    4    5 1     
    8    5    6 1     
    9    5   13 1     
   10    5   14 1     
   11    6    7 1     
   12    6   15 1     
   13    6   16 1     
   14    7    8 ar    
   15    7    9 ar    
@<TRIPOS>SUBSTRUCTURE
      1 ****           1
@<TRIPOS>COMMENT
> <Gold.Version>
2022.2.0

> <Gold.Id.Protein>
3pbl|protein|mol2

> <Gold.Protein.RotatedTorsions>
[ 1303 1298 1297 1294 ] final   56.95 input  179.99 | X-H torsion
[ 2461 2456 2455 2452 ] final -147.33 input   30.03 | X-H torsion
[ 2515 2510 2509 2506 ] final -128.71 input  -89.99 | X-H torsion
[ 3721 3712 3711 3710 ] final   95.94 input -179.91 | X-H torsion
[ 3841 3832 3831 3830 ] final  -82.61 input -179.91 | X-H torsion
[ 3767 3762 3761 3758 ] final   -0.18 input  -89.99 | X-H torsion
[ 2472 2467 2466 2463 ] final -167.09 input  -89.97 | X-H torsion

> <Gold.Protein.ActiveResidues>
 VAL82   VAL86   LEU89   PHE106  VAL107  ASP110  VAL111  MET112  CYS114  THR115 
 CYS181  SER182  ILE183  PHE188  VAL189  ILE190  SER192  SER193  SER196  TRP342 
 PHE345  PHE346  HIS349  VAL350  TYR365  THR369  GLY372  TYR373 

> <Gold.Protein.RotatedAtoms>
    3.9666  -10.2717    4.6056 H   0  0  0  0  0  0  0  0  0  0  0  0  # atno 1303 bound_to 1298
    0.9368   -9.2847    8.2894 H   0  0  0  0  0  0  0  0  0  0  0  0  # atno 2461 bound_to 2456
   -5.2090   -5.4283    9.1751 H   0  0  0  0  0  0  0  0  0  0  0  0  # atno 2472 bound_to 2467
    2.6677   -9.2408    5.1311 H   0  0  0  0  0  0  0  0  0  0  0  0  # atno 2515 bound_to 2510
   -2.8277  -17.5435   13.0723 H   0  0  0  0  0  0  0  0  0  0  0  0  # atno 3721 bound_to 3712
   -5.3247  -22.7145   10.1484 H   0  0  0  0  0  0  0  0  0  0  0  0  # atno 3767 bound_to 3762
    1.7778  -19.6486    8.7827 H   0  0  0  0  0  0  0  0  0  0  0  0  # atno 3841 bound_to 3832
    3.5256   -8.9341    3.7795 LP  0  0  0  0  0  0  0  0  0  0  0  0  # atno 4297 bound_to 1298
    4.8700   -8.9152    4.7064 LP  0  0  0  0  0  0  0  0  0  0  0  0  # atno 4298 bound_to 1298
    2.1466   -8.3267    7.7547 LP  0  0  0  0  0  0  0  0  0  0  0  0  # atno 4299 bound_to 2456
    0.6543   -8.1970    7.1042 LP  0  0  0  0  0  0  0  0  0  0  0  0  # atno 4300 bound_to 2456
    2.0305   -8.0303    6.0225 LP  0  0  0  0  0  0  0  0  0  0  0  0  # atno 4301 bound_to 2510
    2.5984   -7.7276    4.5217 LP  0  0  0  0  0  0  0  0  0  0  0  0  # atno 4302 bound_to 2510
   -2.7284  -17.9010   14.6344 LP  0  0  0  0  0  0  0  0  0  0  0  0  # atno 4306 bound_to 3712
   -3.5347  -16.5711   14.1365 LP  0  0  0  0  0  0  0  0  0  0  0  0  # atno 4307 bound_to 3712
    3.0989  -20.4706    8.3889 LP  0  0  0  0  0  0  0  0  0  0  0  0  # atno 4314 bound_to 3832
    2.0769  -21.0376    9.5294 LP  0  0  0  0  0  0  0  0  0  0  0  0  # atno 4315 bound_to 3832
   -4.8466  -21.9699   11.5208 LP  0  0  0  0  0  0  0  0  0  0  0  0  # atno 4318 bound_to 3762
   -3.9563  -23.1907   10.9016 LP  0  0  0  0  0  0  0  0  0  0  0  0  # atno 4319 bound_to 3762
   -4.8503   -4.8527    7.6896 LP  0  0  0  0  0  0  0  0  0  0  0  0  # atno 4320 bound_to 2467
   -3.6578   -5.1125    8.7745 LP  0  0  0  0  0  0  0  0  0  0  0  0  # atno 4321 bound_to 2467

> <Gold.Score>
     Score     S(PLP)   S(hbond)     S(cho)   S(metal)  DE(clash)   DE(tors)     intcor
     33.32     -31.14       0.88       0.00       0.00       0.00       0.23       0.00

> <Gold.PLP.Fitness>
33.3216

> <Gold.PLP.PLP>
-31.1390

> <Gold.PLP.part.hbond>
-1.0000

> <Gold.PLP.part.metal>
0.0000

> <Gold.PLP.part.buried>
-4.7304

> <Gold.PLP.part.nonpolar>
-26.0493

> <Gold.PLP.part.repulsive>
0.1443

> <Gold.PLP.ligand.clash>
0.0000

> <Gold.PLP.ligand.torsion>
0.2312

> <Gold.PLP.Chemscore.Hbond>
0.8800

> <Gold.PLP.Chemscore.CHOScore>
0.0000

> <Gold.PLP.Chemscore.Metal>
0.0000

> <Gold.Chemscore.Hbonds>
donor molecule, donor type, donor heavy atom, donor atom, acceptor molecule, acceptor atom, score
      P1  H  2456  2461       L1     8  0.88

> <Gold.PLP.Chemscore.Internal.Correction>
0.0049

