#       Name:                EN300-206926_i001
#       Creating user name   fsindt
#       Creation time:       Mon Feb 27 18:37:26 2023


#       File generated by GOLD software.
#

@<TRIPOS>MOLECULE
EN300-206926_i001|acide_3|mol2|420|dock14
    16    15     1
SMALL
USER_CHARGES


@<TRIPOS>ATOM
      1 C1          -4.0024  -9.9076   9.9042 C.3            1 <1>                0.0000
      2 C2          -2.5881 -10.3348   9.6074 C.2            1 <1>                0.0000
      3 O3          -1.7222  -9.4995   9.4506 O.2            1 <1>                0.0000
      4 S4          -2.2029 -11.9990   9.4916 S.3            1 <1>                0.0000
      5 C5          -0.6807 -12.0381  10.4700 C.3            1 <1>                0.0000
      6 C6           0.4676 -12.5631   9.6058 C.3            1 <1>                0.0000
      7 C7           0.3544 -11.9884   8.2173 C.2            1 <1>                0.0000
      8 O8           0.1282 -10.8000   8.0659 O.co2          1 <1>                0.0000
      9 O9           0.4890 -12.7119   7.2452 O.co2          1 <1>               -1.0000
     10 H10         -4.5478  -9.7818   8.9688 H              1 <1>                0.0000
     11 H11         -4.4924 -10.6692  10.5108 H              1 <1>                0.0000
     12 H12         -3.9901  -8.9627  10.4474 H              1 <1>                0.0000
     13 H13         -0.4448 -11.0316  10.8154 H              1 <1>                0.0000
     14 H14         -0.8180 -12.6944  11.3294 H              1 <1>                0.0000
     15 H15          1.4192 -12.2652  10.0459 H              1 <1>                0.0000
     16 H16          0.4157 -13.6506   9.5543 H              1 <1>                0.0000
@<TRIPOS>BOND
    1    1    2 1     
    2    1   10 1     
    3    1   11 1     
    4    1   12 1     
    5    2    3 2     
    6    2    4 1     
    7    4    5 1     
    8    5    6 1     
    9    5   13 1     
   10    5   14 1     
   11    6    7 1     
   12    6   15 1     
   13    6   16 1     
   14    7    8 ar    
   15    7    9 ar    
@<TRIPOS>SUBSTRUCTURE
      1 ****           1
@<TRIPOS>COMMENT
> <Gold.Version>
2022.2.0

> <Gold.Id.Protein>
3pbl|protein|mol2

> <Gold.Protein.RotatedTorsions>
[ 1303 1298 1297 1294 ] final -101.39 input  179.99 | X-H torsion
[ 2461 2456 2455 2452 ] final -129.98 input   30.03 | X-H torsion
[ 2515 2510 2509 2506 ] final -129.05 input  -89.99 | X-H torsion
[ 3721 3712 3711 3710 ] final  -85.79 input -179.91 | X-H torsion
[ 3841 3832 3831 3830 ] final  -18.44 input -179.91 | X-H torsion
[ 3767 3762 3761 3758 ] final  -56.48 input  -89.99 | X-H torsion
[ 2472 2467 2466 2463 ] final   95.46 input  -89.97 | X-H torsion

> <Gold.Protein.ActiveResidues>
 VAL82   VAL86   LEU89   PHE106  VAL107  ASP110  VAL111  MET112  CYS114  THR115 
 CYS181  SER182  ILE183  PHE188  VAL189  ILE190  SER192  SER193  SER196  TRP342 
 PHE345  PHE346  HIS349  VAL350  TYR365  THR369  GLY372  TYR373 

> <Gold.Protein.RotatedAtoms>
    3.9772   -8.5430    3.9422 H   0  0  0  0  0  0  0  0  0  0  0  0  # atno 1303 bound_to 1298
    0.6938   -9.2313    8.1513 H   0  0  0  0  0  0  0  0  0  0  0  0  # atno 2461 bound_to 2456
   -5.1724   -4.9445    7.8436 H   0  0  0  0  0  0  0  0  0  0  0  0  # atno 2472 bound_to 2467
    2.6657   -9.2418    5.1363 H   0  0  0  0  0  0  0  0  0  0  0  0  # atno 2515 bound_to 2510
   -2.9939  -16.9995   14.7084 H   0  0  0  0  0  0  0  0  0  0  0  0  # atno 3721 bound_to 3712
   -5.4783  -22.0880   10.7612 H   0  0  0  0  0  0  0  0  0  0  0  0  # atno 3767 bound_to 3762
    1.6115  -20.2689    9.4410 H   0  0  0  0  0  0  0  0  0  0  0  0  # atno 3841 bound_to 3832
    4.8664   -9.4934    4.9283 LP  0  0  0  0  0  0  0  0  0  0  0  0  # atno 4297 bound_to 1298
    3.5186  -10.0852    4.2213 LP  0  0  0  0  0  0  0  0  0  0  0  0  # atno 4298 bound_to 1298
    2.1542   -8.5265    7.9570 LP  0  0  0  0  0  0  0  0  0  0  0  0  # atno 4299 bound_to 2456
    0.8896   -8.0505    7.0400 LP  0  0  0  0  0  0  0  0  0  0  0  0  # atno 4300 bound_to 2456
    2.0303   -8.0251    6.0204 LP  0  0  0  0  0  0  0  0  0  0  0  0  # atno 4301 bound_to 2510
    2.6006   -7.7319    4.5186 LP  0  0  0  0  0  0  0  0  0  0  0  0  # atno 4302 bound_to 2510
   -3.4363  -16.8929   13.1686 LP  0  0  0  0  0  0  0  0  0  0  0  0  # atno 4306 bound_to 3712
   -2.6348  -18.2072   13.7133 LP  0  0  0  0  0  0  0  0  0  0  0  0  # atno 4307 bound_to 3712
    2.4230  -19.7462    8.1588 LP  0  0  0  0  0  0  0  0  0  0  0  0  # atno 4314 bound_to 3832
    2.9448  -21.0455    8.9991 LP  0  0  0  0  0  0  0  0  0  0  0  0  # atno 4315 bound_to 3832
   -4.1280  -22.4901   11.5870 LP  0  0  0  0  0  0  0  0  0  0  0  0  # atno 4318 bound_to 3762
   -4.5214  -23.2968   10.2228 LP  0  0  0  0  0  0  0  0  0  0  0  0  # atno 4319 bound_to 3762
   -3.6482   -4.9866    8.4280 LP  0  0  0  0  0  0  0  0  0  0  0  0  # atno 4320 bound_to 2467
   -4.8964   -5.4624    9.3674 LP  0  0  0  0  0  0  0  0  0  0  0  0  # atno 4321 bound_to 2467

> <Gold.Score>
     Score     S(PLP)   S(hbond)     S(cho)   S(metal)  DE(clash)   DE(tors)     intcor
     30.77     -29.42       1.00       0.00       0.00       0.00       0.83       0.00

> <Gold.PLP.Fitness>
30.7715

> <Gold.PLP.PLP>
-29.4246

> <Gold.PLP.part.hbond>
-1.2114

> <Gold.PLP.part.metal>
0.0000

> <Gold.PLP.part.buried>
-4.0391

> <Gold.PLP.part.nonpolar>
-24.9137

> <Gold.PLP.part.repulsive>
0.1210

> <Gold.PLP.ligand.clash>
0.0000

> <Gold.PLP.ligand.torsion>
0.8276

> <Gold.PLP.Chemscore.Hbond>
1.0000

> <Gold.PLP.Chemscore.CHOScore>
0.0000

> <Gold.PLP.Chemscore.Metal>
0.0000

> <Gold.Chemscore.Hbonds>
donor molecule, donor type, donor heavy atom, donor atom, acceptor molecule, acceptor atom, score
      P1  H  2456  2461       L1     8  1.00

> <Gold.PLP.Chemscore.Internal.Correction>
0.0021

