#       Name:                plp ligand
#       Creating user name   fsindt
#       Creation time:       Mon Feb 27 18:37:16 2023


#       File generated by GOLD software.
#

@<TRIPOS>MOLECULE
plp ligand
    16    15     1
SMALL
USER_CHARGES


@<TRIPOS>ATOM
      1 C1           3.3970  -0.0498  -0.0001 NONPOLAR       1 <1>                0.0000
      2 C2           1.9416   0.3411   0.0000 NONPOLAR       1 <1>                0.0000
      3 O3           1.6282   1.5132  -0.0001 ACCEPTOR       1 <1>                0.0000
      4 S4           0.7303  -0.8688   0.0000 NONPOLAR       1 <1>                0.0000
      5 C5          -0.7518   0.1702   0.0000 NONPOLAR       1 <1>                0.0000
      6 C6          -1.9974  -0.7183   0.0000 NONPOLAR       1 <1>                0.0000
      7 C7          -3.2314   0.1468   0.0000 NONPOLAR       1 <1>                0.0000
      8 O8          -3.1245   1.3613   0.0000 ACCEPTOR       1 <1>                0.0000
      9 O9          -4.3367  -0.3678   0.0001 ACCEPTOR       1 <1>               -1.0000
     10 H10          3.7479  -0.1440   1.0276                1 <1>                0.0000
     11 H11          3.5171  -1.0036  -0.5139                1 <1>                0.0000
     12 H12          3.9787   0.7155  -0.5139                1 <1>                0.0000
     13 H13         -0.7543   0.7995   0.8900                1 <1>                0.0000
     14 H14         -0.7543   0.7994  -0.8900                1 <1>                0.0000
     15 H15         -1.9949  -1.3476  -0.8899                1 <1>                0.0000
     16 H16         -1.9948  -1.3475   0.8900                1 <1>                0.0000
@<TRIPOS>BOND
    1    1    2 1     
    2    1   10 1     
    3    1   11 1     
    4    1   12 1     
    5    2    3 2     
    6    2    4 1     
    7    4    5 1     
    8    5    6 1     
    9    5   13 1     
   10    5   14 1     
   11    6    7 1     
   12    6   15 1     
   13    6   16 1     
   14    7    8 ar    
   15    7    9 ar    
@<TRIPOS>SUBSTRUCTURE
      1 ****           1
@<TRIPOS>SET
DONOR_HYDROGENS      STATIC     ATOMS    <user>   **** ""
0
ATOM$RED        STATIC     ATOMS    COLORGROUP SYSTEM
0
