#       Name:                EN300-126720_i001
#       Creating user name   aseyller
#       Creation time:       Fri Apr 21 16:29:22 2023


#       File generated by GOLD software.
#

@<TRIPOS>MOLECULE
EN300-126720_i001|aminophenols|mol2|30|dock19
    20    20     1
SMALL
USER_CHARGES


@<TRIPOS>ATOM
      1 C1          31.2830  36.9533  37.8529 C.3            1 <1>                0.0000
      2 C2          29.8648  37.4470  37.7272 C.2            1 <1>                0.0000
      3 O3          29.5623  38.1997  36.8253 O.2            1 <1>                0.0000
      4 C4          28.8488  37.0169  38.6966 C.ar           1 <1>                0.0000
      5 C5          29.2258  36.2926  39.8339 C.ar           1 <1>                0.0000
      6 C6          28.2718  35.8905  40.7420 C.ar           1 <1>                0.0000
      7 C7          26.9346  36.2013  40.5339 C.ar           1 <1>                0.0000
      8 O8          25.9990  35.8020  41.4331 O.3            1 <1>                0.0000
      9 C9          26.5495  36.9237  39.4027 C.ar           1 <1>                0.0000
     10 N10         25.2004  37.2357  39.1971 N.pl3          1 <1>                0.0000
     11 C11         27.5011  37.3352  38.4889 C.ar           1 <1>                0.0000
     12 H12         31.8875  37.3761  37.0505 H              1 <1>                0.0000
     13 H13         31.6908  37.2609  38.8158 H              1 <1>                0.0000
     14 H14         31.2965  35.8656  37.7834 H              1 <1>                0.0000
     15 H15         30.2650  36.0489  39.9988 H              1 <1>                0.0000
     16 H16         28.5646  35.3316  41.6185 H              1 <1>                0.0000
     17 H17         27.2053  37.8940  37.6134 H              1 <1>                0.0000
     18 H18         26.3588  35.3059  42.1810 H              1 <1>                0.0000
     19 H19         24.5330  36.9500  39.8405 H              1 <1>                0.0000
     20 H20         24.9330  37.7376  38.4113 H              1 <1>                0.0000
@<TRIPOS>BOND
    1    1    2 1     
    2    1   12 1     
    3    1   13 1     
    4    1   14 1     
    5    2    3 2     
    6    2    4 1     
    7    4    5 ar    
    8    4   11 ar    
    9    5    6 ar    
   10    5   15 1     
   11    6    7 ar    
   12    6   16 1     
   13    7    8 1     
   14    7    9 ar    
   15    8   18 1     
   16    9   10 1     
   17    9   11 ar    
   18   10   19 1     
   19   10   20 1     
   20   11   17 1     
@<TRIPOS>SUBSTRUCTURE
      1 ****           1
@<TRIPOS>SET
DONOR_HYDROGENS      STATIC     ATOMS    <user>   **** ""
3 18 19 20
ATOM$RED        STATIC     ATOMS    COLORGROUP SYSTEM
3 18 19 20
@<TRIPOS>COMMENT
> <Gold.Version>
2022.2.0

> <Gold.Id.Protein>
1qkm|1qkm_protein|mol2

> <Gold.Protein.RotatedTorsions>
[  496  491  490  487 ] final  133.51 input  -89.99 | X-H torsion

> <Gold.Protein.ActiveResidues>
 MET295  LEU298  THR299  LEU301  ALA302  GLU305  TRP335  MET336  LEU339  MET340 
 GLY342  LEU343  ARG346  PHE356  ILE373  ILE376  PHE377  LEU380  LYS471  GLY472 
 MET473  HIS475  LEU476  LEU477  ASN478  MET479  VAL484  VAL487 

> <Gold.Protein.RotatedAtoms>
   37.1759   32.9872   41.4233 H   0  0  0  0  0  0  0  0  0  0  0  0  # atno 496  bound_to 491 

> <Gold.Score>
     Score     S(PLP)   S(hbond)     S(cho)   S(metal)  DE(clash)   DE(tors)     intcor
     38.26     -34.49       1.28       0.00       0.00       0.00       0.03       0.00

> <Gold.PLP.Fitness>
38.2557

> <Gold.PLP.PLP>
-34.4899

> <Gold.PLP.part.hbond>
-2.0000

> <Gold.PLP.part.metal>
0.0000

> <Gold.PLP.part.buried>
-3.6074

> <Gold.PLP.part.nonpolar>
-29.8790

> <Gold.PLP.part.repulsive>
0.1107

> <Gold.PLP.ligand.clash>
0.0000

> <Gold.PLP.ligand.torsion>
0.0310

> <Gold.PLP.Chemscore.Hbond>
1.2759

> <Gold.PLP.Chemscore.CHOScore>
0.0000

> <Gold.PLP.Chemscore.Metal>
0.0000

> <Gold.Chemscore.Hbonds>
donor molecule, donor type, donor heavy atom, donor atom, acceptor molecule, acceptor atom, score
      L1  H     8    18       P1   582  0.96
      L1  H    10    19       P1  1131  0.32

> <Gold.PLP.Chemscore.Internal.Correction>
0.0000

