#       Name:                EN300-126720_i001
#       Creating user name   aseyller
#       Creation time:       Fri Apr 21 16:29:19 2023


#       File generated by GOLD software.
#

@<TRIPOS>MOLECULE
EN300-126720_i001|aminophenols|mol2|30|dock14
    20    20     1
SMALL
USER_CHARGES


@<TRIPOS>ATOM
      1 C1          29.8309  38.0746  37.1994 C.3            1 <1>                0.0000
      2 C2          29.9712  37.0087  38.2555 C.2            1 <1>                0.0000
      3 O3          31.0198  36.4116  38.3791 O.2            1 <1>                0.0000
      4 C4          28.8382  36.6928  39.1350 C.ar           1 <1>                0.0000
      5 C5          29.0433  35.9523  40.3054 C.ar           1 <1>                0.0000
      6 C6          27.9798  35.6573  41.1291 C.ar           1 <1>                0.0000
      7 C7          26.7021  36.0924  40.8029 C.ar           1 <1>                0.0000
      8 O8          25.6579  35.7984  41.6193 O.3            1 <1>                0.0000
      9 C9          26.4884  36.8320  39.6379 C.ar           1 <1>                0.0000
     10 N10         25.1988  37.2695  39.3132 N.pl3          1 <1>                0.0000
     11 C11         27.5509  37.1364  38.8083 C.ar           1 <1>                0.0000
     12 H12         30.7677  38.1671  36.6499 H              1 <1>                0.0000
     13 H13         29.0314  37.8010  36.5110 H              1 <1>                0.0000
     14 H14         29.5922  39.0266  37.6736 H              1 <1>                0.0000
     15 H15         30.0356  35.6120  40.5620 H              1 <1>                0.0000
     16 H16         28.1399  35.0857  42.0313 H              1 <1>                0.0000
     17 H17         27.3876  37.7082  37.9068 H              1 <1>                0.0000
     18 H18         25.9195  35.5173  42.5067 H              1 <1>                0.0000
     19 H19         24.4538  37.0589  39.8975 H              1 <1>                0.0000
     20 H20         25.0505  37.7832  38.5039 H              1 <1>                0.0000
@<TRIPOS>BOND
    1    1    2 1     
    2    1   12 1     
    3    1   13 1     
    4    1   14 1     
    5    2    3 2     
    6    2    4 1     
    7    4    5 ar    
    8    4   11 ar    
    9    5    6 ar    
   10    5   15 1     
   11    6    7 ar    
   12    6   16 1     
   13    7    8 1     
   14    7    9 ar    
   15    8   18 1     
   16    9   10 1     
   17    9   11 ar    
   18   10   19 1     
   19   10   20 1     
   20   11   17 1     
@<TRIPOS>SUBSTRUCTURE
      1 ****           1
@<TRIPOS>SET
DONOR_HYDROGENS      STATIC     ATOMS    <user>   **** ""
3 18 19 20
ATOM$RED        STATIC     ATOMS    COLORGROUP SYSTEM
3 18 19 20
@<TRIPOS>COMMENT
> <Gold.Version>
2022.2.0

> <Gold.Id.Protein>
1qkm|1qkm_protein|mol2

> <Gold.Protein.RotatedTorsions>
[  496  491  490  487 ] final   48.12 input  -89.99 | X-H torsion

> <Gold.Protein.ActiveResidues>
 MET295  LEU298  THR299  LEU301  ALA302  GLU305  TRP335  MET336  LEU339  MET340 
 GLY342  LEU343  ARG346  PHE356  ILE373  ILE376  PHE377  LEU380  LYS471  GLY472 
 MET473  HIS475  LEU476  LEU477  ASN478  MET479  VAL484  VAL487 

> <Gold.Protein.RotatedAtoms>
   36.4590   33.4813   42.3603 H   0  0  0  0  0  0  0  0  0  0  0  0  # atno 496  bound_to 491 

> <Gold.Score>
     Score     S(PLP)   S(hbond)     S(cho)   S(metal)  DE(clash)   DE(tors)     intcor
     39.56     -35.73       1.35       0.00       0.00       0.00       0.10       0.00

> <Gold.PLP.Fitness>
39.5640

> <Gold.PLP.PLP>
-35.7287

> <Gold.PLP.part.hbond>
-1.9724

> <Gold.PLP.part.metal>
0.0000

> <Gold.PLP.part.buried>
-3.7953

> <Gold.PLP.part.nonpolar>
-31.2657

> <Gold.PLP.part.repulsive>
0.1682

> <Gold.PLP.ligand.clash>
0.0000

> <Gold.PLP.ligand.torsion>
0.1026

> <Gold.PLP.Chemscore.Hbond>
1.3468

> <Gold.PLP.Chemscore.CHOScore>
0.0000

> <Gold.PLP.Chemscore.Metal>
0.0000

> <Gold.Chemscore.Hbonds>
donor molecule, donor type, donor heavy atom, donor atom, acceptor molecule, acceptor atom, score
      L1  H     8    18       P1   582  1.00
      L1  H    10    19       P1  1131  0.35

> <Gold.PLP.Chemscore.Internal.Correction>
0.0000

