#       Name:                EN300-126720_i001
#       Creating user name   aseyller
#       Creation time:       Fri Apr 21 16:29:17 2023


#       File generated by GOLD software.
#

@<TRIPOS>MOLECULE
EN300-126720_i001|aminophenols|mol2|30|dock10
    20    20     1
SMALL
USER_CHARGES


@<TRIPOS>ATOM
      1 C1          26.9428  38.8611  37.2879 C.3            1 <1>                0.0000
      2 C2          28.0430  37.8842  37.6140 C.2            1 <1>                0.0000
      3 O3          28.9633  37.7266  36.8397 O.2            1 <1>                0.0000
      4 C4          28.0008  37.1230  38.8693 C.ar           1 <1>                0.0000
      5 C5          29.1608  36.5095  39.3575 C.ar           1 <1>                0.0000
      6 C6          29.1195  35.7965  40.5349 C.ar           1 <1>                0.0000
      7 C7          27.9294  35.6832  41.2414 C.ar           1 <1>                0.0000
      8 O8          27.8954  34.9789  42.4017 O.3            1 <1>                0.0000
      9 C9          26.7678  36.2921  40.7623 C.ar           1 <1>                0.0000
     10 N10         25.5703  36.1763  41.4781 N.pl3          1 <1>                0.0000
     11 C11         26.8017  37.0136  39.5840 C.ar           1 <1>                0.0000
     12 H12         27.1446  39.3270  36.3234 H              1 <1>                0.0000
     13 H13         25.9899  38.3338  37.2443 H              1 <1>                0.0000
     14 H14         26.8981  39.6290  38.0601 H              1 <1>                0.0000
     15 H15         30.0880  36.5953  38.8105 H              1 <1>                0.0000
     16 H16         30.0152  35.3237  40.9097 H              1 <1>                0.0000
     17 H17         25.9043  37.4852  39.2117 H              1 <1>                0.0000
     18 H18         27.1004  34.4395  42.5112 H              1 <1>                0.0000
     19 H19         25.5475  35.6730  42.3069 H              1 <1>                0.0000
     20 H20         24.7634  36.5993  41.1451 H              1 <1>                0.0000
@<TRIPOS>BOND
    1    1    2 1     
    2    1   12 1     
    3    1   13 1     
    4    1   14 1     
    5    2    3 2     
    6    2    4 1     
    7    4    5 ar    
    8    4   11 ar    
    9    5    6 ar    
   10    5   15 1     
   11    6    7 ar    
   12    6   16 1     
   13    7    8 1     
   14    7    9 ar    
   15    8   18 1     
   16    9   10 1     
   17    9   11 ar    
   18   10   19 1     
   19   10   20 1     
   20   11   17 1     
@<TRIPOS>SUBSTRUCTURE
      1 ****           1
@<TRIPOS>SET
DONOR_HYDROGENS      STATIC     ATOMS    <user>   **** ""
3 18 19 20
ATOM$RED        STATIC     ATOMS    COLORGROUP SYSTEM
3 18 19 20
@<TRIPOS>COMMENT
> <Gold.Version>
2022.2.0

> <Gold.Id.Protein>
1qkm|1qkm_protein|mol2

> <Gold.Protein.RotatedTorsions>
[  496  491  490  487 ] final   89.45 input  -89.99 | X-H torsion

> <Gold.Protein.ActiveResidues>
 MET295  LEU298  THR299  LEU301  ALA302  GLU305  TRP335  MET336  LEU339  MET340 
 GLY342  LEU343  ARG346  PHE356  ILE373  ILE376  PHE377  LEU380  LYS471  GLY472 
 MET473  HIS475  LEU476  LEU477  ASN478  MET479  VAL484  VAL487 

> <Gold.Protein.RotatedAtoms>
   36.8152   33.0256   42.0307 H   0  0  0  0  0  0  0  0  0  0  0  0  # atno 496  bound_to 491 

> <Gold.Score>
     Score     S(PLP)   S(hbond)     S(cho)   S(metal)  DE(clash)   DE(tors)     intcor
     38.75     -34.49       1.51       0.00       0.00       0.00       0.14       0.00

> <Gold.PLP.Fitness>
38.7462

> <Gold.PLP.PLP>
-34.4863

> <Gold.PLP.part.hbond>
-2.0323

> <Gold.PLP.part.metal>
0.0000

> <Gold.PLP.part.buried>
-2.4111

> <Gold.PLP.part.nonpolar>
-30.4050

> <Gold.PLP.part.repulsive>
0.0901

> <Gold.PLP.ligand.clash>
0.0000

> <Gold.PLP.ligand.torsion>
0.1381

> <Gold.PLP.Chemscore.Hbond>
1.5120

> <Gold.PLP.Chemscore.CHOScore>
0.0000

> <Gold.PLP.Chemscore.Metal>
0.0000

> <Gold.Chemscore.Hbonds>
donor molecule, donor type, donor heavy atom, donor atom, acceptor molecule, acceptor atom, score
      L1  H     8    18       P1   582  0.51
      L1  H    10    19       P1   582  1.00

> <Gold.PLP.Chemscore.Internal.Correction>
0.0000

