#       Name:                EN300-126720_i001
#       Creating user name   aseyller
#       Creation time:       Fri Apr 21 16:29:19 2023


#       File generated by GOLD software.
#

@<TRIPOS>MOLECULE
EN300-126720_i001|aminophenols|mol2|30|dock13
    20    20     1
SMALL
USER_CHARGES


@<TRIPOS>ATOM
      1 C1          33.1268  36.9754  34.8375 C.3            1 <1>                0.0000
      2 C2          31.9481  37.7134  35.4178 C.2            1 <1>                0.0000
      3 O3          31.4800  38.6660  34.8307 O.2            1 <1>                0.0000
      4 C4          31.3660  37.2792  36.6944 C.ar           1 <1>                0.0000
      5 C5          30.3151  38.0040  37.2694 C.ar           1 <1>                0.0000
      6 C6          29.7703  37.5952  38.4663 C.ar           1 <1>                0.0000
      7 C7          30.2600  36.4646  39.1066 C.ar           1 <1>                0.0000
      8 O8          29.7184  36.0668  40.2863 O.3            1 <1>                0.0000
      9 C9          31.3075  35.7353  38.5402 C.ar           1 <1>                0.0000
     10 N10         31.7977  34.5955  39.1886 N.pl3          1 <1>                0.0000
     11 C11         31.8567  36.1360  37.3370 C.ar           1 <1>                0.0000
     12 H12         33.4173  37.4388  33.8947 H              1 <1>                0.0000
     13 H13         33.9623  37.0186  35.5361 H              1 <1>                0.0000
     14 H14         32.8535  35.9349  34.6619 H              1 <1>                0.0000
     15 H15         29.9320  38.8841  36.7743 H              1 <1>                0.0000
     16 H16         28.9600  38.1558  38.9083 H              1 <1>                0.0000
     17 H17         32.6669  35.5733  36.8974 H              1 <1>                0.0000
     18 H18         30.3511  35.6550  40.8905 H              1 <1>                0.0000
     19 H19         31.4097  34.3123  40.0312 H              1 <1>                0.0000
     20 H20         32.5253  34.0890  38.7950 H              1 <1>                0.0000
@<TRIPOS>BOND
    1    1    2 1     
    2    1   12 1     
    3    1   13 1     
    4    1   14 1     
    5    2    3 2     
    6    2    4 1     
    7    4    5 ar    
    8    4   11 ar    
    9    5    6 ar    
   10    5   15 1     
   11    6    7 ar    
   12    6   16 1     
   13    7    8 1     
   14    7    9 ar    
   15    8   18 1     
   16    9   10 1     
   17    9   11 ar    
   18   10   19 1     
   19   10   20 1     
   20   11   17 1     
@<TRIPOS>SUBSTRUCTURE
      1 ****           1
@<TRIPOS>SET
DONOR_HYDROGENS      STATIC     ATOMS    <user>   **** ""
3 18 19 20
ATOM$RED        STATIC     ATOMS    COLORGROUP SYSTEM
3 18 19 20
@<TRIPOS>COMMENT
> <Gold.Version>
2022.2.0

> <Gold.Id.Protein>
1qkm|1qkm_protein|mol2

> <Gold.Protein.RotatedTorsions>
[  496  491  490  487 ] final  -73.71 input  -89.99 | X-H torsion

> <Gold.Protein.ActiveResidues>
 MET295  LEU298  THR299  LEU301  ALA302  GLU305  TRP335  MET336  LEU339  MET340 
 GLY342  LEU343  ARG346  PHE356  ILE373  ILE376  PHE377  LEU380  LYS471  GLY472 
 MET473  HIS475  LEU476  LEU477  ASN478  MET479  VAL484  VAL487 

> <Gold.Protein.RotatedAtoms>
   36.6102   34.7260   41.2902 H   0  0  0  0  0  0  0  0  0  0  0  0  # atno 496  bound_to 491 

> <Gold.Score>
     Score     S(PLP)   S(hbond)     S(cho)   S(metal)  DE(clash)   DE(tors)     intcor
     37.40     -33.51       1.30       0.00       0.00       0.00       0.01       0.00

> <Gold.PLP.Fitness>
37.3993

> <Gold.PLP.PLP>
-33.5086

> <Gold.PLP.part.hbond>
-2.0000

> <Gold.PLP.part.metal>
0.0000

> <Gold.PLP.part.buried>
-3.1516

> <Gold.PLP.part.nonpolar>
-28.1155

> <Gold.PLP.part.repulsive>
0.1414

> <Gold.PLP.ligand.clash>
0.0000

> <Gold.PLP.ligand.torsion>
0.0051

> <Gold.PLP.Chemscore.Hbond>
1.3003

> <Gold.PLP.Chemscore.CHOScore>
0.0000

> <Gold.PLP.Chemscore.Metal>
0.0000

> <Gold.Chemscore.Hbonds>
donor molecule, donor type, donor heavy atom, donor atom, acceptor molecule, acceptor atom, score
      L1  H     8    18       P1   470  1.00
      L1  H    10    19       P1   470  0.30

> <Gold.PLP.Chemscore.Internal.Correction>
0.0000

