#       Name:                EN300-126720_i001
#       Creating user name   aseyller
#       Creation time:       Fri Apr 21 16:29:14 2023


#       File generated by GOLD software.
#

@<TRIPOS>MOLECULE
EN300-126720_i001|aminophenols|mol2|30|dock4
    20    20     1
SMALL
USER_CHARGES


@<TRIPOS>ATOM
      1 C1          29.5227  37.4457  36.7016 C.3            1 <1>                0.0000
      2 C2          29.7359  36.9291  38.1012 C.2            1 <1>                0.0000
      3 O3          30.8581  36.6915  38.4956 O.2            1 <1>                0.0000
      4 C4          28.5850  36.7132  38.9875 C.ar           1 <1>                0.0000
      5 C5          27.2913  37.0127  38.5438 C.ar           1 <1>                0.0000
      6 C6          26.2132  36.8092  39.3761 C.ar           1 <1>                0.0000
      7 C7          26.4044  36.3071  40.6565 C.ar           1 <1>                0.0000
      8 O8          25.3373  36.1087  41.4722 O.3            1 <1>                0.0000
      9 C9          27.6911  36.0051  41.1074 C.ar           1 <1>                0.0000
     10 N10         27.8794  35.4982  42.3986 N.pl3          1 <1>                0.0000
     11 C11         28.7779  36.2018  40.2767 C.ar           1 <1>                0.0000
     12 H12         30.4851  37.5413  36.1990 H              1 <1>                0.0000
     13 H13         28.8920  36.7491  36.1494 H              1 <1>                0.0000
     14 H14         29.0368  38.4204  36.7443 H              1 <1>                0.0000
     15 H15         27.1389  37.4037  37.5486 H              1 <1>                0.0000
     16 H16         25.2161  37.0412  39.0321 H              1 <1>                0.0000
     17 H17         29.7738  35.9689  40.6235 H              1 <1>                0.0000
     18 H18         25.5017  35.4813  42.1893 H              1 <1>                0.0000
     19 H19         27.1161  35.3568  42.9801 H              1 <1>                0.0000
     20 H20         28.7732  35.2885  42.7116 H              1 <1>                0.0000
@<TRIPOS>BOND
    1    1    2 1     
    2    1   12 1     
    3    1   13 1     
    4    1   14 1     
    5    2    3 2     
    6    2    4 1     
    7    4    5 ar    
    8    4   11 ar    
    9    5    6 ar    
   10    5   15 1     
   11    6    7 ar    
   12    6   16 1     
   13    7    8 1     
   14    7    9 ar    
   15    8   18 1     
   16    9   10 1     
   17    9   11 ar    
   18   10   19 1     
   19   10   20 1     
   20   11   17 1     
@<TRIPOS>SUBSTRUCTURE
      1 ****           1
@<TRIPOS>SET
DONOR_HYDROGENS      STATIC     ATOMS    <user>   **** ""
3 18 19 20
ATOM$RED        STATIC     ATOMS    COLORGROUP SYSTEM
3 18 19 20
@<TRIPOS>COMMENT
> <Gold.Version>
2022.2.0

> <Gold.Id.Protein>
1qkm|1qkm_protein|mol2

> <Gold.Protein.RotatedTorsions>
[  496  491  490  487 ] final -116.31 input  -89.99 | X-H torsion

> <Gold.Protein.ActiveResidues>
 MET295  LEU298  THR299  LEU301  ALA302  GLU305  TRP335  MET336  LEU339  MET340 
 GLY342  LEU343  ARG346  PHE356  ILE373  ILE376  PHE377  LEU380  LYS471  GLY472 
 MET473  HIS475  LEU476  LEU477  ASN478  MET479  VAL484  VAL487 

> <Gold.Protein.RotatedAtoms>
   36.9951   34.4022   40.8249 H   0  0  0  0  0  0  0  0  0  0  0  0  # atno 496  bound_to 491 

> <Gold.Score>
     Score     S(PLP)   S(hbond)     S(cho)   S(metal)  DE(clash)   DE(tors)     intcor
     43.14     -37.15       2.00       0.00       0.00       0.00       0.00       0.00

> <Gold.PLP.Fitness>
43.1434

> <Gold.PLP.PLP>
-37.1453

> <Gold.PLP.part.hbond>
-1.9398

> <Gold.PLP.part.metal>
0.0000

> <Gold.PLP.part.buried>
-2.8382

> <Gold.PLP.part.nonpolar>
-31.1426

> <Gold.PLP.part.repulsive>
0.1334

> <Gold.PLP.ligand.clash>
0.0000

> <Gold.PLP.ligand.torsion>
0.0010

> <Gold.PLP.Chemscore.Hbond>
2.0000

> <Gold.PLP.Chemscore.CHOScore>
0.0000

> <Gold.PLP.Chemscore.Metal>
0.0000

> <Gold.Chemscore.Hbonds>
donor molecule, donor type, donor heavy atom, donor atom, acceptor molecule, acceptor atom, score
      L1  H     8    18       P1   582  1.00
      L1  H    10    19       P1   582  1.00

> <Gold.PLP.Chemscore.Internal.Correction>
0.0000

