#       Name:                EN300-126720_i001
#       Creating user name   aseyller
#       Creation time:       Fri Apr 21 16:29:18 2023


#       File generated by GOLD software.
#

@<TRIPOS>MOLECULE
EN300-126720_i001|aminophenols|mol2|30|dock12
    20    20     1
SMALL
USER_CHARGES


@<TRIPOS>ATOM
      1 C1          29.2213  38.2187  36.7540 C.3            1 <1>                0.0000
      2 C2          27.9767  38.1546  37.6013 C.2            1 <1>                0.0000
      3 O3          27.0008  38.8070  37.2959 O.2            1 <1>                0.0000
      4 C4          27.9455  37.3023  38.7970 C.ar           1 <1>                0.0000
      5 C5          29.1165  36.6803  39.2465 C.ar           1 <1>                0.0000
      6 C6          29.0854  35.8818  40.3681 C.ar           1 <1>                0.0000
      7 C7          27.8947  35.6907  41.0565 C.ar           1 <1>                0.0000
      8 O8          27.8708  34.9023  42.1616 O.3            1 <1>                0.0000
      9 C9          26.7220  36.3074  40.6157 C.ar           1 <1>                0.0000
     10 N10         25.5239  36.1128  41.3131 N.pl3          1 <1>                0.0000
     11 C11         26.7456  37.1142  39.4938 C.ar           1 <1>                0.0000
     12 H12         29.0567  38.8975  35.9173 H              1 <1>                0.0000
     13 H13         30.0534  38.5810  37.3575 H              1 <1>                0.0000
     14 H14         29.4539  37.2238  36.3743 H              1 <1>                0.0000
     15 H15         30.0443  36.8265  38.7134 H              1 <1>                0.0000
     16 H16         29.9897  35.4027  40.7131 H              1 <1>                0.0000
     17 H17         25.8397  37.5920  39.1513 H              1 <1>                0.0000
     18 H18         27.1046  35.0491  42.7329 H              1 <1>                0.0000
     19 H19         25.5083  35.5495  42.1025 H              1 <1>                0.0000
     20 H20         24.7094  36.5413  41.0067 H              1 <1>                0.0000
@<TRIPOS>BOND
    1    1    2 1     
    2    1   12 1     
    3    1   13 1     
    4    1   14 1     
    5    2    3 2     
    6    2    4 1     
    7    4    5 ar    
    8    4   11 ar    
    9    5    6 ar    
   10    5   15 1     
   11    6    7 ar    
   12    6   16 1     
   13    7    8 1     
   14    7    9 ar    
   15    8   18 1     
   16    9   10 1     
   17    9   11 ar    
   18   10   19 1     
   19   10   20 1     
   20   11   17 1     
@<TRIPOS>SUBSTRUCTURE
      1 ****           1
@<TRIPOS>SET
DONOR_HYDROGENS      STATIC     ATOMS    <user>   **** ""
3 18 19 20
ATOM$RED        STATIC     ATOMS    COLORGROUP SYSTEM
3 18 19 20
@<TRIPOS>COMMENT
> <Gold.Version>
2022.2.0

> <Gold.Id.Protein>
1qkm|1qkm_protein|mol2

> <Gold.Protein.RotatedTorsions>
[  496  491  490  487 ] final -153.59 input  -89.99 | X-H torsion

> <Gold.Protein.ActiveResidues>
 MET295  LEU298  THR299  LEU301  ALA302  GLU305  TRP335  MET336  LEU339  MET340 
 GLY342  LEU343  ARG346  PHE356  ILE373  ILE376  PHE377  LEU380  LYS471  GLY472 
 MET473  HIS475  LEU476  LEU477  ASN478  MET479  VAL484  VAL487 

> <Gold.Protein.RotatedAtoms>
   37.2487   33.8637   40.7287 H   0  0  0  0  0  0  0  0  0  0  0  0  # atno 496  bound_to 491 

> <Gold.Score>
     Score     S(PLP)   S(hbond)     S(cho)   S(metal)  DE(clash)   DE(tors)     intcor
     39.78     -33.84       2.00       0.00       0.00       0.00       0.03       0.00

> <Gold.PLP.Fitness>
39.7791

> <Gold.PLP.PLP>
-33.8352

> <Gold.PLP.part.hbond>
-2.2116

> <Gold.PLP.part.metal>
0.0000

> <Gold.PLP.part.buried>
-3.2272

> <Gold.PLP.part.nonpolar>
-28.1457

> <Gold.PLP.part.repulsive>
0.0937

> <Gold.PLP.ligand.clash>
0.0000

> <Gold.PLP.ligand.torsion>
0.0281

> <Gold.PLP.Chemscore.Hbond>
2.0000

> <Gold.PLP.Chemscore.CHOScore>
0.0000

> <Gold.PLP.Chemscore.Metal>
0.0000

> <Gold.Chemscore.Hbonds>
donor molecule, donor type, donor heavy atom, donor atom, acceptor molecule, acceptor atom, score
      L1  H     8    18       P1   582  1.00
      L1  H    10    19       P1   582  1.00

> <Gold.PLP.Chemscore.Internal.Correction>
0.0000

