#       Name:                EN300-126720_i001
#       Creating user name   aseyller
#       Creation time:       Fri Apr 21 16:29:17 2023


#       File generated by GOLD software.
#

@<TRIPOS>MOLECULE
EN300-126720_i001|aminophenols|mol2|30|dock9
    20    20     1
SMALL
USER_CHARGES


@<TRIPOS>ATOM
      1 C1          31.6643  37.6000  37.1062 C.3            1 <1>                0.0000
      2 C2          30.2057  37.9238  36.9099 C.2            1 <1>                0.0000
      3 O3          29.8497  38.5523  35.9354 O.2            1 <1>                0.0000
      4 C4          29.2151  37.4785  37.8986 C.ar           1 <1>                0.0000
      5 C5          27.8473  37.6062  37.6286 C.ar           1 <1>                0.0000
      6 C6          26.9199  37.1877  38.5567 C.ar           1 <1>                0.0000
      7 C7          27.3369  36.6385  39.7619 C.ar           1 <1>                0.0000
      8 O8          26.4175  36.2278  40.6727 O.3            1 <1>                0.0000
      9 C9          28.6990  36.5068  40.0396 C.ar           1 <1>                0.0000
     10 N10         29.1151  35.9517  41.2554 N.pl3          1 <1>                0.0000
     11 C11         29.6361  36.9198  39.1116 C.ar           1 <1>                0.0000
     12 H12         32.2420  38.0093  36.2774 H              1 <1>                0.0000
     13 H13         32.0110  38.0382  38.0420 H              1 <1>                0.0000
     14 H14         31.7949  36.5185  37.1410 H              1 <1>                0.0000
     15 H15         27.5194  38.0333  36.6923 H              1 <1>                0.0000
     16 H16         25.8653  37.2874  38.3466 H              1 <1>                0.0000
     17 H17         30.6901  36.8189  39.3245 H              1 <1>                0.0000
     18 H18         26.7395  35.5437  41.2754 H              1 <1>                0.0000
     19 H19         28.4573  35.6585  41.9051 H              1 <1>                0.0000
     20 H20         30.0614  35.8603  41.4482 H              1 <1>                0.0000
@<TRIPOS>BOND
    1    1    2 1     
    2    1   12 1     
    3    1   13 1     
    4    1   14 1     
    5    2    3 2     
    6    2    4 1     
    7    4    5 ar    
    8    4   11 ar    
    9    5    6 ar    
   10    5   15 1     
   11    6    7 ar    
   12    6   16 1     
   13    7    8 1     
   14    7    9 ar    
   15    8   18 1     
   16    9   10 1     
   17    9   11 ar    
   18   10   19 1     
   19   10   20 1     
   20   11   17 1     
@<TRIPOS>SUBSTRUCTURE
      1 ****           1
@<TRIPOS>SET
DONOR_HYDROGENS      STATIC     ATOMS    <user>   **** ""
3 18 19 20
ATOM$RED        STATIC     ATOMS    COLORGROUP SYSTEM
3 18 19 20
@<TRIPOS>COMMENT
> <Gold.Version>
2022.2.0

> <Gold.Id.Protein>
1qkm|1qkm_protein|mol2

> <Gold.Protein.RotatedTorsions>
[  496  491  490  487 ] final   70.09 input  -89.99 | X-H torsion

> <Gold.Protein.ActiveResidues>
 MET295  LEU298  THR299  LEU301  ALA302  GLU305  TRP335  MET336  LEU339  MET340 
 GLY342  LEU343  ARG346  PHE356  ILE373  ILE376  PHE377  LEU380  LYS471  GLY472 
 MET473  HIS475  LEU476  LEU477  ASN478  MET479  VAL484  VAL487 

> <Gold.Protein.RotatedAtoms>
   36.6382   33.1988   42.2290 H   0  0  0  0  0  0  0  0  0  0  0  0  # atno 496  bound_to 491 

> <Gold.Score>
     Score     S(PLP)   S(hbond)     S(cho)   S(metal)  DE(clash)   DE(tors)     intcor
     35.73     -32.81       1.00       0.00       0.00       0.00       0.04       0.00

> <Gold.PLP.Fitness>
35.7305

> <Gold.PLP.PLP>
-32.8065

> <Gold.PLP.part.hbond>
-1.0000

> <Gold.PLP.part.metal>
0.0000

> <Gold.PLP.part.buried>
-3.8531

> <Gold.PLP.part.nonpolar>
-28.3894

> <Gold.PLP.part.repulsive>
0.0671

> <Gold.PLP.ligand.clash>
0.0000

> <Gold.PLP.ligand.torsion>
0.0380

> <Gold.PLP.Chemscore.Hbond>
1.0000

> <Gold.PLP.Chemscore.CHOScore>
0.0000

> <Gold.PLP.Chemscore.Metal>
0.0000

> <Gold.Chemscore.Hbonds>
donor molecule, donor type, donor heavy atom, donor atom, acceptor molecule, acceptor atom, score
      L1  H    10    20       P1   470  1.00

> <Gold.PLP.Chemscore.Internal.Correction>
0.0000

