#       Name:                EN300-126720_i001
#       Creating user name   aseyller
#       Creation time:       Fri Apr 21 16:29:21 2023


#       File generated by GOLD software.
#

@<TRIPOS>MOLECULE
EN300-126720_i001|aminophenols|mol2|30|dock17
    20    20     1
SMALL
USER_CHARGES


@<TRIPOS>ATOM
      1 C1          33.8970  36.4907  34.9067 C.3            1 <1>                0.0000
      2 C2          32.5459  37.0804  35.2195 C.2            1 <1>                0.0000
      3 O3          32.0158  37.8341  34.4307 O.2            1 <1>                0.0000
      4 C4          31.8712  36.7426  36.4795 C.ar           1 <1>                0.0000
      5 C5          32.4768  35.8650  37.3868 C.ar           1 <1>                0.0000
      6 C6          31.8428  35.5498  38.5680 C.ar           1 <1>                0.0000
      7 C7          30.6026  36.1001  38.8634 C.ar           1 <1>                0.0000
      8 O8          29.9829  35.7853  40.0297 O.3            1 <1>                0.0000
      9 C9          29.9914  36.9767  37.9647 C.ar           1 <1>                0.0000
     10 N10         28.7415  37.5300  38.2668 N.pl3          1 <1>                0.0000
     11 C11         30.6230  37.3020  36.7793 C.ar           1 <1>                0.0000
     12 H12         34.2360  36.8536  33.9365 H              1 <1>                0.0000
     13 H13         34.6101  36.7883  35.6754 H              1 <1>                0.0000
     14 H14         33.8220  35.4035  34.8820 H              1 <1>                0.0000
     15 H15         33.4412  35.4349  37.1602 H              1 <1>                0.0000
     16 H16         32.3114  34.8723  39.2664 H              1 <1>                0.0000
     17 H17         30.1519  37.9798  36.0829 H              1 <1>                0.0000
     18 H18         30.5872  35.5271  40.7390 H              1 <1>                0.0000
     19 H19         28.3000  37.3045  39.1005 H              1 <1>                0.0000
     20 H20         28.3170  38.1390  37.6424 H              1 <1>                0.0000
@<TRIPOS>BOND
    1    1    2 1     
    2    1   12 1     
    3    1   13 1     
    4    1   14 1     
    5    2    3 2     
    6    2    4 1     
    7    4    5 ar    
    8    4   11 ar    
    9    5    6 ar    
   10    5   15 1     
   11    6    7 ar    
   12    6   16 1     
   13    7    8 1     
   14    7    9 ar    
   15    8   18 1     
   16    9   10 1     
   17    9   11 ar    
   18   10   19 1     
   19   10   20 1     
   20   11   17 1     
@<TRIPOS>SUBSTRUCTURE
      1 ****           1
@<TRIPOS>SET
DONOR_HYDROGENS      STATIC     ATOMS    <user>   **** ""
3 18 19 20
ATOM$RED        STATIC     ATOMS    COLORGROUP SYSTEM
3 18 19 20
@<TRIPOS>COMMENT
> <Gold.Version>
2022.2.0

> <Gold.Id.Protein>
1qkm|1qkm_protein|mol2

> <Gold.Protein.RotatedTorsions>
[  496  491  490  487 ] final  -80.10 input  -89.99 | X-H torsion

> <Gold.Protein.ActiveResidues>
 MET295  LEU298  THR299  LEU301  ALA302  GLU305  TRP335  MET336  LEU339  MET340 
 GLY342  LEU343  ARG346  PHE356  ILE373  ILE376  PHE377  LEU380  LYS471  GLY472 
 MET473  HIS475  LEU476  LEU477  ASN478  MET479  VAL484  VAL487 

> <Gold.Protein.RotatedAtoms>
   36.6668   34.7058   41.2040 H   0  0  0  0  0  0  0  0  0  0  0  0  # atno 496  bound_to 491 

> <Gold.Score>
     Score     S(PLP)   S(hbond)     S(cho)   S(metal)  DE(clash)   DE(tors)     intcor
     36.24     -33.24       1.00       0.00       0.00       0.00       0.00       0.00

> <Gold.PLP.Fitness>
36.2400

> <Gold.PLP.PLP>
-33.2402

> <Gold.PLP.part.hbond>
-1.0000

> <Gold.PLP.part.metal>
0.0000

> <Gold.PLP.part.buried>
-3.7605

> <Gold.PLP.part.nonpolar>
-29.0221

> <Gold.PLP.part.repulsive>
0.1328

> <Gold.PLP.ligand.clash>
0.0000

> <Gold.PLP.ligand.torsion>
0.0001

> <Gold.PLP.Chemscore.Hbond>
1.0000

> <Gold.PLP.Chemscore.CHOScore>
0.0000

> <Gold.PLP.Chemscore.Metal>
0.0000

> <Gold.Chemscore.Hbonds>
donor molecule, donor type, donor heavy atom, donor atom, acceptor molecule, acceptor atom, score
      L1  H     8    18       P1   470  1.00

> <Gold.PLP.Chemscore.Internal.Correction>
0.0000

