#       Name:                EN300-126720_i001
#       Creating user name   aseyller
#       Creation time:       Fri Apr 21 16:29:16 2023


#       File generated by GOLD software.
#

@<TRIPOS>MOLECULE
EN300-126720_i001|aminophenols|mol2|30|dock8
    20    20     1
SMALL
USER_CHARGES


@<TRIPOS>ATOM
      1 C1          29.7043  39.0909  35.8109 C.3            1 <1>                0.0000
      2 C2          30.1568  38.1801  36.9230 C.2            1 <1>                0.0000
      3 O3          31.3295  37.8887  37.0291 O.2            1 <1>                0.0000
      4 C4          29.1779  37.6451  37.8782 C.ar           1 <1>                0.0000
      5 C5          27.8071  37.8062  37.6431 C.ar           1 <1>                0.0000
      6 C6          26.8907  37.3036  38.5397 C.ar           1 <1>                0.0000
      7 C7          27.3215  36.6360  39.6785 C.ar           1 <1>                0.0000
      8 O8          26.4129  36.1426  40.5585 O.3            1 <1>                0.0000
      9 C9          28.6867  36.4701  39.9209 C.ar           1 <1>                0.0000
     10 N10         29.1168  35.7957  41.0697 N.pl3          1 <1>                0.0000
     11 C11         29.6128  36.9673  39.0237 C.ar           1 <1>                0.0000
     12 H12         30.5642  39.3841  35.2088 H              1 <1>                0.0000
     13 H13         28.9829  38.5675  35.1835 H              1 <1>                0.0000
     14 H14         29.2384  39.9798  36.2362 H              1 <1>                0.0000
     15 H15         27.4684  38.3252  36.7586 H              1 <1>                0.0000
     16 H16         25.8337  37.4292  38.3567 H              1 <1>                0.0000
     17 H17         30.6691  36.8401  39.2094 H              1 <1>                0.0000
     18 H18         25.5256  36.5133  40.4569 H              1 <1>                0.0000
     19 H19         28.4665  35.4436  41.6974 H              1 <1>                0.0000
     20 H20         30.0651  35.6805  41.2379 H              1 <1>                0.0000
@<TRIPOS>BOND
    1    1    2 1     
    2    1   12 1     
    3    1   13 1     
    4    1   14 1     
    5    2    3 2     
    6    2    4 1     
    7    4    5 ar    
    8    4   11 ar    
    9    5    6 ar    
   10    5   15 1     
   11    6    7 ar    
   12    6   16 1     
   13    7    8 1     
   14    7    9 ar    
   15    8   18 1     
   16    9   10 1     
   17    9   11 ar    
   18   10   19 1     
   19   10   20 1     
   20   11   17 1     
@<TRIPOS>SUBSTRUCTURE
      1 ****           1
@<TRIPOS>SET
DONOR_HYDROGENS      STATIC     ATOMS    <user>   **** ""
3 18 19 20
ATOM$RED        STATIC     ATOMS    COLORGROUP SYSTEM
3 18 19 20
@<TRIPOS>COMMENT
> <Gold.Version>
2022.2.0

> <Gold.Id.Protein>
1qkm|1qkm_protein|mol2

> <Gold.Protein.RotatedTorsions>
[  496  491  490  487 ] final   41.73 input  -89.99 | X-H torsion

> <Gold.Protein.ActiveResidues>
 MET295  LEU298  THR299  LEU301  ALA302  GLU305  TRP335  MET336  LEU339  MET340 
 GLY342  LEU343  ARG346  PHE356  ILE373  ILE376  PHE377  LEU380  LYS471  GLY472 
 MET473  HIS475  LEU476  LEU477  ASN478  MET479  VAL484  VAL487 

> <Gold.Protein.RotatedAtoms>
   36.4149   33.5753   42.3769 H   0  0  0  0  0  0  0  0  0  0  0  0  # atno 496  bound_to 491 

> <Gold.Score>
     Score     S(PLP)   S(hbond)     S(cho)   S(metal)  DE(clash)   DE(tors)     intcor
     36.56     -33.65       1.00       0.00       0.00       0.00       0.04       0.00

> <Gold.PLP.Fitness>
36.5600

> <Gold.PLP.PLP>
-33.6462

> <Gold.PLP.part.hbond>
-1.0000

> <Gold.PLP.part.metal>
0.0000

> <Gold.PLP.part.buried>
-3.5321

> <Gold.PLP.part.nonpolar>
-29.4892

> <Gold.PLP.part.repulsive>
0.0670

> <Gold.PLP.ligand.clash>
0.0000

> <Gold.PLP.ligand.torsion>
0.0431

> <Gold.PLP.Chemscore.Hbond>
1.0000

> <Gold.PLP.Chemscore.CHOScore>
0.0000

> <Gold.PLP.Chemscore.Metal>
0.0000

> <Gold.Chemscore.Hbonds>
donor molecule, donor type, donor heavy atom, donor atom, acceptor molecule, acceptor atom, score
      L1  H    10    20       P1   470  1.00

> <Gold.PLP.Chemscore.Internal.Correction>
0.0000

