#       Name:                EN300-126720_i001
#       Creating user name   aseyller
#       Creation time:       Fri Apr 21 16:29:12 2023


#       File generated by GOLD software.
#

@<TRIPOS>MOLECULE
EN300-126720_i001
    20    20     1
SMALL
USER_CHARGES


@<TRIPOS>ATOM
      1 C1           3.2017   0.7998   0.0325 C.3            1 <1>                0.0000
      2 C2           2.2329  -0.3545   0.0337 C.2            1 <1>                0.0000
      3 O3           2.6476  -1.4944   0.0282 O.2            1 <1>                0.0000
      4 C4           0.7866  -0.0993   0.0414 C.ar           1 <1>                0.0000
      5 C5           0.3058   1.2156   0.0477 C.ar           1 <1>                0.0000
      6 C6          -1.0507   1.4530   0.0545 C.ar           1 <1>                0.0000
      7 C7          -1.9455   0.3912   0.0551 C.ar           1 <1>                0.0000
      8 O8          -3.2817   0.6320   0.0617 O.3            1 <1>                0.0000
      9 C9          -1.4750  -0.9235   0.0483 C.ar           1 <1>                0.0000
     10 N10         -2.3805  -1.9911   0.0480 N.pl3          1 <1>                0.0000
     11 C11         -0.1153  -1.1704   0.0366 C.ar           1 <1>                0.0000
     12 H12          4.2224   0.4175   0.0264 H              1 <1>                0.0000
     13 H13          3.0374   1.4111  -0.8548 H              1 <1>                0.0000
     14 H14          3.0460   1.4057   0.9251 H              1 <1>                0.0000
     15 H15          0.9989   2.0439   0.0476 H              1 <1>                0.0000
     16 H16         -1.4196   2.4680   0.0597 H              1 <1>                0.0000
     17 H17          0.2506  -2.1865   0.0314 H              1 <1>                0.0000
     18 H18         -3.6726   0.7046  -0.8197 H              1 <1>                0.0000
     19 H19         -3.3348  -1.8176   0.0526 H              1 <1>                0.0000
     20 H20         -2.0535  -2.9043   0.0433 H              1 <1>                0.0000
@<TRIPOS>BOND
    1    1    2 1     
    2    1   12 1     
    3    1   13 1     
    4    1   14 1     
    5    2    3 2     
    6    2    4 1     
    7    4    5 ar    
    8    4   11 ar    
    9    5    6 ar    
   10    5   15 1     
   11    6    7 ar    
   12    6   16 1     
   13    7    8 1     
   14    7    9 ar    
   15    8   18 1     
   16    9   10 1     
   17    9   11 ar    
   18   10   19 1     
   19   10   20 1     
   20   11   17 1     
@<TRIPOS>SUBSTRUCTURE
      1 ****           1
@<TRIPOS>SET
DONOR_HYDROGENS      STATIC     ATOMS    <user>   **** ""
3 18 19 20
ATOM$RED        STATIC     ATOMS    COLORGROUP SYSTEM
3 18 19 20
