#       Name:                EN300-126720_i001
#       Creating user name   aseyller
#       Creation time:       Fri Apr 21 16:29:22 2023


#       File generated by GOLD software.
#

@<TRIPOS>MOLECULE
EN300-126720_i001|aminophenols|mol2|30|dock18
    20    20     1
SMALL
USER_CHARGES


@<TRIPOS>ATOM
      1 C1          30.0029  37.4701  36.1417 C.3            1 <1>                0.0000
      2 C2          30.4064  36.9953  37.5138 C.2            1 <1>                0.0000
      3 O3          31.5717  36.7613  37.7562 O.2            1 <1>                0.0000
      4 C4          29.3889  36.8158  38.5575 C.ar           1 <1>                0.0000
      5 C5          28.0406  37.0639  38.2734 C.ar           1 <1>                0.0000
      6 C6          27.0877  36.8947  39.2532 C.ar           1 <1>                0.0000
      7 C7          27.4596  36.4780  40.5245 C.ar           1 <1>                0.0000
      8 O8          26.5153  36.3129  41.4860 O.3            1 <1>                0.0000
      9 C9          28.8019  36.2276  40.8166 C.ar           1 <1>                0.0000
     10 N10         29.1725  35.8068  42.0993 N.pl3          1 <1>                0.0000
     11 C11         29.7638  36.3904  39.8378 C.ar           1 <1>                0.0000
     12 H12         30.8866  37.5426  35.5078 H              1 <1>                0.0000
     13 H13         29.2993  36.7617  35.7045 H              1 <1>                0.0000
     14 H14         29.5308  38.4494  36.2204 H              1 <1>                0.0000
     15 H15         27.7477  37.3885  37.2858 H              1 <1>                0.0000
     16 H16         26.0482  37.0870  39.0322 H              1 <1>                0.0000
     17 H17         30.8025  36.1974  40.0618 H              1 <1>                0.0000
     18 H18         26.6749  35.5578  42.0685 H              1 <1>                0.0000
     19 H19         28.4968  35.6891  42.7852 H              1 <1>                0.0000
     20 H20         30.1050  35.6329  42.3021 H              1 <1>                0.0000
@<TRIPOS>BOND
    1    1    2 1     
    2    1   12 1     
    3    1   13 1     
    4    1   14 1     
    5    2    3 2     
    6    2    4 1     
    7    4    5 ar    
    8    4   11 ar    
    9    5    6 ar    
   10    5   15 1     
   11    6    7 ar    
   12    6   16 1     
   13    7    8 1     
   14    7    9 ar    
   15    8   18 1     
   16    9   10 1     
   17    9   11 ar    
   18   10   19 1     
   19   10   20 1     
   20   11   17 1     
@<TRIPOS>SUBSTRUCTURE
      1 ****           1
@<TRIPOS>SET
DONOR_HYDROGENS      STATIC     ATOMS    <user>   **** ""
3 18 19 20
ATOM$RED        STATIC     ATOMS    COLORGROUP SYSTEM
3 18 19 20
@<TRIPOS>COMMENT
> <Gold.Version>
2022.2.0

> <Gold.Id.Protein>
1qkm|1qkm_protein|mol2

> <Gold.Protein.RotatedTorsions>
[  496  491  490  487 ] final  161.39 input  -89.99 | X-H torsion

> <Gold.Protein.ActiveResidues>
 MET295  LEU298  THR299  LEU301  ALA302  GLU305  TRP335  MET336  LEU339  MET340 
 GLY342  LEU343  ARG346  PHE356  ILE373  ILE376  PHE377  LEU380  LYS471  GLY472 
 MET473  HIS475  LEU476  LEU477  ASN478  MET479  VAL484  VAL487 

> <Gold.Protein.RotatedAtoms>
   37.3002   33.2210   41.0540 H   0  0  0  0  0  0  0  0  0  0  0  0  # atno 496  bound_to 491 

> <Gold.Score>
     Score     S(PLP)   S(hbond)     S(cho)   S(metal)  DE(clash)   DE(tors)     intcor
     38.69     -33.20       1.83       0.00       0.00       0.00       0.00       0.00

> <Gold.PLP.Fitness>
38.6919

> <Gold.PLP.PLP>
-33.2045

> <Gold.PLP.part.hbond>
-2.0000

> <Gold.PLP.part.metal>
0.0000

> <Gold.PLP.part.buried>
-3.9363

> <Gold.PLP.part.nonpolar>
-28.0653

> <Gold.PLP.part.repulsive>
0.1287

> <Gold.PLP.ligand.clash>
0.0000

> <Gold.PLP.ligand.torsion>
0.0004

> <Gold.PLP.Chemscore.Hbond>
1.8294

> <Gold.PLP.Chemscore.CHOScore>
0.0000

> <Gold.PLP.Chemscore.Metal>
0.0000

> <Gold.Chemscore.Hbonds>
donor molecule, donor type, donor heavy atom, donor atom, acceptor molecule, acceptor atom, score
      L1  H     8    18       P1   582  0.83
      L1  H    10    20       P1   470  1.00

> <Gold.PLP.Chemscore.Internal.Correction>
0.0000

