#       Name:                EN300-126720_i001
#       Creating user name   aseyller
#       Creation time:       Fri Apr 21 16:29:20 2023


#       File generated by GOLD software.
#

@<TRIPOS>MOLECULE
EN300-126720_i001|aminophenols|mol2|30|dock15
    20    20     1
SMALL
USER_CHARGES


@<TRIPOS>ATOM
      1 C1          30.5234  35.3933  39.0751 C.3            1 <1>                0.0000
      2 C2          29.6345  36.5956  38.8875 C.2            1 <1>                0.0000
      3 O3          30.0146  37.5323  38.2172 O.2            1 <1>                0.0000
      4 C4          28.3078  36.6331  39.5164 C.ar           1 <1>                0.0000
      5 C5          27.1547  36.6472  38.7225 C.ar           1 <1>                0.0000
      6 C6          25.9115  36.6820  39.3139 C.ar           1 <1>                0.0000
      7 C7          25.7968  36.7033  40.6976 C.ar           1 <1>                0.0000
      8 O8          24.5682  36.7375  41.2745 O.3            1 <1>                0.0000
      9 C9          26.9414  36.6890  41.4973 C.ar           1 <1>                0.0000
     10 N10         26.8212  36.7096  42.8919 N.pl3          1 <1>                0.0000
     11 C11         28.1926  36.6492  40.9118 C.ar           1 <1>                0.0000
     12 H12         31.4597  35.5464  38.5385 H              1 <1>                0.0000
     13 H13         30.7311  35.2570  40.1364 H              1 <1>                0.0000
     14 H14         30.0225  34.5068  38.6862 H              1 <1>                0.0000
     15 H15         27.2402  36.6310  37.6459 H              1 <1>                0.0000
     16 H16         25.0233  36.6931  38.6997 H              1 <1>                0.0000
     17 H17         29.0790  36.6381  41.5286 H              1 <1>                0.0000
     18 H18         23.8586  36.4036  40.7088 H              1 <1>                0.0000
     19 H19         25.9429  36.7338  43.3027 H              1 <1>                0.0000
     20 H20         27.6164  36.6997  43.4473 H              1 <1>                0.0000
@<TRIPOS>BOND
    1    1    2 1     
    2    1   12 1     
    3    1   13 1     
    4    1   14 1     
    5    2    3 2     
    6    2    4 1     
    7    4    5 ar    
    8    4   11 ar    
    9    5    6 ar    
   10    5   15 1     
   11    6    7 ar    
   12    6   16 1     
   13    7    8 1     
   14    7    9 ar    
   15    8   18 1     
   16    9   10 1     
   17    9   11 ar    
   18   10   19 1     
   19   10   20 1     
   20   11   17 1     
@<TRIPOS>SUBSTRUCTURE
      1 ****           1
@<TRIPOS>SET
DONOR_HYDROGENS      STATIC     ATOMS    <user>   **** ""
3 18 19 20
ATOM$RED        STATIC     ATOMS    COLORGROUP SYSTEM
3 18 19 20
@<TRIPOS>COMMENT
> <Gold.Version>
2022.2.0

> <Gold.Id.Protein>
1qkm|1qkm_protein|mol2

> <Gold.Protein.RotatedTorsions>
[  496  491  490  487 ] final   -7.30 input  -89.99 | X-H torsion

> <Gold.Protein.ActiveResidues>
 MET295  LEU298  THR299  LEU301  ALA302  GLU305  TRP335  MET336  LEU339  MET340 
 GLY342  LEU343  ARG346  PHE356  ILE373  ILE376  PHE377  LEU380  LYS471  GLY472 
 MET473  HIS475  LEU476  LEU477  ASN478  MET479  VAL484  VAL487 

> <Gold.Protein.RotatedAtoms>
   36.2600   34.3141   42.1705 H   0  0  0  0  0  0  0  0  0  0  0  0  # atno 496  bound_to 491 

> <Gold.Score>
     Score     S(PLP)   S(hbond)     S(cho)   S(metal)  DE(clash)   DE(tors)     intcor
     39.15     -36.63       1.67       0.00       0.00       0.00       1.24       0.00

> <Gold.PLP.Fitness>
39.1533

> <Gold.PLP.PLP>
-36.6256

> <Gold.PLP.part.hbond>
-2.7138

> <Gold.PLP.part.metal>
0.0000

> <Gold.PLP.part.buried>
-0.7815

> <Gold.PLP.part.nonpolar>
-33.3572

> <Gold.PLP.part.repulsive>
0.0734

> <Gold.PLP.ligand.clash>
0.0000

> <Gold.PLP.ligand.torsion>
1.2353

> <Gold.PLP.Chemscore.Hbond>
1.6661

> <Gold.PLP.Chemscore.CHOScore>
0.0000

> <Gold.PLP.Chemscore.Metal>
0.0000

> <Gold.Chemscore.Hbonds>
donor molecule, donor type, donor heavy atom, donor atom, acceptor molecule, acceptor atom, score
      L1  H     8    18       P1  1131  1.00
      P1  H  1258  1270       L1     8  0.67

> <Gold.PLP.Chemscore.Internal.Correction>
0.0000

