#       Name:                EN300-126720_i001
#       Creating user name   aseyller
#       Creation time:       Fri Apr 21 16:29:15 2023


#       File generated by GOLD software.
#

@<TRIPOS>MOLECULE
EN300-126720_i001|aminophenols|mol2|30|dock5
    20    20     1
SMALL
USER_CHARGES


@<TRIPOS>ATOM
      1 C1          28.9325  39.0484  36.7031 C.3            1 <1>                0.0000
      2 C2          29.4490  37.9001  37.5310 C.2            1 <1>                0.0000
      3 O3          30.5623  37.4615  37.3320 O.2            1 <1>                0.0000
      4 C4          28.6045  37.3118  38.5787 C.ar           1 <1>                0.0000
      5 C5          27.2184  37.2299  38.3994 C.ar           1 <1>                0.0000
      6 C6          26.4281  36.6776  39.3827 C.ar           1 <1>                0.0000
      7 C7          27.0016  36.2006  40.5538 C.ar           1 <1>                0.0000
      8 O8          26.2169  35.6571  41.5194 O.3            1 <1>                0.0000
      9 C9          28.3832  36.2777  40.7410 C.ar           1 <1>                0.0000
     10 N10         28.9576  35.7947  41.9228 N.pl3          1 <1>                0.0000
     11 C11         29.1840  36.8261  39.7572 C.ar           1 <1>                0.0000
     12 H12         29.6936  39.3485  35.9829 H              1 <1>                0.0000
     13 H13         28.0325  38.7378  36.1725 H              1 <1>                0.0000
     14 H14         28.6976  39.8897  37.3552 H              1 <1>                0.0000
     15 H15         26.7688  37.6002  37.4899 H              1 <1>                0.0000
     16 H16         25.3590  36.6156  39.2426 H              1 <1>                0.0000
     17 H17         30.2528  36.8866  39.9001 H              1 <1>                0.0000
     18 H18         26.7072  35.1775  42.2010 H              1 <1>                0.0000
     19 H19         28.3958  35.4065  42.6117 H              1 <1>                0.0000
     20 H20         29.9173  35.8484  42.0527 H              1 <1>                0.0000
@<TRIPOS>BOND
    1    1    2 1     
    2    1   12 1     
    3    1   13 1     
    4    1   14 1     
    5    2    3 2     
    6    2    4 1     
    7    4    5 ar    
    8    4   11 ar    
    9    5    6 ar    
   10    5   15 1     
   11    6    7 ar    
   12    6   16 1     
   13    7    8 1     
   14    7    9 ar    
   15    8   18 1     
   16    9   10 1     
   17    9   11 ar    
   18   10   19 1     
   19   10   20 1     
   20   11   17 1     
@<TRIPOS>SUBSTRUCTURE
      1 ****           1
@<TRIPOS>SET
DONOR_HYDROGENS      STATIC     ATOMS    <user>   **** ""
3 18 19 20
ATOM$RED        STATIC     ATOMS    COLORGROUP SYSTEM
3 18 19 20
@<TRIPOS>COMMENT
> <Gold.Version>
2022.2.0

> <Gold.Id.Protein>
1qkm|1qkm_protein|mol2

> <Gold.Protein.RotatedTorsions>
[  496  491  490  487 ] final  -10.39 input  -89.99 | X-H torsion

> <Gold.Protein.ActiveResidues>
 MET295  LEU298  THR299  LEU301  ALA302  GLU305  TRP335  MET336  LEU339  MET340 
 GLY342  LEU343  ARG346  PHE356  ILE373  ILE376  PHE377  LEU380  LYS471  GLY472 
 MET473  HIS475  LEU476  LEU477  ASN478  MET479  VAL484  VAL487 

> <Gold.Protein.RotatedAtoms>
   36.2627   34.3546   42.1396 H   0  0  0  0  0  0  0  0  0  0  0  0  # atno 496  bound_to 491 

> <Gold.Score>
     Score     S(PLP)   S(hbond)     S(cho)   S(metal)  DE(clash)   DE(tors)     intcor
     40.84     -37.13       1.56       0.00       0.00       0.00       0.49       0.00

> <Gold.PLP.Fitness>
40.8378

> <Gold.PLP.PLP>
-37.1281

> <Gold.PLP.part.hbond>
-1.9604

> <Gold.PLP.part.metal>
0.0000

> <Gold.PLP.part.buried>
-4.5232

> <Gold.PLP.part.nonpolar>
-31.1187

> <Gold.PLP.part.repulsive>
0.0910

> <Gold.PLP.ligand.clash>
0.0000

> <Gold.PLP.ligand.torsion>
0.4852

> <Gold.PLP.Chemscore.Hbond>
1.5600

> <Gold.PLP.Chemscore.CHOScore>
0.0000

> <Gold.PLP.Chemscore.Metal>
0.0000

> <Gold.Chemscore.Hbonds>
donor molecule, donor type, donor heavy atom, donor atom, acceptor molecule, acceptor atom, score
      L1  H     8    18       P1   582  0.56
      L1  H    10    20       P1   470  1.00

> <Gold.PLP.Chemscore.Internal.Correction>
0.0000

