#       Name:                EN300-126720_i001
#       Creating user name   aseyller
#       Creation time:       Fri Apr 21 16:29:21 2023


#       File generated by GOLD software.
#

@<TRIPOS>MOLECULE
EN300-126720_i001|aminophenols|mol2|30|dock16
    20    20     1
SMALL
USER_CHARGES


@<TRIPOS>ATOM
      1 C1          31.8282  38.2242  34.2961 C.3            1 <1>                0.0000
      2 C2          31.1075  38.2503  35.6193 C.2            1 <1>                0.0000
      3 O3          30.3795  39.1805  35.8952 O.2            1 <1>                0.0000
      4 C4          31.2865  37.1494  36.5748 C.ar           1 <1>                0.0000
      5 C5          32.0940  36.0552  36.2419 C.ar           1 <1>                0.0000
      6 C6          32.2611  35.0241  37.1393 C.ar           1 <1>                0.0000
      7 C7          31.6306  35.0653  38.3757 C.ar           1 <1>                0.0000
      8 O8          31.7995  34.0456  39.2561 O.3            1 <1>                0.0000
      9 C9          30.8238  36.1529  38.7166 C.ar           1 <1>                0.0000
     10 N10         30.1906  36.1910  39.9645 N.pl3          1 <1>                0.0000
     11 C11         30.6547  37.1940  37.8236 C.ar           1 <1>                0.0000
     12 H12         31.5736  39.1176  33.7260 H              1 <1>                0.0000
     13 H13         32.9040  38.1978  34.4688 H              1 <1>                0.0000
     14 H14         31.5282  37.3383  33.7364 H              1 <1>                0.0000
     15 H15         32.5857  36.0197  35.2809 H              1 <1>                0.0000
     16 H16         32.8842  34.1808  36.8805 H              1 <1>                0.0000
     17 H17         30.0311  38.0360  38.0853 H              1 <1>                0.0000
     18 H18         31.7228  34.3095  40.1831 H              1 <1>                0.0000
     19 H19         30.3123  35.4618  40.5925 H              1 <1>                0.0000
     20 H20         29.6302  36.9465  40.2011 H              1 <1>                0.0000
@<TRIPOS>BOND
    1    1    2 1     
    2    1   12 1     
    3    1   13 1     
    4    1   14 1     
    5    2    3 2     
    6    2    4 1     
    7    4    5 ar    
    8    4   11 ar    
    9    5    6 ar    
   10    5   15 1     
   11    6    7 ar    
   12    6   16 1     
   13    7    8 1     
   14    7    9 ar    
   15    8   18 1     
   16    9   10 1     
   17    9   11 ar    
   18   10   19 1     
   19   10   20 1     
   20   11   17 1     
@<TRIPOS>SUBSTRUCTURE
      1 ****           1
@<TRIPOS>SET
DONOR_HYDROGENS      STATIC     ATOMS    <user>   **** ""
3 18 19 20
ATOM$RED        STATIC     ATOMS    COLORGROUP SYSTEM
3 18 19 20
@<TRIPOS>COMMENT
> <Gold.Version>
2022.2.0

> <Gold.Id.Protein>
1qkm|1qkm_protein|mol2

> <Gold.Protein.RotatedTorsions>
[  496  491  490  487 ] final   65.02 input  -89.99 | X-H torsion

> <Gold.Protein.ActiveResidues>
 MET295  LEU298  THR299  LEU301  ALA302  GLU305  TRP335  MET336  LEU339  MET340 
 GLY342  LEU343  ARG346  PHE356  ILE373  ILE376  PHE377  LEU380  LYS471  GLY472 
 MET473  HIS475  LEU476  LEU477  ASN478  MET479  VAL484  VAL487 

> <Gold.Protein.RotatedAtoms>
   36.5939   33.2570   42.2690 H   0  0  0  0  0  0  0  0  0  0  0  0  # atno 496  bound_to 491 

> <Gold.Score>
     Score     S(PLP)   S(hbond)     S(cho)   S(metal)  DE(clash)   DE(tors)     intcor
     35.98     -31.67       1.44       0.00       0.00       0.00       0.00       0.00

> <Gold.PLP.Fitness>
35.9777

> <Gold.PLP.PLP>
-31.6692

> <Gold.PLP.part.hbond>
-2.0000

> <Gold.PLP.part.metal>
0.0000

> <Gold.PLP.part.buried>
-1.7924

> <Gold.PLP.part.nonpolar>
-27.6011

> <Gold.PLP.part.repulsive>
0.0491

> <Gold.PLP.ligand.clash>
0.0000

> <Gold.PLP.ligand.torsion>
0.0019

> <Gold.PLP.Chemscore.Hbond>
1.4374

> <Gold.PLP.Chemscore.CHOScore>
0.0000

> <Gold.PLP.Chemscore.Metal>
0.0000

> <Gold.Chemscore.Hbonds>
donor molecule, donor type, donor heavy atom, donor atom, acceptor molecule, acceptor atom, score
      L1  H     8    18       P1   470  0.99
      L1  H    10    19       P1   470  0.45

> <Gold.PLP.Chemscore.Internal.Correction>
0.0000

