#       Name:                EN300-126720_i001
#       Creating user name   aseyller
#       Creation time:       Fri Apr 21 16:29:22 2023


#       File generated by GOLD software.
#

@<TRIPOS>MOLECULE
EN300-126720_i001|aminophenols|mol2|30|dock20
    20    20     1
SMALL
USER_CHARGES


@<TRIPOS>ATOM
      1 C1          30.6305  37.2769  36.7638 C.3            1 <1>                0.0000
      2 C2          30.3032  36.5693  38.0534 C.2            1 <1>                0.0000
      3 O3          31.1465  35.8952  38.6064 O.2            1 <1>                0.0000
      4 C4          28.9630  36.6958  38.6407 C.ar           1 <1>                0.0000
      5 C5          27.9886  37.4746  38.0050 C.ar           1 <1>                0.0000
      6 C6          26.7324  37.5918  38.5570 C.ar           1 <1>                0.0000
      7 C7          26.4275  36.9391  39.7440 C.ar           1 <1>                0.0000
      8 O8          25.1871  37.0586  40.2830 O.3            1 <1>                0.0000
      9 C9          27.3929  36.1598  40.3848 C.ar           1 <1>                0.0000
     10 N10         27.0812  35.5027  41.5809 N.pl3          1 <1>                0.0000
     11 C11         28.6545  36.0331  39.8350 C.ar           1 <1>                0.0000
     12 H12         31.6633  37.0667  36.4860 H              1 <1>                0.0000
     13 H13         29.9638  36.9248  35.9768 H              1 <1>                0.0000
     14 H14         30.5013  38.3511  36.8959 H              1 <1>                0.0000
     15 H15         28.2223  37.9839  37.0817 H              1 <1>                0.0000
     16 H16         25.9822  38.1933  38.0652 H              1 <1>                0.0000
     17 H17         29.4026  35.4309  40.3291 H              1 <1>                0.0000
     18 H18         24.5250  36.4821  39.8776 H              1 <1>                0.0000
     19 H19         26.1945  35.5888  41.9647 H              1 <1>                0.0000
     20 H20         27.7519  34.9614  42.0259 H              1 <1>                0.0000
@<TRIPOS>BOND
    1    1    2 1     
    2    1   12 1     
    3    1   13 1     
    4    1   14 1     
    5    2    3 2     
    6    2    4 1     
    7    4    5 ar    
    8    4   11 ar    
    9    5    6 ar    
   10    5   15 1     
   11    6    7 ar    
   12    6   16 1     
   13    7    8 1     
   14    7    9 ar    
   15    8   18 1     
   16    9   10 1     
   17    9   11 ar    
   18   10   19 1     
   19   10   20 1     
   20   11   17 1     
@<TRIPOS>SUBSTRUCTURE
      1 ****           1
@<TRIPOS>SET
DONOR_HYDROGENS      STATIC     ATOMS    <user>   **** ""
3 18 19 20
ATOM$RED        STATIC     ATOMS    COLORGROUP SYSTEM
3 18 19 20
@<TRIPOS>COMMENT
> <Gold.Version>
2022.2.0

> <Gold.Id.Protein>
1qkm|1qkm_protein|mol2

> <Gold.Protein.RotatedTorsions>
[  496  491  490  487 ] final  -75.44 input  -89.99 | X-H torsion

> <Gold.Protein.ActiveResidues>
 MET295  LEU298  THR299  LEU301  ALA302  GLU305  TRP335  MET336  LEU339  MET340 
 GLY342  LEU343  ARG346  PHE356  ILE373  ILE376  PHE377  LEU380  LYS471  GLY472 
 MET473  HIS475  LEU476  LEU477  ASN478  MET479  VAL484  VAL487 

> <Gold.Protein.RotatedAtoms>
   36.6253   34.7216   41.2665 H   0  0  0  0  0  0  0  0  0  0  0  0  # atno 496  bound_to 491 

> <Gold.Score>
     Score     S(PLP)   S(hbond)     S(cho)   S(metal)  DE(clash)   DE(tors)     intcor
     36.33     -33.93       0.80       0.00       0.00       0.00       0.00       0.00

> <Gold.PLP.Fitness>
36.3341

> <Gold.PLP.PLP>
-33.9345

> <Gold.PLP.part.hbond>
-2.0000

> <Gold.PLP.part.metal>
0.0000

> <Gold.PLP.part.buried>
-4.2734

> <Gold.PLP.part.nonpolar>
-27.8501

> <Gold.PLP.part.repulsive>
0.1143

> <Gold.PLP.ligand.clash>
0.0000

> <Gold.PLP.ligand.torsion>
0.0000

> <Gold.PLP.Chemscore.Hbond>
0.7999

> <Gold.PLP.Chemscore.CHOScore>
0.0000

> <Gold.PLP.Chemscore.Metal>
0.0000

> <Gold.Chemscore.Hbonds>
donor molecule, donor type, donor heavy atom, donor atom, acceptor molecule, acceptor atom, score
      L1  H     8    18       P1  1131  0.61
      L1  H    10    19       P1   582  0.19

> <Gold.PLP.Chemscore.Internal.Correction>
0.0000

