#       Name:                EN300-126720_i001
#       Creating user name   aseyller
#       Creation time:       Fri Apr 21 16:29:16 2023


#       File generated by GOLD software.
#

@<TRIPOS>MOLECULE
EN300-126720_i001|aminophenols|mol2|30|dock7
    20    20     1
SMALL
USER_CHARGES


@<TRIPOS>ATOM
      1 C1          31.1129  35.7166  38.7975 C.3            1 <1>                0.0000
      2 C2          30.0020  36.7156  38.6007 C.2            1 <1>                0.0000
      3 O3          30.0681  37.5268  37.7013 O.2            1 <1>                0.0000
      4 C4          28.8394  36.7072  39.4980 C.ar           1 <1>                0.0000
      5 C5          29.0017  36.4008  40.8545 C.ar           1 <1>                0.0000
      6 C6          27.9104  36.3937  41.6944 C.ar           1 <1>                0.0000
      7 C7          26.6469  36.6900  41.2004 C.ar           1 <1>                0.0000
      8 O8          25.5751  36.6815  42.0338 O.3            1 <1>                0.0000
      9 C9          26.4757  36.9973  39.8491 C.ar           1 <1>                0.0000
     10 N10         25.2004  37.2962  39.3552 N.pl3          1 <1>                0.0000
     11 C11         27.5663  37.0112  39.0004 C.ar           1 <1>                0.0000
     12 H12         31.8828  35.8759  38.0426 H              1 <1>                0.0000
     13 H13         31.5452  35.8446  39.7899 H              1 <1>                0.0000
     14 H14         30.7143  34.7066  38.7024 H              1 <1>                0.0000
     15 H15         29.9828  36.1695  41.2421 H              1 <1>                0.0000
     16 H16         28.0376  36.1568  42.7404 H              1 <1>                0.0000
     17 H17         27.4360  37.2486  37.9549 H              1 <1>                0.0000
     18 H18         25.6037  35.9853  42.7042 H              1 <1>                0.0000
     19 H19         24.4356  37.2900  39.9518 H              1 <1>                0.0000
     20 H20         25.0816  37.5097  38.4165 H              1 <1>                0.0000
@<TRIPOS>BOND
    1    1    2 1     
    2    1   12 1     
    3    1   13 1     
    4    1   14 1     
    5    2    3 2     
    6    2    4 1     
    7    4    5 ar    
    8    4   11 ar    
    9    5    6 ar    
   10    5   15 1     
   11    6    7 ar    
   12    6   16 1     
   13    7    8 1     
   14    7    9 ar    
   15    8   18 1     
   16    9   10 1     
   17    9   11 ar    
   18   10   19 1     
   19   10   20 1     
   20   11   17 1     
@<TRIPOS>SUBSTRUCTURE
      1 ****           1
@<TRIPOS>SET
DONOR_HYDROGENS      STATIC     ATOMS    <user>   **** ""
3 18 19 20
ATOM$RED        STATIC     ATOMS    COLORGROUP SYSTEM
3 18 19 20
@<TRIPOS>COMMENT
> <Gold.Version>
2022.2.0

> <Gold.Id.Protein>
1qkm|1qkm_protein|mol2

> <Gold.Protein.RotatedTorsions>
[  496  491  490  487 ] final   36.77 input  -89.99 | X-H torsion

> <Gold.Protein.ActiveResidues>
 MET295  LEU298  THR299  LEU301  ALA302  GLU305  TRP335  MET336  LEU339  MET340 
 GLY342  LEU343  ARG346  PHE356  ILE373  ILE376  PHE377  LEU380  LYS471  GLY472 
 MET473  HIS475  LEU476  LEU477  ASN478  MET479  VAL484  VAL487 

> <Gold.Protein.RotatedAtoms>
   36.3838   33.6506   42.3827 H   0  0  0  0  0  0  0  0  0  0  0  0  # atno 496  bound_to 491 

> <Gold.Score>
     Score     S(PLP)   S(hbond)     S(cho)   S(metal)  DE(clash)   DE(tors)     intcor
     41.99     -39.69       1.11       0.00       0.00       0.00       0.51       0.00

> <Gold.PLP.Fitness>
41.9893

> <Gold.PLP.PLP>
-39.6898

> <Gold.PLP.part.hbond>
-2.9956

> <Gold.PLP.part.metal>
0.0000

> <Gold.PLP.part.buried>
-4.2404

> <Gold.PLP.part.nonpolar>
-33.1110

> <Gold.PLP.part.repulsive>
0.1168

> <Gold.PLP.ligand.clash>
0.0000

> <Gold.PLP.ligand.torsion>
0.5098

> <Gold.PLP.Chemscore.Hbond>
1.1064

> <Gold.PLP.Chemscore.CHOScore>
0.0000

> <Gold.PLP.Chemscore.Metal>
0.0000

> <Gold.Chemscore.Hbonds>
donor molecule, donor type, donor heavy atom, donor atom, acceptor molecule, acceptor atom, score
      L1  H     8    18       P1   582  1.00
      L1  H    10    19       P1  1131  0.09
      P1  H  1258  1270       L1     8  0.01

> <Gold.PLP.Chemscore.Internal.Correction>
0.0000

