#       Name:                EN300-126720_i001
#       Creating user name   aseyller
#       Creation time:       Fri Apr 21 16:29:13 2023


#       File generated by GOLD software.
#

@<TRIPOS>MOLECULE
EN300-126720_i001|aminophenols|mol2|30|dock2
    20    20     1
SMALL
USER_CHARGES


@<TRIPOS>ATOM
      1 C1          28.4855  38.7601  36.9679 C.3            1 <1>                0.0000
      2 C2          28.7121  37.5512  37.8387 C.2            1 <1>                0.0000
      3 O3          29.6866  36.8508  37.6626 O.2            1 <1>                0.0000
      4 C4          27.7528  37.2210  38.9007 C.ar           1 <1>                0.0000
      5 C5          26.4131  37.6102  38.7824 C.ar           1 <1>                0.0000
      6 C6          25.5150  37.2994  39.7790 C.ar           1 <1>                0.0000
      7 C7          25.9336  36.6000  40.9031 C.ar           1 <1>                0.0000
      8 O8          25.0430  36.2965  41.8821 O.3            1 <1>                0.0000
      9 C9          27.2676  36.2073  41.0294 C.ar           1 <1>                0.0000
     10 N10         27.6853  35.5016  42.1639 N.pl3          1 <1>                0.0000
     11 C11         28.1743  36.5111  40.0316 C.ar           1 <1>                0.0000
     12 H12         29.2951  38.8424  36.2427 H              1 <1>                0.0000
     13 H13         27.5362  38.6566  36.4425 H              1 <1>                0.0000
     14 H14         28.4614  39.6557  37.5887 H              1 <1>                0.0000
     15 H15         26.0841  38.1546  37.9096 H              1 <1>                0.0000
     16 H16         24.4821  37.6007  39.6860 H              1 <1>                0.0000
     17 H17         29.2066  36.2083  40.1274 H              1 <1>                0.0000
     18 H18         25.3081  35.5507  42.4375 H              1 <1>                0.0000
     19 H19         27.0480  35.2853  42.8624 H              1 <1>                0.0000
     20 H20         28.6121  35.2289  42.2514 H              1 <1>                0.0000
@<TRIPOS>BOND
    1    1    2 1     
    2    1   12 1     
    3    1   13 1     
    4    1   14 1     
    5    2    3 2     
    6    2    4 1     
    7    4    5 ar    
    8    4   11 ar    
    9    5    6 ar    
   10    5   15 1     
   11    6    7 ar    
   12    6   16 1     
   13    7    8 1     
   14    7    9 ar    
   15    8   18 1     
   16    9   10 1     
   17    9   11 ar    
   18   10   19 1     
   19   10   20 1     
   20   11   17 1     
@<TRIPOS>SUBSTRUCTURE
      1 ****           1
@<TRIPOS>SET
DONOR_HYDROGENS      STATIC     ATOMS    <user>   **** ""
3 18 19 20
ATOM$RED        STATIC     ATOMS    COLORGROUP SYSTEM
3 18 19 20
@<TRIPOS>COMMENT
> <Gold.Version>
2022.2.0

> <Gold.Id.Protein>
1qkm|1qkm_protein|mol2

> <Gold.Protein.RotatedTorsions>
[  496  491  490  487 ] final  -82.26 input  -89.99 | X-H torsion

> <Gold.Protein.ActiveResidues>
 MET295  LEU298  THR299  LEU301  ALA302  GLU305  TRP335  MET336  LEU339  MET340 
 GLY342  LEU343  ARG346  PHE356  ILE373  ILE376  PHE377  LEU380  LYS471  GLY472 
 MET473  HIS475  LEU476  LEU477  ASN478  MET479  VAL484  VAL487 

> <Gold.Protein.RotatedAtoms>
   36.6863   34.6965   41.1758 H   0  0  0  0  0  0  0  0  0  0  0  0  # atno 496  bound_to 491 

> <Gold.Score>
     Score     S(PLP)   S(hbond)     S(cho)   S(metal)  DE(clash)   DE(tors)     intcor
     46.59     -39.04       2.73       0.00       0.00       0.00       0.31       0.00

> <Gold.PLP.Fitness>
46.5937

> <Gold.PLP.PLP>
-39.0371

> <Gold.PLP.part.hbond>
-2.9257

> <Gold.PLP.part.metal>
0.0000

> <Gold.PLP.part.buried>
-4.6951

> <Gold.PLP.part.nonpolar>
-31.4500

> <Gold.PLP.part.repulsive>
0.0707

> <Gold.PLP.ligand.clash>
0.0000

> <Gold.PLP.ligand.torsion>
0.3126

> <Gold.PLP.Chemscore.Hbond>
2.7273

> <Gold.PLP.Chemscore.CHOScore>
0.0000

> <Gold.PLP.Chemscore.Metal>
0.0000

> <Gold.Chemscore.Hbonds>
donor molecule, donor type, donor heavy atom, donor atom, acceptor molecule, acceptor atom, score
      L1  H     8    18       P1   582  1.00
      L1  H    10    19       P1   582  0.99
      P1  H  1258  1270       L1     8  0.74

> <Gold.PLP.Chemscore.Internal.Correction>
0.0000

