#       Name:                EN300-126720_i001
#       Creating user name   aseyller
#       Creation time:       Fri Apr 21 16:29:14 2023


#       File generated by GOLD software.
#

@<TRIPOS>MOLECULE
EN300-126720_i001|aminophenols|mol2|30|dock3
    20    20     1
SMALL
USER_CHARGES


@<TRIPOS>ATOM
      1 C1          31.1796  36.1225  38.4935 C.3            1 <1>                0.0000
      2 C2          29.8685  36.7612  38.1140 C.2            1 <1>                0.0000
      3 O3          29.7859  37.4192  37.0983 O.2            1 <1>                0.0000
      4 C4          28.6908  36.5872  38.9740 C.ar           1 <1>                0.0000
      5 C5          27.4138  36.8874  38.4849 C.ar           1 <1>                0.0000
      6 C6          26.3106  36.7232  39.2926 C.ar           1 <1>                0.0000
      7 C7          26.4599  36.2600  40.5931 C.ar           1 <1>                0.0000
      8 O8          25.3682  36.1001  41.3843 O.3            1 <1>                0.0000
      9 C9          27.7297  35.9575  41.0892 C.ar           1 <1>                0.0000
     10 N10         27.8757  35.4899  42.4006 N.pl3          1 <1>                0.0000
     11 C11         28.8415  36.1149  40.2836 C.ar           1 <1>                0.0000
     12 H12         31.9311  36.3606  37.7408 H              1 <1>                0.0000
     13 H13         31.5024  36.5035  39.4623 H              1 <1>                0.0000
     14 H14         31.0537  35.0414  38.5518 H              1 <1>                0.0000
     15 H15         27.2939  37.2482  37.4740 H              1 <1>                0.0000
     16 H16         25.3264  36.9557  38.9135 H              1 <1>                0.0000
     17 H17         29.8244  35.8816  40.6655 H              1 <1>                0.0000
     18 H18         25.4928  35.4653  42.1029 H              1 <1>                0.0000
     19 H19         27.0949  35.3760  42.9646 H              1 <1>                0.0000
     20 H20         28.7578  35.2798  42.7451 H              1 <1>                0.0000
@<TRIPOS>BOND
    1    1    2 1     
    2    1   12 1     
    3    1   13 1     
    4    1   14 1     
    5    2    3 2     
    6    2    4 1     
    7    4    5 ar    
    8    4   11 ar    
    9    5    6 ar    
   10    5   15 1     
   11    6    7 ar    
   12    6   16 1     
   13    7    8 1     
   14    7    9 ar    
   15    8   18 1     
   16    9   10 1     
   17    9   11 ar    
   18   10   19 1     
   19   10   20 1     
   20   11   17 1     
@<TRIPOS>SUBSTRUCTURE
      1 ****           1
@<TRIPOS>SET
DONOR_HYDROGENS      STATIC     ATOMS    <user>   **** ""
3 18 19 20
ATOM$RED        STATIC     ATOMS    COLORGROUP SYSTEM
3 18 19 20
@<TRIPOS>COMMENT
> <Gold.Version>
2022.2.0

> <Gold.Id.Protein>
1qkm|1qkm_protein|mol2

> <Gold.Protein.RotatedTorsions>
[  496  491  490  487 ] final  -18.33 input  -89.99 | X-H torsion

> <Gold.Protein.ActiveResidues>
 MET295  LEU298  THR299  LEU301  ALA302  GLU305  TRP335  MET336  LEU339  MET340 
 GLY342  LEU343  ARG346  PHE356  ILE373  ILE376  PHE377  LEU380  LYS471  GLY472 
 MET473  HIS475  LEU476  LEU477  ASN478  MET479  VAL484  VAL487 

> <Gold.Protein.RotatedAtoms>
   36.2767   34.4510   42.0528 H   0  0  0  0  0  0  0  0  0  0  0  0  # atno 496  bound_to 491 

> <Gold.Score>
     Score     S(PLP)   S(hbond)     S(cho)   S(metal)  DE(clash)   DE(tors)     intcor
     43.92     -38.13       2.00       0.00       0.00       0.00       0.11       0.00

> <Gold.PLP.Fitness>
43.9159

> <Gold.PLP.PLP>
-38.1291

> <Gold.PLP.part.hbond>
-1.9771

> <Gold.PLP.part.metal>
0.0000

> <Gold.PLP.part.buried>
-3.5025

> <Gold.PLP.part.nonpolar>
-31.7573

> <Gold.PLP.part.repulsive>
0.0827

> <Gold.PLP.ligand.clash>
0.0000

> <Gold.PLP.ligand.torsion>
0.1066

> <Gold.PLP.Chemscore.Hbond>
2.0000

> <Gold.PLP.Chemscore.CHOScore>
0.0000

> <Gold.PLP.Chemscore.Metal>
0.0000

> <Gold.Chemscore.Hbonds>
donor molecule, donor type, donor heavy atom, donor atom, acceptor molecule, acceptor atom, score
      L1  H     8    18       P1   582  1.00
      L1  H    10    19       P1   582  1.00

> <Gold.PLP.Chemscore.Internal.Correction>
0.0000

