#       Name:                EN300-126720_i001
#       Creating user name   aseyller
#       Creation time:       Fri Apr 21 16:29:15 2023


#       File generated by GOLD software.
#

@<TRIPOS>MOLECULE
EN300-126720_i001|aminophenols|mol2|30|dock6
    20    20     1
SMALL
USER_CHARGES


@<TRIPOS>ATOM
      1 C1          30.9203  37.6095  37.5644 C.3            1 <1>                0.0000
      2 C2          29.4451  37.9148  37.6054 C.2            1 <1>                0.0000
      3 O3          28.9600  38.6737  36.7929 O.2            1 <1>                0.0000
      4 C4          28.5948  37.2936  38.6291 C.ar           1 <1>                0.0000
      5 C5          27.2131  37.1922  38.4271 C.ar           1 <1>                0.0000
      6 C6          26.4174  36.6091  39.3880 C.ar           1 <1>                0.0000
      7 C7          26.9812  36.1200  40.5589 C.ar           1 <1>                0.0000
      8 O8          26.1912  35.5460  41.5023 O.3            1 <1>                0.0000
      9 C9          28.3583  36.2163  40.7687 C.ar           1 <1>                0.0000
     10 N10         28.9228  35.7211  41.9502 N.pl3          1 <1>                0.0000
     11 C11         29.1646  36.7957  39.8074 C.ar           1 <1>                0.0000
     12 H12         31.3822  38.1581  36.7436 H              1 <1>                0.0000
     13 H13         31.3797  37.9098  38.5061 H              1 <1>                0.0000
     14 H14         31.0659  36.5398  37.4139 H              1 <1>                0.0000
     15 H15         26.7711  37.5719  37.5177 H              1 <1>                0.0000
     16 H16         25.3518  36.5322  39.2304 H              1 <1>                0.0000
     17 H17         30.2299  36.8712  39.9677 H              1 <1>                0.0000
     18 H18         26.6428  35.3688  42.3387 H              1 <1>                0.0000
     19 H19         28.3573  35.3111  42.6231 H              1 <1>                0.0000
     20 H20         29.8795  35.7881  42.0957 H              1 <1>                0.0000
@<TRIPOS>BOND
    1    1    2 1     
    2    1   12 1     
    3    1   13 1     
    4    1   14 1     
    5    2    3 2     
    6    2    4 1     
    7    4    5 ar    
    8    4   11 ar    
    9    5    6 ar    
   10    5   15 1     
   11    6    7 ar    
   12    6   16 1     
   13    7    8 1     
   14    7    9 ar    
   15    8   18 1     
   16    9   10 1     
   17    9   11 ar    
   18   10   19 1     
   19   10   20 1     
   20   11   17 1     
@<TRIPOS>SUBSTRUCTURE
      1 ****           1
@<TRIPOS>SET
DONOR_HYDROGENS      STATIC     ATOMS    <user>   **** ""
3 18 19 20
ATOM$RED        STATIC     ATOMS    COLORGROUP SYSTEM
3 18 19 20
@<TRIPOS>COMMENT
> <Gold.Version>
2022.2.0

> <Gold.Id.Protein>
1qkm|1qkm_protein|mol2

> <Gold.Protein.RotatedTorsions>
[  496  491  490  487 ] final    1.67 input  -89.99 | X-H torsion

> <Gold.Protein.ActiveResidues>
 MET295  LEU298  THR299  LEU301  ALA302  GLU305  TRP335  MET336  LEU339  MET340 
 GLY342  LEU343  ARG346  PHE356  ILE373  ILE376  PHE377  LEU380  LYS471  GLY472 
 MET473  HIS475  LEU476  LEU477  ASN478  MET479  VAL484  VAL487 

> <Gold.Protein.RotatedAtoms>
   36.2609   34.1896   42.2496 H   0  0  0  0  0  0  0  0  0  0  0  0  # atno 496  bound_to 491 

> <Gold.Score>
     Score     S(PLP)   S(hbond)     S(cho)   S(metal)  DE(clash)   DE(tors)     intcor
     40.71     -36.37       1.58       0.00       0.00       0.00       0.20       0.00

> <Gold.PLP.Fitness>
40.7140

> <Gold.PLP.PLP>
-36.3665

> <Gold.PLP.part.hbond>
-1.8495

> <Gold.PLP.part.metal>
0.0000

> <Gold.PLP.part.buried>
-4.6866

> <Gold.PLP.part.nonpolar>
-30.1785

> <Gold.PLP.part.repulsive>
0.0942

> <Gold.PLP.ligand.clash>
0.0000

> <Gold.PLP.ligand.torsion>
0.2008

> <Gold.PLP.Chemscore.Hbond>
1.5830

> <Gold.PLP.Chemscore.CHOScore>
0.0000

> <Gold.PLP.Chemscore.Metal>
0.0000

> <Gold.Chemscore.Hbonds>
donor molecule, donor type, donor heavy atom, donor atom, acceptor molecule, acceptor atom, score
      L1  H     8    18       P1   582  0.61
      L1  H    10    20       P1   470  0.98

> <Gold.PLP.Chemscore.Internal.Correction>
0.0000

