#       Name:                EN300-126720_i001
#       Creating user name   aseyller
#       Creation time:       Fri Apr 21 16:29:13 2023


#       File generated by GOLD software.
#

@<TRIPOS>MOLECULE
EN300-126720_i001|aminophenols|mol2|30|dock1
    20    20     1
SMALL
USER_CHARGES


@<TRIPOS>ATOM
      1 C1          30.1309  37.0232  37.9211 C.3            1 <1>                0.0000
      2 C2          28.7522  37.6307  37.8866 C.2            1 <1>                0.0000
      3 O3          28.4558  38.4127  37.0079 O.2            1 <1>                0.0000
      4 C4          27.7675  37.2761  38.9169 C.ar           1 <1>                0.0000
      5 C5          26.4180  37.6049  38.7410 C.ar           1 <1>                0.0000
      6 C6          25.4960  37.2711  39.7079 C.ar           1 <1>                0.0000
      7 C7          25.9002  36.6084  40.8592 C.ar           1 <1>                0.0000
      8 O8          24.9862  36.2821  41.8087 O.3            1 <1>                0.0000
      9 C9          27.2440  36.2760  41.0429 C.ar           1 <1>                0.0000
     10 N10         27.6471  35.6070  42.2046 N.pl3          1 <1>                0.0000
     11 C11         28.1748  36.6030  40.0752 C.ar           1 <1>                0.0000
     12 H12         30.7162  37.4025  37.0834 H              1 <1>                0.0000
     13 H13         30.6218  37.2891  38.8572 H              1 <1>                0.0000
     14 H14         30.0519  35.9386  37.8475 H              1 <1>                0.0000
     15 H15         26.1001  38.1207  37.8469 H              1 <1>                0.0000
     16 H16         24.4556  37.5259  39.5705 H              1 <1>                0.0000
     17 H17         29.2146  36.3469  40.2154 H              1 <1>                0.0000
     18 H18         25.2253  35.5068  42.3348 H              1 <1>                0.0000
     19 H19         26.9931  35.3743  42.8820 H              1 <1>                0.0000
     20 H20         28.5806  35.3762  42.3321 H              1 <1>                0.0000
@<TRIPOS>BOND
    1    1    2 1     
    2    1   12 1     
    3    1   13 1     
    4    1   14 1     
    5    2    3 2     
    6    2    4 1     
    7    4    5 ar    
    8    4   11 ar    
    9    5    6 ar    
   10    5   15 1     
   11    6    7 ar    
   12    6   16 1     
   13    7    8 1     
   14    7    9 ar    
   15    8   18 1     
   16    9   10 1     
   17    9   11 ar    
   18   10   19 1     
   19   10   20 1     
   20   11   17 1     
@<TRIPOS>SUBSTRUCTURE
      1 ****           1
@<TRIPOS>SET
DONOR_HYDROGENS      STATIC     ATOMS    <user>   **** ""
3 18 19 20
ATOM$RED        STATIC     ATOMS    COLORGROUP SYSTEM
3 18 19 20
@<TRIPOS>COMMENT
> <Gold.Version>
2022.2.0

> <Gold.Id.Protein>
1qkm|1qkm_protein|mol2

> <Gold.Protein.RotatedTorsions>
[  496  491  490  487 ] final  130.19 input  -89.99 | X-H torsion

> <Gold.Protein.ActiveResidues>
 MET295  LEU298  THR299  LEU301  ALA302  GLU305  TRP335  MET336  LEU339  MET340 
 GLY342  LEU343  ARG346  PHE356  ILE373  ILE376  PHE377  LEU380  LYS471  GLY472 
 MET473  HIS475  LEU476  LEU477  ASN478  MET479  VAL484  VAL487 

> <Gold.Protein.RotatedAtoms>
   37.1543   32.9719   41.4710 H   0  0  0  0  0  0  0  0  0  0  0  0  # atno 496  bound_to 491 

> <Gold.Score>
     Score     S(PLP)   S(hbond)     S(cho)   S(metal)  DE(clash)   DE(tors)     intcor
     46.76     -38.66       2.75       0.00       0.00       0.00       0.08       0.00

> <Gold.PLP.Fitness>
46.7606

> <Gold.PLP.PLP>
-38.6632

> <Gold.PLP.part.hbond>
-3.2066

> <Gold.PLP.part.metal>
0.0000

> <Gold.PLP.part.buried>
-4.6815

> <Gold.PLP.part.nonpolar>
-30.7751

> <Gold.PLP.part.repulsive>
0.0663

> <Gold.PLP.ligand.clash>
0.0000

> <Gold.PLP.ligand.torsion>
0.0801

> <Gold.PLP.Chemscore.Hbond>
2.7525

> <Gold.PLP.Chemscore.CHOScore>
0.0000

> <Gold.PLP.Chemscore.Metal>
0.0000

> <Gold.Chemscore.Hbonds>
donor molecule, donor type, donor heavy atom, donor atom, acceptor molecule, acceptor atom, score
      L1  H     8    18       P1   582  1.00
      L1  H    10    19       P1   582  0.99
      P1  H  1258  1270       L1     8  0.76

> <Gold.PLP.Chemscore.Internal.Correction>
0.0000

