#       Name:                EN300-126720_i001
#       Creating user name   aseyller
#       Creation time:       Fri Apr 21 16:29:18 2023


#       File generated by GOLD software.
#

@<TRIPOS>MOLECULE
EN300-126720_i001|aminophenols|mol2|30|dock11
    20    20     1
SMALL
USER_CHARGES


@<TRIPOS>ATOM
      1 C1          32.1281  38.1361  34.0805 C.3            1 <1>                0.0000
      2 C2          32.8114  37.1468  34.9891 C.2            1 <1>                0.0000
      3 O3          33.8988  36.6998  34.6906 O.2            1 <1>                0.0000
      4 C4          32.1607  36.7240  36.2360 C.ar           1 <1>                0.0000
      5 C5          32.7057  35.6801  36.9933 C.ar           1 <1>                0.0000
      6 C6          32.0945  35.2852  38.1624 C.ar           1 <1>                0.0000
      7 C7          30.9372  35.9195  38.5942 C.ar           1 <1>                0.0000
      8 O8          30.3395  35.5255  39.7478 O.3            1 <1>                0.0000
      9 C9          30.3868  36.9619  37.8457 C.ar           1 <1>                0.0000
     10 N10         29.2205  37.5994  38.2850 N.pl3          1 <1>                0.0000
     11 C11         30.9967  37.3675  36.6737 C.ar           1 <1>                0.0000
     12 H12         32.7580  38.3268  33.2117 H              1 <1>                0.0000
     13 H13         31.1717  37.7284  33.7534 H              1 <1>                0.0000
     14 H14         31.9604  39.0686  34.6194 H              1 <1>                0.0000
     15 H15         33.6056  35.1842  36.6602 H              1 <1>                0.0000
     16 H16         32.5163  34.4795  38.7449 H              1 <1>                0.0000
     17 H17         30.5726  38.1735  36.0933 H              1 <1>                0.0000
     18 H18         30.9570  35.2203  40.4265 H              1 <1>                0.0000
     19 H19         28.7947  37.3170  39.1095 H              1 <1>                0.0000
     20 H20         28.8383  38.3235  37.7649 H              1 <1>                0.0000
@<TRIPOS>BOND
    1    1    2 1     
    2    1   12 1     
    3    1   13 1     
    4    1   14 1     
    5    2    3 2     
    6    2    4 1     
    7    4    5 ar    
    8    4   11 ar    
    9    5    6 ar    
   10    5   15 1     
   11    6    7 ar    
   12    6   16 1     
   13    7    8 1     
   14    7    9 ar    
   15    8   18 1     
   16    9   10 1     
   17    9   11 ar    
   18   10   19 1     
   19   10   20 1     
   20   11   17 1     
@<TRIPOS>SUBSTRUCTURE
      1 ****           1
@<TRIPOS>SET
DONOR_HYDROGENS      STATIC     ATOMS    <user>   **** ""
3 18 19 20
ATOM$RED        STATIC     ATOMS    COLORGROUP SYSTEM
3 18 19 20
@<TRIPOS>COMMENT
> <Gold.Version>
2022.2.0

> <Gold.Id.Protein>
1qkm|1qkm_protein|mol2

> <Gold.Protein.RotatedTorsions>
[  496  491  490  487 ] final  143.24 input  -89.99 | X-H torsion

> <Gold.Protein.ActiveResidues>
 MET295  LEU298  THR299  LEU301  ALA302  GLU305  TRP335  MET336  LEU339  MET340 
 GLY342  LEU343  ARG346  PHE356  ILE373  ILE376  PHE377  LEU380  LYS471  GLY472 
 MET473  HIS475  LEU476  LEU477  ASN478  MET479  VAL484  VAL487 

> <Gold.Protein.RotatedAtoms>
   37.2315   33.0483   41.2862 H   0  0  0  0  0  0  0  0  0  0  0  0  # atno 496  bound_to 491 

> <Gold.Score>
     Score     S(PLP)   S(hbond)     S(cho)   S(metal)  DE(clash)   DE(tors)     intcor
     37.61     -34.68       1.00       0.00       0.00       0.00       0.03       0.00

> <Gold.PLP.Fitness>
37.6108

> <Gold.PLP.PLP>
-34.6754

> <Gold.PLP.part.hbond>
-1.0000

> <Gold.PLP.part.metal>
0.0000

> <Gold.PLP.part.buried>
-4.4706

> <Gold.PLP.part.nonpolar>
-30.3759

> <Gold.PLP.part.repulsive>
0.7683

> <Gold.PLP.ligand.clash>
0.0000

> <Gold.PLP.ligand.torsion>
0.0323

> <Gold.PLP.Chemscore.Hbond>
1.0000

> <Gold.PLP.Chemscore.CHOScore>
0.0000

> <Gold.PLP.Chemscore.Metal>
0.0000

> <Gold.Chemscore.Hbonds>
donor molecule, donor type, donor heavy atom, donor atom, acceptor molecule, acceptor atom, score
      L1  H     8    18       P1   470  1.00

> <Gold.PLP.Chemscore.Internal.Correction>
0.0000

