#       Name:                EN300-140735_i001
#       Creating user name   aseyller
#       Creation time:       Fri Apr 21 16:30:06 2023


#       File generated by GOLD software.
#

@<TRIPOS>MOLECULE
EN300-140735_i001|aminophenols|mol2|35|dock12
    15    15     1
SMALL
USER_CHARGES


@<TRIPOS>ATOM
      1 N1          29.3793  35.8603  42.0449 N.pl3          1 <1>                0.0000
      2 C2          28.6012  36.3063  40.9705 C.ar           1 <1>                0.0000
      3 C3          29.1669  36.4401  39.7106 C.ar           1 <1>                0.0000
      4 C4          28.3956  36.8814  38.6496 C.ar           1 <1>                0.0000
      5 F5          28.9472  37.0114  37.4232 F              1 <1>                0.0000
      6 C6          27.0596  37.1895  38.8426 C.ar           1 <1>                0.0000
      7 C7          26.4905  37.0577  40.0971 C.ar           1 <1>                0.0000
      8 Cl8         24.8149  37.4445  40.3345 Cl             1 <1>                0.0000
      9 C9          27.2560  36.6114  41.1624 C.ar           1 <1>                0.0000
     10 O10         26.6971  36.4816  42.3964 O.3            1 <1>                0.0000
     11 H11         30.2088  36.2004  39.5581 H              1 <1>                0.0000
     12 H12         26.4606  37.5335  38.0124 H              1 <1>                0.0000
     13 H13         30.3151  35.6443  41.9092 H              1 <1>                0.0000
     14 H14         28.9837  35.7708  42.9261 H              1 <1>                0.0000
     15 H15         26.6405  35.5680  42.7084 H              1 <1>                0.0000
@<TRIPOS>BOND
    1    1    2 1     
    2    1   13 1     
    3    1   14 1     
    4    2    3 ar    
    5    2    9 ar    
    6    3    4 ar    
    7    3   11 1     
    8    4    5 1     
    9    4    6 ar    
   10    6    7 ar    
   11    6   12 1     
   12    7    8 1     
   13    7    9 ar    
   14    9   10 1     
   15   10   15 1     
@<TRIPOS>SUBSTRUCTURE
      1 ****           1
@<TRIPOS>SET
DONOR_HYDROGENS      STATIC     ATOMS    <user>   **** ""
3 13 14 15
ATOM$RED        STATIC     ATOMS    COLORGROUP SYSTEM
3 13 14 15
@<TRIPOS>COMMENT
> <Gold.Version>
2022.2.0

> <Gold.Id.Protein>
1qkm|1qkm_protein|mol2

> <Gold.Protein.RotatedTorsions>
[  496  491  490  487 ] final   33.93 input  -89.99 | X-H torsion

> <Gold.Protein.ActiveResidues>
 MET295  LEU298  THR299  LEU301  ALA302  GLU305  TRP335  MET336  LEU339  MET340 
 GLY342  LEU343  ARG346  PHE356  ILE373  ILE376  PHE377  LEU380  LYS471  GLY472 
 MET473  HIS475  LEU476  LEU477  ASN478  MET479  VAL484  VAL487 

> <Gold.Protein.RotatedAtoms>
   36.3674   33.6943   42.3832 H   0  0  0  0  0  0  0  0  0  0  0  0  # atno 496  bound_to 491 

> <Gold.Score>
     Score     S(PLP)   S(hbond)     S(cho)   S(metal)  DE(clash)   DE(tors)     intcor
     35.82     -29.94       1.96       0.00       0.00       0.00       0.00       0.00

> <Gold.PLP.Fitness>
35.8160

> <Gold.PLP.PLP>
-29.9360

> <Gold.PLP.part.hbond>
-1.7474

> <Gold.PLP.part.metal>
0.0000

> <Gold.PLP.part.buried>
-0.6377

> <Gold.PLP.part.nonpolar>
-28.1858

> <Gold.PLP.part.repulsive>
0.1252

> <Gold.PLP.ligand.clash>
0.0000

> <Gold.PLP.ligand.torsion>
0.0000

> <Gold.PLP.Chemscore.Hbond>
1.9600

> <Gold.PLP.Chemscore.CHOScore>
0.0000

> <Gold.PLP.Chemscore.Metal>
0.0000

> <Gold.Chemscore.Hbonds>
donor molecule, donor type, donor heavy atom, donor atom, acceptor molecule, acceptor atom, score
      L1  H     1    13       P1   470  1.00
      L1  H    10    15       P1   582  0.96

> <Gold.PLP.Chemscore.Internal.Correction>
0.0000

