#       Name:                EN300-140735_i001
#       Creating user name   aseyller
#       Creation time:       Fri Apr 21 16:30:05 2023


#       File generated by GOLD software.
#

@<TRIPOS>MOLECULE
EN300-140735_i001|aminophenols|mol2|35|dock11
    15    15     1
SMALL
USER_CHARGES


@<TRIPOS>ATOM
      1 N1          32.0246  33.4130  38.6825 N.pl3          1 <1>                0.0000
      2 C2          31.9282  34.6535  38.0417 C.ar           1 <1>                0.0000
      3 C3          32.6926  34.9146  36.9135 C.ar           1 <1>                0.0000
      4 C4          32.5957  36.1420  36.2815 C.ar           1 <1>                0.0000
      5 F5          33.3403  36.3955  35.1830 F              1 <1>                0.0000
      6 C6          31.7369  37.1106  36.7727 C.ar           1 <1>                0.0000
      7 C7          30.9723  36.8553  37.8975 C.ar           1 <1>                0.0000
      8 Cl8         29.8962  38.0723  38.5096 Cl             1 <1>                0.0000
      9 C9          31.0607  35.6265  38.5318 C.ar           1 <1>                0.0000
     10 O10         30.3092  35.3747  39.6381 O.3            1 <1>                0.0000
     11 H11         33.3632  34.1604  36.5289 H              1 <1>                0.0000
     12 H12         31.6637  38.0673  36.2770 H              1 <1>                0.0000
     13 H13         32.6263  32.7347  38.3379 H              1 <1>                0.0000
     14 H14         31.4927  33.2330  39.4734 H              1 <1>                0.0000
     15 H15         30.8284  35.1789  40.4300 H              1 <1>                0.0000
@<TRIPOS>BOND
    1    1    2 1     
    2    1   13 1     
    3    1   14 1     
    4    2    3 ar    
    5    2    9 ar    
    6    3    4 ar    
    7    3   11 1     
    8    4    5 1     
    9    4    6 ar    
   10    6    7 ar    
   11    6   12 1     
   12    7    8 1     
   13    7    9 ar    
   14    9   10 1     
   15   10   15 1     
@<TRIPOS>SUBSTRUCTURE
      1 ****           1
@<TRIPOS>SET
DONOR_HYDROGENS      STATIC     ATOMS    <user>   **** ""
3 13 14 15
ATOM$RED        STATIC     ATOMS    COLORGROUP SYSTEM
3 13 14 15
@<TRIPOS>COMMENT
> <Gold.Version>
2022.2.0

> <Gold.Id.Protein>
1qkm|1qkm_protein|mol2

> <Gold.Protein.RotatedTorsions>
[  496  491  490  487 ] final  164.88 input  -89.99 | X-H torsion

> <Gold.Protein.ActiveResidues>
 MET295  LEU298  THR299  LEU301  ALA302  GLU305  TRP335  MET336  LEU339  MET340 
 GLY342  LEU343  ARG346  PHE356  ILE373  ILE376  PHE377  LEU380  LYS471  GLY472 
 MET473  HIS475  LEU476  LEU477  ASN478  MET479  VAL484  VAL487 

> <Gold.Protein.RotatedAtoms>
   37.3077   33.2619   41.0143 H   0  0  0  0  0  0  0  0  0  0  0  0  # atno 496  bound_to 491 

> <Gold.Score>
     Score     S(PLP)   S(hbond)     S(cho)   S(metal)  DE(clash)   DE(tors)     intcor
     35.22     -32.22       1.00       0.00       0.00       0.00       0.00       0.00

> <Gold.PLP.Fitness>
35.2198

> <Gold.PLP.PLP>
-32.2198

> <Gold.PLP.part.hbond>
-1.0000

> <Gold.PLP.part.metal>
0.0000

> <Gold.PLP.part.buried>
-2.9856

> <Gold.PLP.part.nonpolar>
-28.7334

> <Gold.PLP.part.repulsive>
0.0501

> <Gold.PLP.ligand.clash>
0.0000

> <Gold.PLP.ligand.torsion>
0.0000

> <Gold.PLP.Chemscore.Hbond>
1.0000

> <Gold.PLP.Chemscore.CHOScore>
0.0000

> <Gold.PLP.Chemscore.Metal>
0.0000

> <Gold.Chemscore.Hbonds>
donor molecule, donor type, donor heavy atom, donor atom, acceptor molecule, acceptor atom, score
      L1  H    10    15       P1   470  1.00

> <Gold.PLP.Chemscore.Internal.Correction>
0.0000

