#       Name:                EN300-140735_i001
#       Creating user name   aseyller
#       Creation time:       Fri Apr 21 16:30:03 2023


#       File generated by GOLD software.
#

@<TRIPOS>MOLECULE
EN300-140735_i001
    15    15     1
SMALL
USER_CHARGES


@<TRIPOS>ATOM
      1 N1           0.6658   2.1582  -0.0694 N.pl3          1 <1>                0.0000
      2 C2           0.3863   0.7869  -0.0628 C.ar           1 <1>                0.0000
      3 C3           1.4240  -0.1342  -0.0536 C.ar           1 <1>                0.0000
      4 C4           1.1453  -1.4898  -0.0471 C.ar           1 <1>                0.0000
      5 F5           2.1562  -2.3860  -0.0382 F              1 <1>                0.0000
      6 C6          -0.1677  -1.9292  -0.0494 C.ar           1 <1>                0.0000
      7 C7          -1.2063  -1.0148  -0.0585 C.ar           1 <1>                0.0000
      8 Cl8         -2.8511  -1.5701  -0.0607 Cl             1 <1>                0.0000
      9 C9          -0.9340   0.3439  -0.0597 C.ar           1 <1>                0.0000
     10 O10         -1.9548   1.2438  -0.0687 O.3            1 <1>                0.0000
     11 H11          2.4488   0.2066  -0.0519 H              1 <1>                0.0000
     12 H12         -0.3816  -2.9878  -0.0443 H              1 <1>                0.0000
     13 H13          1.5858   2.4656  -0.0676 H              1 <1>                0.0000
     14 H14         -0.0604   2.8012  -0.0798 H              1 <1>                0.0000
     15 H15         -2.2559   1.5058   0.8121 H              1 <1>                0.0000
@<TRIPOS>BOND
    1    1    2 1     
    2    1   13 1     
    3    1   14 1     
    4    2    3 ar    
    5    2    9 ar    
    6    3    4 ar    
    7    3   11 1     
    8    4    5 1     
    9    4    6 ar    
   10    6    7 ar    
   11    6   12 1     
   12    7    8 1     
   13    7    9 ar    
   14    9   10 1     
   15   10   15 1     
@<TRIPOS>SUBSTRUCTURE
      1 ****           1
@<TRIPOS>SET
DONOR_HYDROGENS      STATIC     ATOMS    <user>   **** ""
3 13 14 15
ATOM$RED        STATIC     ATOMS    COLORGROUP SYSTEM
3 13 14 15
