#       Name:                EN300-140735_i001
#       Creating user name   aseyller
#       Creation time:       Fri Apr 21 16:30:04 2023


#       File generated by GOLD software.
#

@<TRIPOS>MOLECULE
EN300-140735_i001|aminophenols|mol2|35|dock6
    15    15     1
SMALL
USER_CHARGES


@<TRIPOS>ATOM
      1 N1          27.6008  34.9032  41.7895 N.pl3          1 <1>                0.0000
      2 C2          27.8040  35.6573  40.6282 C.ar           1 <1>                0.0000
      3 C3          26.7682  36.4152  40.1010 C.ar           1 <1>                0.0000
      4 C4          26.9714  37.1602  38.9525 C.ar           1 <1>                0.0000
      5 F5          25.9623  37.8977  38.4398 F              1 <1>                0.0000
      6 C6          28.2072  37.1512  38.3282 C.ar           1 <1>                0.0000
      7 C7          29.2436  36.3972  38.8498 C.ar           1 <1>                0.0000
      8 Cl8         30.7917  36.3893  38.0641 Cl             1 <1>                0.0000
      9 C9          29.0482  35.6532  40.0024 C.ar           1 <1>                0.0000
     10 O10         30.0669  34.9114  40.5161 O.3            1 <1>                0.0000
     11 H11         25.8035  36.4234  40.5866 H              1 <1>                0.0000
     12 H12         28.3623  37.7337  37.4321 H              1 <1>                0.0000
     13 H13         26.7349  34.9100  42.2267 H              1 <1>                0.0000
     14 H14         28.3245  34.3707  42.1550 H              1 <1>                0.0000
     15 H15         30.6374  35.3968  41.1277 H              1 <1>                0.0000
@<TRIPOS>BOND
    1    1    2 1     
    2    1   13 1     
    3    1   14 1     
    4    2    3 ar    
    5    2    9 ar    
    6    3    4 ar    
    7    3   11 1     
    8    4    5 1     
    9    4    6 ar    
   10    6    7 ar    
   11    6   12 1     
   12    7    8 1     
   13    7    9 ar    
   14    9   10 1     
   15   10   15 1     
@<TRIPOS>SUBSTRUCTURE
      1 ****           1
@<TRIPOS>SET
DONOR_HYDROGENS      STATIC     ATOMS    <user>   **** ""
3 13 14 15
ATOM$RED        STATIC     ATOMS    COLORGROUP SYSTEM
3 13 14 15
@<TRIPOS>COMMENT
> <Gold.Version>
2022.2.0

> <Gold.Id.Protein>
1qkm|1qkm_protein|mol2

> <Gold.Protein.RotatedTorsions>
[  496  491  490  487 ] final  144.83 input  -89.99 | X-H torsion

> <Gold.Protein.ActiveResidues>
 MET295  LEU298  THR299  LEU301  ALA302  GLU305  TRP335  MET336  LEU339  MET340 
 GLY342  LEU343  ARG346  PHE356  ILE373  ILE376  PHE377  LEU380  LYS471  GLY472 
 MET473  HIS475  LEU476  LEU477  ASN478  MET479  VAL484  VAL487 

> <Gold.Protein.RotatedAtoms>
   37.2394   33.0605   41.2645 H   0  0  0  0  0  0  0  0  0  0  0  0  # atno 496  bound_to 491 

> <Gold.Score>
     Score     S(PLP)   S(hbond)     S(cho)   S(metal)  DE(clash)   DE(tors)     intcor
     33.15     -28.50       1.55       0.00       0.00       0.00       0.00       0.00

> <Gold.PLP.Fitness>
33.1525

> <Gold.PLP.PLP>
-28.4965

> <Gold.PLP.part.hbond>
-1.4064

> <Gold.PLP.part.metal>
0.0000

> <Gold.PLP.part.buried>
0.3854

> <Gold.PLP.part.nonpolar>
-28.7210

> <Gold.PLP.part.repulsive>
0.0777

> <Gold.PLP.ligand.clash>
0.0000

> <Gold.PLP.ligand.torsion>
0.0000

> <Gold.PLP.Chemscore.Hbond>
1.5520

> <Gold.PLP.Chemscore.CHOScore>
0.0000

> <Gold.PLP.Chemscore.Metal>
0.0000

> <Gold.Chemscore.Hbonds>
donor molecule, donor type, donor heavy atom, donor atom, acceptor molecule, acceptor atom, score
      L1  H     1    13       P1   582  0.77
      L1  H    10    15       P1   470  0.78

> <Gold.PLP.Chemscore.Internal.Correction>
0.0000

