#       Name:                EN300-140735_i001
#       Creating user name   aseyller
#       Creation time:       Fri Apr 21 16:30:04 2023


#       File generated by GOLD software.
#

@<TRIPOS>MOLECULE
EN300-140735_i001|aminophenols|mol2|35|dock4
    15    15     1
SMALL
USER_CHARGES


@<TRIPOS>ATOM
      1 N1          30.3533  35.8777  39.6544 N.pl3          1 <1>                0.0000
      2 C2          29.0202  36.2927  39.7496 C.ar           1 <1>                0.0000
      3 C3          28.3355  36.6989  38.6132 C.ar           1 <1>                0.0000
      4 C4          27.0172  37.1089  38.7097 C.ar           1 <1>                0.0000
      5 F5          26.3513  37.5044  37.6027 F              1 <1>                0.0000
      6 C6          26.3794  37.1143  39.9386 C.ar           1 <1>                0.0000
      7 C7          27.0576  36.7100  41.0751 C.ar           1 <1>                0.0000
      8 Cl8         26.2540  36.7177  42.6138 Cl             1 <1>                0.0000
      9 C9          28.3761  36.2934  40.9844 C.ar           1 <1>                0.0000
     10 O10         29.0438  35.8957  42.1015 O.3            1 <1>                0.0000
     11 H11         28.8313  36.6955  37.6537 H              1 <1>                0.0000
     12 H12         25.3506  37.4348  40.0103 H              1 <1>                0.0000
     13 H13         30.7997  35.8739  38.7932 H              1 <1>                0.0000
     14 H14         30.8322  35.5976  40.4501 H              1 <1>                0.0000
     15 H15         29.8376  35.3740  41.9204 H              1 <1>                0.0000
@<TRIPOS>BOND
    1    1    2 1     
    2    1   13 1     
    3    1   14 1     
    4    2    3 ar    
    5    2    9 ar    
    6    3    4 ar    
    7    3   11 1     
    8    4    5 1     
    9    4    6 ar    
   10    6    7 ar    
   11    6   12 1     
   12    7    8 1     
   13    7    9 ar    
   14    9   10 1     
   15   10   15 1     
@<TRIPOS>SUBSTRUCTURE
      1 ****           1
@<TRIPOS>SET
DONOR_HYDROGENS      STATIC     ATOMS    <user>   **** ""
3 13 14 15
ATOM$RED        STATIC     ATOMS    COLORGROUP SYSTEM
3 13 14 15
@<TRIPOS>COMMENT
> <Gold.Version>
2022.2.0

> <Gold.Id.Protein>
1qkm|1qkm_protein|mol2

> <Gold.Protein.RotatedTorsions>
[  496  491  490  487 ] final   67.79 input  -89.99 | X-H torsion

> <Gold.Protein.ActiveResidues>
 MET295  LEU298  THR299  LEU301  ALA302  GLU305  TRP335  MET336  LEU339  MET340 
 GLY342  LEU343  ARG346  PHE356  ILE373  ILE376  PHE377  LEU380  LYS471  GLY472 
 MET473  HIS475  LEU476  LEU477  ASN478  MET479  VAL484  VAL487 

> <Gold.Protein.RotatedAtoms>
   36.6179   33.2246   42.2479 H   0  0  0  0  0  0  0  0  0  0  0  0  # atno 496  bound_to 491 

> <Gold.Score>
     Score     S(PLP)   S(hbond)     S(cho)   S(metal)  DE(clash)   DE(tors)     intcor
     35.14     -29.17       1.99       0.00       0.00       0.00       0.00       0.00

> <Gold.PLP.Fitness>
35.1440

> <Gold.PLP.PLP>
-29.1680

> <Gold.PLP.part.hbond>
-2.2207

> <Gold.PLP.part.metal>
0.0000

> <Gold.PLP.part.buried>
1.8840

> <Gold.PLP.part.nonpolar>
-28.8253

> <Gold.PLP.part.repulsive>
0.0499

> <Gold.PLP.ligand.clash>
0.0000

> <Gold.PLP.ligand.torsion>
0.0000

> <Gold.PLP.Chemscore.Hbond>
1.9920

> <Gold.PLP.Chemscore.CHOScore>
0.0000

> <Gold.PLP.Chemscore.Metal>
0.0000

> <Gold.Chemscore.Hbonds>
donor molecule, donor type, donor heavy atom, donor atom, acceptor molecule, acceptor atom, score
      L1  H     1    14       P1   470  1.00
      L1  H    10    15       P1   470  0.99

> <Gold.PLP.Chemscore.Internal.Correction>
0.0000

