#       Name:                EN300-140735_i001
#       Creating user name   aseyller
#       Creation time:       Fri Apr 21 16:30:05 2023


#       File generated by GOLD software.
#

@<TRIPOS>MOLECULE
EN300-140735_i001|aminophenols|mol2|35|dock8
    15    15     1
SMALL
USER_CHARGES


@<TRIPOS>ATOM
      1 N1          33.1099  35.8290  37.2368 N.pl3          1 <1>                0.0000
      2 C2          31.9081  36.4261  37.6339 C.ar           1 <1>                0.0000
      3 C3          31.5037  37.6232  37.0606 C.ar           1 <1>                0.0000
      4 C4          30.3148  38.2118  37.4547 C.ar           1 <1>                0.0000
      5 F5          29.9217  39.3774  36.8961 F              1 <1>                0.0000
      6 C6          29.5273  37.6082  38.4204 C.ar           1 <1>                0.0000
      7 C7          29.9259  36.4143  38.9953 C.ar           1 <1>                0.0000
      8 Cl8         28.9351  35.6606  40.2053 Cl             1 <1>                0.0000
      9 C9          31.1126  35.8171  38.6013 C.ar           1 <1>                0.0000
     10 O10         31.5054  34.6430  39.1662 O.3            1 <1>                0.0000
     11 H11         32.1166  38.0956  36.3073 H              1 <1>                0.0000
     12 H12         28.6001  38.0703  38.7256 H              1 <1>                0.0000
     13 H13         33.6612  36.2521  36.5601 H              1 <1>                0.0000
     14 H14         33.3936  34.9941  37.6411 H              1 <1>                0.0000
     15 H15         31.4191  34.6216  40.1291 H              1 <1>                0.0000
@<TRIPOS>BOND
    1    1    2 1     
    2    1   13 1     
    3    1   14 1     
    4    2    3 ar    
    5    2    9 ar    
    6    3    4 ar    
    7    3   11 1     
    8    4    5 1     
    9    4    6 ar    
   10    6    7 ar    
   11    6   12 1     
   12    7    8 1     
   13    7    9 ar    
   14    9   10 1     
   15   10   15 1     
@<TRIPOS>SUBSTRUCTURE
      1 ****           1
@<TRIPOS>SET
DONOR_HYDROGENS      STATIC     ATOMS    <user>   **** ""
3 13 14 15
ATOM$RED        STATIC     ATOMS    COLORGROUP SYSTEM
3 13 14 15
@<TRIPOS>COMMENT
> <Gold.Version>
2022.2.0

> <Gold.Id.Protein>
1qkm|1qkm_protein|mol2

> <Gold.Protein.RotatedTorsions>
[  496  491  490  487 ] final -121.40 input  -89.99 | X-H torsion

> <Gold.Protein.ActiveResidues>
 MET295  LEU298  THR299  LEU301  ALA302  GLU305  TRP335  MET336  LEU339  MET340 
 GLY342  LEU343  ARG346  PHE356  ILE373  ILE376  PHE377  LEU380  LYS471  GLY472 
 MET473  HIS475  LEU476  LEU477  ASN478  MET479  VAL484  VAL487 

> <Gold.Protein.RotatedAtoms>
   37.0376   34.3379   40.7919 H   0  0  0  0  0  0  0  0  0  0  0  0  # atno 496  bound_to 491 

> <Gold.Score>
     Score     S(PLP)   S(hbond)     S(cho)   S(metal)  DE(clash)   DE(tors)     intcor
     34.36     -31.39       0.99       0.00       0.00       0.00       0.00       0.00

> <Gold.PLP.Fitness>
34.3597

> <Gold.PLP.PLP>
-31.3860

> <Gold.PLP.part.hbond>
-1.0000

> <Gold.PLP.part.metal>
0.0000

> <Gold.PLP.part.buried>
-2.7112

> <Gold.PLP.part.nonpolar>
-28.5582

> <Gold.PLP.part.repulsive>
0.0191

> <Gold.PLP.ligand.clash>
0.0000

> <Gold.PLP.ligand.torsion>
0.0000

> <Gold.PLP.Chemscore.Hbond>
0.9913

> <Gold.PLP.Chemscore.CHOScore>
0.0000

> <Gold.PLP.Chemscore.Metal>
0.0000

> <Gold.Chemscore.Hbonds>
donor molecule, donor type, donor heavy atom, donor atom, acceptor molecule, acceptor atom, score
      L1  H    10    15       P1   470  0.99

> <Gold.PLP.Chemscore.Internal.Correction>
0.0000

