#       Name:                EN300-140735_i001
#       Creating user name   aseyller
#       Creation time:       Fri Apr 21 16:30:06 2023


#       File generated by GOLD software.
#

@<TRIPOS>MOLECULE
EN300-140735_i001|aminophenols|mol2|35|dock13
    15    15     1
SMALL
USER_CHARGES


@<TRIPOS>ATOM
      1 N1          28.4164  35.4146  39.9845 N.pl3          1 <1>                0.0000
      2 C2          29.0994  36.2425  39.0862 C.ar           1 <1>                0.0000
      3 C3          28.4409  37.3020  38.4787 C.ar           1 <1>                0.0000
      4 C4          29.1182  38.1194  37.5907 C.ar           1 <1>                0.0000
      5 F5          28.4763  39.1507  36.9996 F              1 <1>                0.0000
      6 C6          30.4525  37.8822  37.3073 C.ar           1 <1>                0.0000
      7 C7          31.1140  36.8270  37.9105 C.ar           1 <1>                0.0000
      8 Cl8         32.7872  36.5336  37.5528 Cl             1 <1>                0.0000
      9 C9          30.4429  36.0080  38.8046 C.ar           1 <1>                0.0000
     10 O10         31.0927  34.9700  39.3982 O.3            1 <1>                0.0000
     11 H11         27.4000  37.4885  38.6984 H              1 <1>                0.0000
     12 H12         30.9780  38.5220  36.6139 H              1 <1>                0.0000
     13 H13         27.4817  35.5812  40.1829 H              1 <1>                0.0000
     14 H14         28.8767  34.6718  40.4057 H              1 <1>                0.0000
     15 H15         31.0286  34.9661  40.3630 H              1 <1>                0.0000
@<TRIPOS>BOND
    1    1    2 1     
    2    1   13 1     
    3    1   14 1     
    4    2    3 ar    
    5    2    9 ar    
    6    3    4 ar    
    7    3   11 1     
    8    4    5 1     
    9    4    6 ar    
   10    6    7 ar    
   11    6   12 1     
   12    7    8 1     
   13    7    9 ar    
   14    9   10 1     
   15   10   15 1     
@<TRIPOS>SUBSTRUCTURE
      1 ****           1
@<TRIPOS>SET
DONOR_HYDROGENS      STATIC     ATOMS    <user>   **** ""
3 13 14 15
ATOM$RED        STATIC     ATOMS    COLORGROUP SYSTEM
3 13 14 15
@<TRIPOS>COMMENT
> <Gold.Version>
2022.2.0

> <Gold.Id.Protein>
1qkm|1qkm_protein|mol2

> <Gold.Protein.RotatedTorsions>
[  496  491  490  487 ] final  169.85 input  -89.99 | X-H torsion

> <Gold.Protein.ActiveResidues>
 MET295  LEU298  THR299  LEU301  ALA302  GLU305  TRP335  MET336  LEU339  MET340 
 GLY342  LEU343  ARG346  PHE356  ILE373  ILE376  PHE377  LEU380  LYS471  GLY472 
 MET473  HIS475  LEU476  LEU477  ASN478  MET479  VAL484  VAL487 

> <Gold.Protein.RotatedAtoms>
   37.3151   33.3237   40.9614 H   0  0  0  0  0  0  0  0  0  0  0  0  # atno 496  bound_to 491 

> <Gold.Score>
     Score     S(PLP)   S(hbond)     S(cho)   S(metal)  DE(clash)   DE(tors)     intcor
     33.60     -30.60       1.00       0.00       0.00       0.00       0.00       0.00

> <Gold.PLP.Fitness>
33.6044

> <Gold.PLP.PLP>
-30.6044

> <Gold.PLP.part.hbond>
-1.0000

> <Gold.PLP.part.metal>
0.0000

> <Gold.PLP.part.buried>
-1.6716

> <Gold.PLP.part.nonpolar>
-27.6382

> <Gold.PLP.part.repulsive>
0.0232

> <Gold.PLP.ligand.clash>
0.0000

> <Gold.PLP.ligand.torsion>
0.0000

> <Gold.PLP.Chemscore.Hbond>
1.0000

> <Gold.PLP.Chemscore.CHOScore>
0.0000

> <Gold.PLP.Chemscore.Metal>
0.0000

> <Gold.Chemscore.Hbonds>
donor molecule, donor type, donor heavy atom, donor atom, acceptor molecule, acceptor atom, score
      L1  H    10    15       P1   470  1.00

> <Gold.PLP.Chemscore.Internal.Correction>
0.0000

