#       Name:                EN300-140735_i001
#       Creating user name   aseyller
#       Creation time:       Fri Apr 21 16:30:07 2023


#       File generated by GOLD software.
#

@<TRIPOS>MOLECULE
EN300-140735_i001|aminophenols|mol2|35|dock16
    15    15     1
SMALL
USER_CHARGES


@<TRIPOS>ATOM
      1 N1          30.0005  38.0917  38.4714 N.pl3          1 <1>                0.0000
      2 C2          30.8379  37.1337  37.8885 C.ar           1 <1>                0.0000
      3 C3          31.5404  37.4363  36.7308 C.ar           1 <1>                0.0000
      4 C4          32.3678  36.4875  36.1561 C.ar           1 <1>                0.0000
      5 F5          33.0515  36.7829  35.0289 F              1 <1>                0.0000
      6 C6          32.4965  35.2360  36.7344 C.ar           1 <1>                0.0000
      7 C7          31.7982  34.9291  37.8889 C.ar           1 <1>                0.0000
      8 Cl8         31.9630  33.3590  38.6111 Cl             1 <1>                0.0000
      9 C9          30.9721  35.8765  38.4723 C.ar           1 <1>                0.0000
     10 O10         30.2850  35.5755  39.6077 O.3            1 <1>                0.0000
     11 H11         31.4412  38.4119  36.2782 H              1 <1>                0.0000
     12 H12         33.1431  34.4979  36.2832 H              1 <1>                0.0000
     13 H13         29.9109  38.9684  38.0660 H              1 <1>                0.0000
     14 H14         29.5069  37.8778  39.2785 H              1 <1>                0.0000
     15 H15         30.8305  35.1903  40.3071 H              1 <1>                0.0000
@<TRIPOS>BOND
    1    1    2 1     
    2    1   13 1     
    3    1   14 1     
    4    2    3 ar    
    5    2    9 ar    
    6    3    4 ar    
    7    3   11 1     
    8    4    5 1     
    9    4    6 ar    
   10    6    7 ar    
   11    6   12 1     
   12    7    8 1     
   13    7    9 ar    
   14    9   10 1     
   15   10   15 1     
@<TRIPOS>SUBSTRUCTURE
      1 ****           1
@<TRIPOS>SET
DONOR_HYDROGENS      STATIC     ATOMS    <user>   **** ""
3 13 14 15
ATOM$RED        STATIC     ATOMS    COLORGROUP SYSTEM
3 13 14 15
@<TRIPOS>COMMENT
> <Gold.Version>
2022.2.0

> <Gold.Id.Protein>
1qkm|1qkm_protein|mol2

> <Gold.Protein.RotatedTorsions>
[  496  491  490  487 ] final  -73.43 input  -89.99 | X-H torsion

> <Gold.Protein.ActiveResidues>
 MET295  LEU298  THR299  LEU301  ALA302  GLU305  TRP335  MET336  LEU339  MET340 
 GLY342  LEU343  ARG346  PHE356  ILE373  ILE376  PHE377  LEU380  LYS471  GLY472 
 MET473  HIS475  LEU476  LEU477  ASN478  MET479  VAL484  VAL487 

> <Gold.Protein.RotatedAtoms>
   36.6077   34.7267   41.2940 H   0  0  0  0  0  0  0  0  0  0  0  0  # atno 496  bound_to 491 

> <Gold.Score>
     Score     S(PLP)   S(hbond)     S(cho)   S(metal)  DE(clash)   DE(tors)     intcor
     37.06     -34.06       1.00       0.00       0.00       0.00       0.00       0.00

> <Gold.PLP.Fitness>
37.0620

> <Gold.PLP.PLP>
-34.0620

> <Gold.PLP.part.hbond>
-1.0000

> <Gold.PLP.part.metal>
0.0000

> <Gold.PLP.part.buried>
-2.6244

> <Gold.PLP.part.nonpolar>
-30.7713

> <Gold.PLP.part.repulsive>
0.0000

> <Gold.PLP.ligand.clash>
0.0000

> <Gold.PLP.ligand.torsion>
0.0000

> <Gold.PLP.Chemscore.Hbond>
1.0000

> <Gold.PLP.Chemscore.CHOScore>
0.0000

> <Gold.PLP.Chemscore.Metal>
0.0000

> <Gold.Chemscore.Hbonds>
donor molecule, donor type, donor heavy atom, donor atom, acceptor molecule, acceptor atom, score
      L1  H    10    15       P1   470  1.00

> <Gold.PLP.Chemscore.Internal.Correction>
0.0000

