#       Name:                EN300-140735_i001
#       Creating user name   aseyller
#       Creation time:       Fri Apr 21 16:30:06 2023


#       File generated by GOLD software.
#

@<TRIPOS>MOLECULE
EN300-140735_i001|aminophenols|mol2|35|dock15
    15    15     1
SMALL
USER_CHARGES


@<TRIPOS>ATOM
      1 N1          34.2243  36.6325  34.5986 N.pl3          1 <1>                0.0000
      2 C2          33.1800  36.9776  35.4640 C.ar           1 <1>                0.0000
      3 C3          32.8917  36.1767  36.5599 C.ar           1 <1>                0.0000
      4 C4          31.8585  36.5198  37.4144 C.ar           1 <1>                0.0000
      5 F5          31.5783  35.7395  38.4811 F              1 <1>                0.0000
      6 C6          31.1116  37.6615  37.1782 C.ar           1 <1>                0.0000
      7 C7          31.3950  38.4637  36.0869 C.ar           1 <1>                0.0000
      8 Cl8         30.4564  39.8946  35.7949 Cl             1 <1>                0.0000
      9 C9          32.4316  38.1286  35.2304 C.ar           1 <1>                0.0000
     10 O10         32.7109  38.9169  34.1569 O.3            1 <1>                0.0000
     11 H11         33.4730  35.2857  36.7457 H              1 <1>                0.0000
     12 H12         30.3060  37.9263  37.8471 H              1 <1>                0.0000
     13 H13         34.7474  35.8327  34.7645 H              1 <1>                0.0000
     14 H14         34.4224  37.1911  33.8307 H              1 <1>                0.0000
     15 H15         33.6344  38.8813  33.8725 H              1 <1>                0.0000
@<TRIPOS>BOND
    1    1    2 1     
    2    1   13 1     
    3    1   14 1     
    4    2    3 ar    
    5    2    9 ar    
    6    3    4 ar    
    7    3   11 1     
    8    4    5 1     
    9    4    6 ar    
   10    6    7 ar    
   11    6   12 1     
   12    7    8 1     
   13    7    9 ar    
   14    9   10 1     
   15   10   15 1     
@<TRIPOS>SUBSTRUCTURE
      1 ****           1
@<TRIPOS>SET
DONOR_HYDROGENS      STATIC     ATOMS    <user>   **** ""
3 13 14 15
ATOM$RED        STATIC     ATOMS    COLORGROUP SYSTEM
3 13 14 15
@<TRIPOS>COMMENT
> <Gold.Version>
2022.2.0

> <Gold.Id.Protein>
1qkm|1qkm_protein|mol2

> <Gold.Protein.RotatedTorsions>
[  496  491  490  487 ] final  156.28 input  -89.99 | X-H torsion

> <Gold.Protein.ActiveResidues>
 MET295  LEU298  THR299  LEU301  ALA302  GLU305  TRP335  MET336  LEU339  MET340 
 GLY342  LEU343  ARG346  PHE356  ILE373  ILE376  PHE377  LEU380  LYS471  GLY472 
 MET473  HIS475  LEU476  LEU477  ASN478  MET479  VAL484  VAL487 

> <Gold.Protein.RotatedAtoms>
   37.2858   33.1653   41.1153 H   0  0  0  0  0  0  0  0  0  0  0  0  # atno 496  bound_to 491 

> <Gold.Score>
     Score     S(PLP)   S(hbond)     S(cho)   S(metal)  DE(clash)   DE(tors)     intcor
     33.02     -27.77       1.75       0.00       0.00       0.00       0.00       0.00

> <Gold.PLP.Fitness>
33.0167

> <Gold.PLP.PLP>
-27.7742

> <Gold.PLP.part.hbond>
-1.8614

> <Gold.PLP.part.metal>
0.0000

> <Gold.PLP.part.buried>
1.0564

> <Gold.PLP.part.nonpolar>
-27.2830

> <Gold.PLP.part.repulsive>
0.0924

> <Gold.PLP.ligand.clash>
0.0000

> <Gold.PLP.ligand.torsion>
0.0000

> <Gold.PLP.Chemscore.Hbond>
1.7475

> <Gold.PLP.Chemscore.CHOScore>
0.0000

> <Gold.PLP.Chemscore.Metal>
0.0000

> <Gold.Chemscore.Hbonds>
donor molecule, donor type, donor heavy atom, donor atom, acceptor molecule, acceptor atom, score
      L1  H     1    14       P1  3229  1.00
      L1  H    10    15       P1  3229  0.75

> <Gold.PLP.Chemscore.Internal.Correction>
0.0000

