#       Name:                EN300-140735_i001
#       Creating user name   aseyller
#       Creation time:       Fri Apr 21 16:30:05 2023


#       File generated by GOLD software.
#

@<TRIPOS>MOLECULE
EN300-140735_i001|aminophenols|mol2|35|dock9
    15    15     1
SMALL
USER_CHARGES


@<TRIPOS>ATOM
      1 N1          30.3150  35.4366  40.1178 N.pl3          1 <1>                0.0000
      2 C2          29.1073  36.0480  39.7624 C.ar           1 <1>                0.0000
      3 C3          29.0018  36.7324  38.5601 C.ar           1 <1>                0.0000
      4 C4          27.8065  37.3363  38.2107 C.ar           1 <1>                0.0000
      5 F5          27.7046  38.0026  37.0399 F              1 <1>                0.0000
      6 C6          26.7149  37.2586  39.0588 C.ar           1 <1>                0.0000
      7 C7          26.8147  36.5772  40.2591 C.ar           1 <1>                0.0000
      8 Cl8         25.4433  36.4816  41.3192 Cl             1 <1>                0.0000
      9 C9          28.0071  35.9658  40.6123 C.ar           1 <1>                0.0000
     10 O10         28.1061  35.2955  41.7925 O.3            1 <1>                0.0000
     11 H11         29.8522  36.7943  37.8973 H              1 <1>                0.0000
     12 H12         25.7836  37.7310  38.7831 H              1 <1>                0.0000
     13 H13         31.0794  35.4910  39.5232 H              1 <1>                0.0000
     14 H14         30.3887  34.9616  40.9603 H              1 <1>                0.0000
     15 H15         27.2551  35.1135  42.2140 H              1 <1>                0.0000
@<TRIPOS>BOND
    1    1    2 1     
    2    1   13 1     
    3    1   14 1     
    4    2    3 ar    
    5    2    9 ar    
    6    3    4 ar    
    7    3   11 1     
    8    4    5 1     
    9    4    6 ar    
   10    6    7 ar    
   11    6   12 1     
   12    7    8 1     
   13    7    9 ar    
   14    9   10 1     
   15   10   15 1     
@<TRIPOS>SUBSTRUCTURE
      1 ****           1
@<TRIPOS>SET
DONOR_HYDROGENS      STATIC     ATOMS    <user>   **** ""
3 13 14 15
ATOM$RED        STATIC     ATOMS    COLORGROUP SYSTEM
3 13 14 15
@<TRIPOS>COMMENT
> <Gold.Version>
2022.2.0

> <Gold.Id.Protein>
1qkm|1qkm_protein|mol2

> <Gold.Protein.RotatedTorsions>
[  496  491  490  487 ] final   10.23 input  -89.99 | X-H torsion

> <Gold.Protein.ActiveResidues>
 MET295  LEU298  THR299  LEU301  ALA302  GLU305  TRP335  MET336  LEU339  MET340 
 GLY342  LEU343  ARG346  PHE356  ILE373  ILE376  PHE377  LEU380  LYS471  GLY472 
 MET473  HIS475  LEU476  LEU477  ASN478  MET479  VAL484  VAL487 

> <Gold.Protein.RotatedAtoms>
   36.2737   34.0627   42.3091 H   0  0  0  0  0  0  0  0  0  0  0  0  # atno 496  bound_to 491 

> <Gold.Score>
     Score     S(PLP)   S(hbond)     S(cho)   S(metal)  DE(clash)   DE(tors)     intcor
     36.34     -31.93       1.47       0.00       0.00       0.00       0.00       0.00

> <Gold.PLP.Fitness>
36.3401

> <Gold.PLP.PLP>
-31.9263

> <Gold.PLP.part.hbond>
-1.8692

> <Gold.PLP.part.metal>
0.0000

> <Gold.PLP.part.buried>
-1.7068

> <Gold.PLP.part.nonpolar>
-30.1183

> <Gold.PLP.part.repulsive>
0.0972

> <Gold.PLP.ligand.clash>
0.0000

> <Gold.PLP.ligand.torsion>
0.0000

> <Gold.PLP.Chemscore.Hbond>
1.4713

> <Gold.PLP.Chemscore.CHOScore>
0.0000

> <Gold.PLP.Chemscore.Metal>
0.0000

> <Gold.Chemscore.Hbonds>
donor molecule, donor type, donor heavy atom, donor atom, acceptor molecule, acceptor atom, score
      L1  H     1    14       P1   470  0.48
      L1  H    10    15       P1   582  0.99

> <Gold.PLP.Chemscore.Internal.Correction>
0.0000

