#       Name:                EN300-140735_i001
#       Creating user name   aseyller
#       Creation time:       Fri Apr 21 16:30:04 2023


#       File generated by GOLD software.
#

@<TRIPOS>MOLECULE
EN300-140735_i001|aminophenols|mol2|35|dock7
    15    15     1
SMALL
USER_CHARGES


@<TRIPOS>ATOM
      1 N1          26.0181  35.7225  41.6612 N.pl3          1 <1>                0.0000
      2 C2          26.8303  36.1477  40.6038 C.ar           1 <1>                0.0000
      3 C3          28.1477  35.7195  40.5231 C.ar           1 <1>                0.0000
      4 C4          28.9490  36.1412  39.4766 C.ar           1 <1>                0.0000
      5 F5          30.2316  35.7238  39.3988 F              1 <1>                0.0000
      6 C6          28.4386  36.9898  38.5089 C.ar           1 <1>                0.0000
      7 C7          27.1255  37.4198  38.5846 C.ar           1 <1>                0.0000
      8 Cl8         26.4894  38.4833  37.3689 Cl             1 <1>                0.0000
      9 C9          26.3164  36.9970  39.6271 C.ar           1 <1>                0.0000
     10 O10         25.0249  37.4194  39.7023 O.3            1 <1>                0.0000
     11 H11         28.5476  35.0576  41.2770 H              1 <1>                0.0000
     12 H12         29.0668  37.3170  37.6936 H              1 <1>                0.0000
     13 H13         26.3761  35.1278  42.3388 H              1 <1>                0.0000
     14 H14         25.0985  36.0256  41.7187 H              1 <1>                0.0000
     15 H15         24.3940  36.7191  39.9182 H              1 <1>                0.0000
@<TRIPOS>BOND
    1    1    2 1     
    2    1   13 1     
    3    1   14 1     
    4    2    3 ar    
    5    2    9 ar    
    6    3    4 ar    
    7    3   11 1     
    8    4    5 1     
    9    4    6 ar    
   10    6    7 ar    
   11    6   12 1     
   12    7    8 1     
   13    7    9 ar    
   14    9   10 1     
   15   10   15 1     
@<TRIPOS>SUBSTRUCTURE
      1 ****           1
@<TRIPOS>SET
DONOR_HYDROGENS      STATIC     ATOMS    <user>   **** ""
3 13 14 15
ATOM$RED        STATIC     ATOMS    COLORGROUP SYSTEM
3 13 14 15
@<TRIPOS>COMMENT
> <Gold.Version>
2022.2.0

> <Gold.Id.Protein>
1qkm|1qkm_protein|mol2

> <Gold.Protein.RotatedTorsions>
[  496  491  490  487 ] final -158.27 input  -89.99 | X-H torsion

> <Gold.Protein.ActiveResidues>
 MET295  LEU298  THR299  LEU301  ALA302  GLU305  TRP335  MET336  LEU339  MET340 
 GLY342  LEU343  ARG346  PHE356  ILE373  ILE376  PHE377  LEU380  LYS471  GLY472 
 MET473  HIS475  LEU476  LEU477  ASN478  MET479  VAL484  VAL487 

> <Gold.Protein.RotatedAtoms>
   37.2686   33.7903   40.7411 H   0  0  0  0  0  0  0  0  0  0  0  0  # atno 496  bound_to 491 

> <Gold.Score>
     Score     S(PLP)   S(hbond)     S(cho)   S(metal)  DE(clash)   DE(tors)     intcor
     35.73     -30.22       1.84       0.00       0.00       0.00       0.00       0.00

> <Gold.PLP.Fitness>
35.7348

> <Gold.PLP.PLP>
-30.2171

> <Gold.PLP.part.hbond>
-1.6265

> <Gold.PLP.part.metal>
0.0000

> <Gold.PLP.part.buried>
-0.5038

> <Gold.PLP.part.nonpolar>
-28.8848

> <Gold.PLP.part.repulsive>
0.0575

> <Gold.PLP.ligand.clash>
0.0000

> <Gold.PLP.ligand.torsion>
0.0000

> <Gold.PLP.Chemscore.Hbond>
1.8393

> <Gold.PLP.Chemscore.CHOScore>
0.0000

> <Gold.PLP.Chemscore.Metal>
0.0000

> <Gold.Chemscore.Hbonds>
donor molecule, donor type, donor heavy atom, donor atom, acceptor molecule, acceptor atom, score
      L1  H     1    13       P1   582  0.85
      L1  H    10    15       P1  1131  0.99

> <Gold.PLP.Chemscore.Internal.Correction>
0.0000

