#       Name:                EN300-140735_i001
#       Creating user name   aseyller
#       Creation time:       Fri Apr 21 16:30:08 2023


#       File generated by GOLD software.
#

@<TRIPOS>MOLECULE
EN300-140735_i001|aminophenols|mol2|35|dock19
    15    15     1
SMALL
USER_CHARGES


@<TRIPOS>ATOM
      1 N1          27.2275  35.2605  41.9882 N.pl3          1 <1>                0.0000
      2 C2          27.4440  35.9489  40.7891 C.ar           1 <1>                0.0000
      3 C3          28.6913  35.9130  40.1822 C.ar           1 <1>                0.0000
      4 C4          28.9032  36.5945  38.9964 C.ar           1 <1>                0.0000
      5 F5          30.1179  36.5591  38.4061 F              1 <1>                0.0000
      6 C6          27.8724  37.3122  38.4138 C.ar           1 <1>                0.0000
      7 C7          26.6266  37.3512  39.0149 C.ar           1 <1>                0.0000
      8 Cl8         25.3369  38.2519  38.2806 Cl             1 <1>                0.0000
      9 C9          26.4065  36.6667  40.1994 C.ar           1 <1>                0.0000
     10 O10         25.1816  36.7046  40.7912 O.3            1 <1>                0.0000
     11 H11         29.4966  35.3538  40.6351 H              1 <1>                0.0000
     12 H12         28.0413  37.8429  37.4884 H              1 <1>                0.0000
     13 H13         27.9498  34.7576  42.3959 H              1 <1>                0.0000
     14 H14         26.3562  35.2895  42.4136 H              1 <1>                0.0000
     15 H15         24.4528  36.4654  40.2024 H              1 <1>                0.0000
@<TRIPOS>BOND
    1    1    2 1     
    2    1   13 1     
    3    1   14 1     
    4    2    3 ar    
    5    2    9 ar    
    6    3    4 ar    
    7    3   11 1     
    8    4    5 1     
    9    4    6 ar    
   10    6    7 ar    
   11    6   12 1     
   12    7    8 1     
   13    7    9 ar    
   14    9   10 1     
   15   10   15 1     
@<TRIPOS>SUBSTRUCTURE
      1 ****           1
@<TRIPOS>SET
DONOR_HYDROGENS      STATIC     ATOMS    <user>   **** ""
3 13 14 15
ATOM$RED        STATIC     ATOMS    COLORGROUP SYSTEM
3 13 14 15
@<TRIPOS>COMMENT
> <Gold.Version>
2022.2.0

> <Gold.Id.Protein>
1qkm|1qkm_protein|mol2

> <Gold.Protein.RotatedTorsions>
[  496  491  490  487 ] final   52.69 input  -89.99 | X-H torsion

> <Gold.Protein.ActiveResidues>
 MET295  LEU298  THR299  LEU301  ALA302  GLU305  TRP335  MET336  LEU339  MET340 
 GLY342  LEU343  ARG346  PHE356  ILE373  ILE376  PHE377  LEU380  LYS471  GLY472 
 MET473  HIS475  LEU476  LEU477  ASN478  MET479  VAL484  VAL487 

> <Gold.Protein.RotatedAtoms>
   36.4931   33.4167   42.3423 H   0  0  0  0  0  0  0  0  0  0  0  0  # atno 496  bound_to 491 

> <Gold.Score>
     Score     S(PLP)   S(hbond)     S(cho)   S(metal)  DE(clash)   DE(tors)     intcor
     33.81     -29.54       1.42       0.00       0.00       0.00       0.00       0.00

> <Gold.PLP.Fitness>
33.8123

> <Gold.PLP.PLP>
-29.5433

> <Gold.PLP.part.hbond>
-1.0454

> <Gold.PLP.part.metal>
0.0000

> <Gold.PLP.part.buried>
-4.5384

> <Gold.PLP.part.nonpolar>
-24.4954

> <Gold.PLP.part.repulsive>
0.0585

> <Gold.PLP.ligand.clash>
0.0000

> <Gold.PLP.ligand.torsion>
0.0000

> <Gold.PLP.Chemscore.Hbond>
1.4230

> <Gold.PLP.Chemscore.CHOScore>
0.0000

> <Gold.PLP.Chemscore.Metal>
0.0000

> <Gold.Chemscore.Hbonds>
donor molecule, donor type, donor heavy atom, donor atom, acceptor molecule, acceptor atom, score
      L1  H     1    14       P1   582  0.45
      L1  H    10    15       P1  1131  0.98

> <Gold.PLP.Chemscore.Internal.Correction>
0.0000

