#       Name:                EN300-140735_i001
#       Creating user name   aseyller
#       Creation time:       Fri Apr 21 16:30:07 2023


#       File generated by GOLD software.
#

@<TRIPOS>MOLECULE
EN300-140735_i001|aminophenols|mol2|35|dock18
    15    15     1
SMALL
USER_CHARGES


@<TRIPOS>ATOM
      1 N1          31.5313  36.5663  37.0603 N.pl3          1 <1>                0.0000
      2 C2          30.3112  36.7923  37.7074 C.ar           1 <1>                0.0000
      3 C3          29.3965  37.6887  37.1734 C.ar           1 <1>                0.0000
      4 C4          28.1905  37.9107  37.8150 C.ar           1 <1>                0.0000
      5 F5          27.3004  38.7836  37.2944 F              1 <1>                0.0000
      6 C6          27.8942  37.2394  38.9891 C.ar           1 <1>                0.0000
      7 C7          28.8029  36.3443  39.5259 C.ar           1 <1>                0.0000
      8 Cl8         28.4271  35.5043  40.9980 Cl             1 <1>                0.0000
      9 C9          30.0100  36.1137  38.8856 C.ar           1 <1>                0.0000
     10 O10         30.9041  35.2336  39.4128 O.3            1 <1>                0.0000
     11 H11         29.6258  38.2133  36.2577 H              1 <1>                0.0000
     12 H12         26.9521  37.4150  39.4872 H              1 <1>                0.0000
     13 H13         31.7384  37.0366  36.2376 H              1 <1>                0.0000
     14 H14         32.1717  35.9423  37.4366 H              1 <1>                0.0000
     15 H15         30.9783  35.2778  40.3759 H              1 <1>                0.0000
@<TRIPOS>BOND
    1    1    2 1     
    2    1   13 1     
    3    1   14 1     
    4    2    3 ar    
    5    2    9 ar    
    6    3    4 ar    
    7    3   11 1     
    8    4    5 1     
    9    4    6 ar    
   10    6    7 ar    
   11    6   12 1     
   12    7    8 1     
   13    7    9 ar    
   14    9   10 1     
   15   10   15 1     
@<TRIPOS>SUBSTRUCTURE
      1 ****           1
@<TRIPOS>SET
DONOR_HYDROGENS      STATIC     ATOMS    <user>   **** ""
3 13 14 15
ATOM$RED        STATIC     ATOMS    COLORGROUP SYSTEM
3 13 14 15
@<TRIPOS>COMMENT
> <Gold.Version>
2022.2.0

> <Gold.Id.Protein>
1qkm|1qkm_protein|mol2

> <Gold.Protein.RotatedTorsions>
[  496  491  490  487 ] final   17.61 input  -89.99 | X-H torsion

> <Gold.Protein.ActiveResidues>
 MET295  LEU298  THR299  LEU301  ALA302  GLU305  TRP335  MET336  LEU339  MET340 
 GLY342  LEU343  ARG346  PHE356  ILE373  ILE376  PHE377  LEU380  LYS471  GLY472 
 MET473  HIS475  LEU476  LEU477  ASN478  MET479  VAL484  VAL487 

> <Gold.Protein.RotatedAtoms>
   36.2940   33.9493   42.3469 H   0  0  0  0  0  0  0  0  0  0  0  0  # atno 496  bound_to 491 

> <Gold.Score>
     Score     S(PLP)   S(hbond)     S(cho)   S(metal)  DE(clash)   DE(tors)     intcor
     32.53     -29.53       1.00       0.00       0.00       0.00       0.00       0.00

> <Gold.PLP.Fitness>
32.5331

> <Gold.PLP.PLP>
-29.5331

> <Gold.PLP.part.hbond>
-1.0000

> <Gold.PLP.part.metal>
0.0000

> <Gold.PLP.part.buried>
-1.7775

> <Gold.PLP.part.nonpolar>
-26.0363

> <Gold.PLP.part.repulsive>
0.0000

> <Gold.PLP.ligand.clash>
0.0000

> <Gold.PLP.ligand.torsion>
0.0000

> <Gold.PLP.Chemscore.Hbond>
1.0000

> <Gold.PLP.Chemscore.CHOScore>
0.0000

> <Gold.PLP.Chemscore.Metal>
0.0000

> <Gold.Chemscore.Hbonds>
donor molecule, donor type, donor heavy atom, donor atom, acceptor molecule, acceptor atom, score
      L1  H    10    15       P1   470  1.00

> <Gold.PLP.Chemscore.Internal.Correction>
0.0000

