#       Name:                EN300-140735_i001
#       Creating user name   aseyller
#       Creation time:       Fri Apr 21 16:30:04 2023


#       File generated by GOLD software.
#

@<TRIPOS>MOLECULE
EN300-140735_i001|aminophenols|mol2|35|dock5
    15    15     1
SMALL
USER_CHARGES


@<TRIPOS>ATOM
      1 N1          29.6540  35.7981  40.6387 N.pl3          1 <1>                0.0000
      2 C2          30.0579  36.2994  39.3960 C.ar           1 <1>                0.0000
      3 C3          29.4254  37.4098  38.8553 C.ar           1 <1>                0.0000
      4 C4          29.8264  37.9038  37.6263 C.ar           1 <1>                0.0000
      5 F5          29.2100  38.9849  37.1005 F              1 <1>                0.0000
      6 C6          30.8583  37.2923  36.9348 C.ar           1 <1>                0.0000
      7 C7          31.4925  36.1847  37.4696 C.ar           1 <1>                0.0000
      8 Cl8         32.7863  35.4215  36.5995 Cl             1 <1>                0.0000
      9 C9          31.0993  35.6883  38.7021 C.ar           1 <1>                0.0000
     10 O10         31.7224  34.5991  39.2288 O.3            1 <1>                0.0000
     11 H11         28.6202  37.8881  39.3931 H              1 <1>                0.0000
     12 H12         31.1687  37.6805  35.9759 H              1 <1>                0.0000
     13 H13         28.9311  36.2270  41.1229 H              1 <1>                0.0000
     14 H14         30.0943  35.0195  41.0140 H              1 <1>                0.0000
     15 H15         31.6331  34.5207  40.1884 H              1 <1>                0.0000
@<TRIPOS>BOND
    1    1    2 1     
    2    1   13 1     
    3    1   14 1     
    4    2    3 ar    
    5    2    9 ar    
    6    3    4 ar    
    7    3   11 1     
    8    4    5 1     
    9    4    6 ar    
   10    6    7 ar    
   11    6   12 1     
   12    7    8 1     
   13    7    9 ar    
   14    9   10 1     
   15   10   15 1     
@<TRIPOS>SUBSTRUCTURE
      1 ****           1
@<TRIPOS>SET
DONOR_HYDROGENS      STATIC     ATOMS    <user>   **** ""
3 13 14 15
ATOM$RED        STATIC     ATOMS    COLORGROUP SYSTEM
3 13 14 15
@<TRIPOS>COMMENT
> <Gold.Version>
2022.2.0

> <Gold.Id.Protein>
1qkm|1qkm_protein|mol2

> <Gold.Protein.RotatedTorsions>
[  496  491  490  487 ] final  142.50 input  -89.99 | X-H torsion

> <Gold.Protein.ActiveResidues>
 MET295  LEU298  THR299  LEU301  ALA302  GLU305  TRP335  MET336  LEU339  MET340 
 GLY342  LEU343  ARG346  PHE356  ILE373  ILE376  PHE377  LEU380  LYS471  GLY472 
 MET473  HIS475  LEU476  LEU477  ASN478  MET479  VAL484  VAL487 

> <Gold.Protein.RotatedAtoms>
   37.2277   33.0428   41.2965 H   0  0  0  0  0  0  0  0  0  0  0  0  # atno 496  bound_to 491 

> <Gold.Score>
     Score     S(PLP)   S(hbond)     S(cho)   S(metal)  DE(clash)   DE(tors)     intcor
     35.39     -30.95       1.48       0.00       0.00       0.00       0.00       0.00

> <Gold.PLP.Fitness>
35.3853

> <Gold.PLP.PLP>
-30.9453

> <Gold.PLP.part.hbond>
-2.0000

> <Gold.PLP.part.metal>
0.0000

> <Gold.PLP.part.buried>
-1.8369

> <Gold.PLP.part.nonpolar>
-27.6002

> <Gold.PLP.part.repulsive>
0.0777

> <Gold.PLP.ligand.clash>
0.0000

> <Gold.PLP.ligand.torsion>
0.0000

> <Gold.PLP.Chemscore.Hbond>
1.4800

> <Gold.PLP.Chemscore.CHOScore>
0.0000

> <Gold.PLP.Chemscore.Metal>
0.0000

> <Gold.Chemscore.Hbonds>
donor molecule, donor type, donor heavy atom, donor atom, acceptor molecule, acceptor atom, score
      L1  H     1    14       P1   470  0.48
      L1  H    10    15       P1   470  1.00

> <Gold.PLP.Chemscore.Internal.Correction>
0.0000

