#       Name:                EN300-140735_i001
#       Creating user name   aseyller
#       Creation time:       Fri Apr 21 16:30:03 2023


#       File generated by GOLD software.
#

@<TRIPOS>MOLECULE
EN300-140735_i001|aminophenols|mol2|35|dock3
    15    15     1
SMALL
USER_CHARGES


@<TRIPOS>ATOM
      1 N1          28.9713  35.7838  41.8891 N.pl3          1 <1>                0.0000
      2 C2          28.5176  36.2424  40.6471 C.ar           1 <1>                0.0000
      3 C3          27.2144  36.6981  40.5079 C.ar           1 <1>                0.0000
      4 C4          26.7679  37.1510  39.2787 C.ar           1 <1>                0.0000
      5 F5          25.4989  37.5945  39.1439 F              1 <1>                0.0000
      6 C6          27.6195  37.1509  38.1870 C.ar           1 <1>                0.0000
      7 C7          28.9201  36.6976  38.3205 C.ar           1 <1>                0.0000
      8 Cl8         29.9847  36.6997  36.9492 Cl             1 <1>                0.0000
      9 C9          29.3750  36.2477  39.5497 C.ar           1 <1>                0.0000
     10 O10         30.6538  35.8017  39.6818 O.3            1 <1>                0.0000
     11 H11         26.5487  36.6989  41.3582 H              1 <1>                0.0000
     12 H12         27.2678  37.5051  37.2293 H              1 <1>                0.0000
     13 H13         28.3744  35.7844  42.6538 H              1 <1>                0.0000
     14 H14         29.8813  35.4619  41.9844 H              1 <1>                0.0000
     15 H15         30.9310  35.6679  40.5985 H              1 <1>                0.0000
@<TRIPOS>BOND
    1    1    2 1     
    2    1   13 1     
    3    1   14 1     
    4    2    3 ar    
    5    2    9 ar    
    6    3    4 ar    
    7    3   11 1     
    8    4    5 1     
    9    4    6 ar    
   10    6    7 ar    
   11    6   12 1     
   12    7    8 1     
   13    7    9 ar    
   14    9   10 1     
   15   10   15 1     
@<TRIPOS>SUBSTRUCTURE
      1 ****           1
@<TRIPOS>SET
DONOR_HYDROGENS      STATIC     ATOMS    <user>   **** ""
3 13 14 15
ATOM$RED        STATIC     ATOMS    COLORGROUP SYSTEM
3 13 14 15
@<TRIPOS>COMMENT
> <Gold.Version>
2022.2.0

> <Gold.Id.Protein>
1qkm|1qkm_protein|mol2

> <Gold.Protein.RotatedTorsions>
[  496  491  490  487 ] final -143.32 input  -89.99 | X-H torsion

> <Gold.Protein.ActiveResidues>
 MET295  LEU298  THR299  LEU301  ALA302  GLU305  TRP335  MET336  LEU339  MET340 
 GLY342  LEU343  ARG346  PHE356  ILE373  ILE376  PHE377  LEU380  LYS471  GLY472 
 MET473  HIS475  LEU476  LEU477  ASN478  MET479  VAL484  VAL487 

> <Gold.Protein.RotatedAtoms>
   37.1943   34.0233   40.7207 H   0  0  0  0  0  0  0  0  0  0  0  0  # atno 496  bound_to 491 

> <Gold.Score>
     Score     S(PLP)   S(hbond)     S(cho)   S(metal)  DE(clash)   DE(tors)     intcor
     39.55     -33.55       2.00       0.00       0.00       0.00       0.00       0.00

> <Gold.PLP.Fitness>
39.5536

> <Gold.PLP.PLP>
-33.5536

> <Gold.PLP.part.hbond>
-2.0000

> <Gold.PLP.part.metal>
0.0000

> <Gold.PLP.part.buried>
-1.9864

> <Gold.PLP.part.nonpolar>
-28.5023

> <Gold.PLP.part.repulsive>
0.0908

> <Gold.PLP.ligand.clash>
0.0000

> <Gold.PLP.ligand.torsion>
0.0000

> <Gold.PLP.Chemscore.Hbond>
2.0000

> <Gold.PLP.Chemscore.CHOScore>
0.0000

> <Gold.PLP.Chemscore.Metal>
0.0000

> <Gold.Chemscore.Hbonds>
donor molecule, donor type, donor heavy atom, donor atom, acceptor molecule, acceptor atom, score
      L1  H     1    14       P1   470  1.00
      L1  H    10    15       P1   470  1.00

> <Gold.PLP.Chemscore.Internal.Correction>
0.0000

