#       Name:                EN300-140735_i001
#       Creating user name   aseyller
#       Creation time:       Fri Apr 21 16:30:06 2023


#       File generated by GOLD software.
#

@<TRIPOS>MOLECULE
EN300-140735_i001|aminophenols|mol2|35|dock14
    15    15     1
SMALL
USER_CHARGES


@<TRIPOS>ATOM
      1 N1          29.0560  35.4967  41.2110 N.pl3          1 <1>                0.0000
      2 C2          28.8875  36.1039  39.9614 C.ar           1 <1>                0.0000
      3 C3          27.6810  36.7089  39.6393 C.ar           1 <1>                0.0000
      4 C4          27.5166  37.3088  38.4030 C.ar           1 <1>                0.0000
      5 F5          26.3415  37.8975  38.0901 F              1 <1>                0.0000
      6 C6          28.5542  37.3069  37.4864 C.ar           1 <1>                0.0000
      7 C7          29.7595  36.7051  37.8026 C.ar           1 <1>                0.0000
      8 Cl8         31.0581  36.7057  36.6505 Cl             1 <1>                0.0000
      9 C9          29.9323  36.1073  39.0407 C.ar           1 <1>                0.0000
     10 O10         31.1173  35.5152  39.3525 O.3            1 <1>                0.0000
     11 H11         26.8704  36.7112  40.3530 H              1 <1>                0.0000
     12 H12         28.4225  37.7760  36.5225 H              1 <1>                0.0000
     13 H13         28.3288  35.4984  41.8530 H              1 <1>                0.0000
     14 H14         29.8985  35.0707  41.4337 H              1 <1>                0.0000
     15 H15         31.2395  35.3538  40.2981 H              1 <1>                0.0000
@<TRIPOS>BOND
    1    1    2 1     
    2    1   13 1     
    3    1   14 1     
    4    2    3 ar    
    5    2    9 ar    
    6    3    4 ar    
    7    3   11 1     
    8    4    5 1     
    9    4    6 ar    
   10    6    7 ar    
   11    6   12 1     
   12    7    8 1     
   13    7    9 ar    
   14    9   10 1     
   15   10   15 1     
@<TRIPOS>SUBSTRUCTURE
      1 ****           1
@<TRIPOS>SET
DONOR_HYDROGENS      STATIC     ATOMS    <user>   **** ""
3 13 14 15
ATOM$RED        STATIC     ATOMS    COLORGROUP SYSTEM
3 13 14 15
@<TRIPOS>COMMENT
> <Gold.Version>
2022.2.0

> <Gold.Id.Protein>
1qkm|1qkm_protein|mol2

> <Gold.Protein.RotatedTorsions>
[  496  491  490  487 ] final  125.36 input  -89.99 | X-H torsion

> <Gold.Protein.ActiveResidues>
 MET295  LEU298  THR299  LEU301  ALA302  GLU305  TRP335  MET336  LEU339  MET340 
 GLY342  LEU343  ARG346  PHE356  ILE373  ILE376  PHE377  LEU380  LYS471  GLY472 
 MET473  HIS475  LEU476  LEU477  ASN478  MET479  VAL484  VAL487 

> <Gold.Protein.RotatedAtoms>
   37.1206   32.9548   41.5410 H   0  0  0  0  0  0  0  0  0  0  0  0  # atno 496  bound_to 491 

> <Gold.Score>
     Score     S(PLP)   S(hbond)     S(cho)   S(metal)  DE(clash)   DE(tors)     intcor
     33.52     -27.97       1.85       0.00       0.00       0.00       0.00       0.00

> <Gold.PLP.Fitness>
33.5194

> <Gold.PLP.PLP>
-27.9694

> <Gold.PLP.part.hbond>
-2.0000

> <Gold.PLP.part.metal>
0.0000

> <Gold.PLP.part.buried>
-1.3340

> <Gold.PLP.part.nonpolar>
-25.4827

> <Gold.PLP.part.repulsive>
0.0826

> <Gold.PLP.ligand.clash>
0.0000

> <Gold.PLP.ligand.torsion>
0.0000

> <Gold.PLP.Chemscore.Hbond>
1.8500

> <Gold.PLP.Chemscore.CHOScore>
0.0000

> <Gold.PLP.Chemscore.Metal>
0.0000

> <Gold.Chemscore.Hbonds>
donor molecule, donor type, donor heavy atom, donor atom, acceptor molecule, acceptor atom, score
      L1  H     1    14       P1   470  1.00
      L1  H    10    15       P1   470  0.85

> <Gold.PLP.Chemscore.Internal.Correction>
0.0000

