#       Name:                EN300-140735_i001
#       Creating user name   aseyller
#       Creation time:       Fri Apr 21 16:30:08 2023


#       File generated by GOLD software.
#

@<TRIPOS>MOLECULE
EN300-140735_i001|aminophenols|mol2|35|dock20
    15    15     1
SMALL
USER_CHARGES


@<TRIPOS>ATOM
      1 N1          26.3459  36.3976  42.0769 N.pl3          1 <1>                0.0000
      2 C2          26.9803  36.6141  40.8484 C.ar           1 <1>                0.0000
      3 C3          26.3150  37.2822  39.8304 C.ar           1 <1>                0.0000
      4 C4          26.9444  37.4952  38.6164 C.ar           1 <1>                0.0000
      5 F5          26.2960  38.1457  37.6257 F              1 <1>                0.0000
      6 C6          28.2375  37.0430  38.4154 C.ar           1 <1>                0.0000
      7 C7          28.9055  36.3762  39.4273 C.ar           1 <1>                0.0000
      8 Cl8         30.5270  35.8115  39.1712 Cl             1 <1>                0.0000
      9 C9          28.2829  36.1644  40.6470 C.ar           1 <1>                0.0000
     10 O10         28.9391  35.5087  41.6427 O.3            1 <1>                0.0000
     11 H11         25.3063  37.6356  39.9853 H              1 <1>                0.0000
     12 H12         28.7256  37.2109  37.4667 H              1 <1>                0.0000
     13 H13         25.4400  36.7148  42.2174 H              1 <1>                0.0000
     14 H14         26.8105  35.9270  42.7866 H              1 <1>                0.0000
     15 H15         29.9003  35.6109  41.6141 H              1 <1>                0.0000
@<TRIPOS>BOND
    1    1    2 1     
    2    1   13 1     
    3    1   14 1     
    4    2    3 ar    
    5    2    9 ar    
    6    3    4 ar    
    7    3   11 1     
    8    4    5 1     
    9    4    6 ar    
   10    6    7 ar    
   11    6   12 1     
   12    7    8 1     
   13    7    9 ar    
   14    9   10 1     
   15   10   15 1     
@<TRIPOS>SUBSTRUCTURE
      1 ****           1
@<TRIPOS>SET
DONOR_HYDROGENS      STATIC     ATOMS    <user>   **** ""
3 13 14 15
ATOM$RED        STATIC     ATOMS    COLORGROUP SYSTEM
3 13 14 15
@<TRIPOS>COMMENT
> <Gold.Version>
2022.2.0

> <Gold.Id.Protein>
1qkm|1qkm_protein|mol2

> <Gold.Protein.RotatedTorsions>
[  496  491  490  487 ] final  -83.62 input  -89.99 | X-H torsion

> <Gold.Protein.ActiveResidues>
 MET295  LEU298  THR299  LEU301  ALA302  GLU305  TRP335  MET336  LEU339  MET340 
 GLY342  LEU343  ARG346  PHE356  ILE373  ILE376  PHE377  LEU380  LYS471  GLY472 
 MET473  HIS475  LEU476  LEU477  ASN478  MET479  VAL484  VAL487 

> <Gold.Protein.RotatedAtoms>
   36.6987   34.6900   41.1582 H   0  0  0  0  0  0  0  0  0  0  0  0  # atno 496  bound_to 491 

> <Gold.Score>
     Score     S(PLP)   S(hbond)     S(cho)   S(metal)  DE(clash)   DE(tors)     intcor
     37.98     -33.49       1.50       0.00       0.00       0.00       0.00       0.00

> <Gold.PLP.Fitness>
37.9820

> <Gold.PLP.PLP>
-33.4940

> <Gold.PLP.part.hbond>
-2.3280

> <Gold.PLP.part.metal>
0.0000

> <Gold.PLP.part.buried>
-3.5476

> <Gold.PLP.part.nonpolar>
-28.0178

> <Gold.PLP.part.repulsive>
0.0727

> <Gold.PLP.ligand.clash>
0.0000

> <Gold.PLP.ligand.torsion>
0.0000

> <Gold.PLP.Chemscore.Hbond>
1.4960

> <Gold.PLP.Chemscore.CHOScore>
0.0000

> <Gold.PLP.Chemscore.Metal>
0.0000

> <Gold.Chemscore.Hbonds>
donor molecule, donor type, donor heavy atom, donor atom, acceptor molecule, acceptor atom, score
      L1  H     1    14       P1   582  0.50
      L1  H    10    15       P1   470  1.00

> <Gold.PLP.Chemscore.Internal.Correction>
0.0000

