#       Name:                EN300-140735_i001
#       Creating user name   aseyller
#       Creation time:       Fri Apr 21 16:30:03 2023


#       File generated by GOLD software.
#

@<TRIPOS>MOLECULE
EN300-140735_i001|aminophenols|mol2|35|dock1
    15    15     1
SMALL
USER_CHARGES


@<TRIPOS>ATOM
      1 N1          24.9284  36.1044  41.5012 N.pl3          1 <1>                0.0000
      2 C2          25.8985  36.4256  40.5450 C.ar           1 <1>                0.0000
      3 C3          25.5920  37.2962  39.5089 C.ar           1 <1>                0.0000
      4 C4          26.5529  37.6125  38.5644 C.ar           1 <1>                0.0000
      5 F5          26.2537  38.4602  37.5559 F              1 <1>                0.0000
      6 C6          27.8203  37.0619  38.6513 C.ar           1 <1>                0.0000
      7 C7          28.1312  36.1932  39.6826 C.ar           1 <1>                0.0000
      8 Cl8         29.7217  35.5056  39.7882 Cl             1 <1>                0.0000
      9 C9          27.1752  35.8766  40.6345 C.ar           1 <1>                0.0000
     10 O10         27.4800  35.0223  41.6490 O.3            1 <1>                0.0000
     11 H11         24.6040  37.7266  39.4394 H              1 <1>                0.0000
     12 H12         28.5677  37.3109  37.9126 H              1 <1>                0.0000
     13 H13         24.0407  36.4905  41.4401 H              1 <1>                0.0000
     14 H14         25.1426  35.4926  42.2229 H              1 <1>                0.0000
     15 H15         26.7494  34.8632  42.2622 H              1 <1>                0.0000
@<TRIPOS>BOND
    1    1    2 1     
    2    1   13 1     
    3    1   14 1     
    4    2    3 ar    
    5    2    9 ar    
    6    3    4 ar    
    7    3   11 1     
    8    4    5 1     
    9    4    6 ar    
   10    6    7 ar    
   11    6   12 1     
   12    7    8 1     
   13    7    9 ar    
   14    9   10 1     
   15   10   15 1     
@<TRIPOS>SUBSTRUCTURE
      1 ****           1
@<TRIPOS>SET
DONOR_HYDROGENS      STATIC     ATOMS    <user>   **** ""
3 13 14 15
ATOM$RED        STATIC     ATOMS    COLORGROUP SYSTEM
3 13 14 15
@<TRIPOS>COMMENT
> <Gold.Version>
2022.2.0

> <Gold.Id.Protein>
1qkm|1qkm_protein|mol2

> <Gold.Protein.RotatedTorsions>
[  496  491  490  487 ] final -147.41 input  -89.99 | X-H torsion

> <Gold.Protein.ActiveResidues>
 MET295  LEU298  THR299  LEU301  ALA302  GLU305  TRP335  MET336  LEU339  MET340 
 GLY342  LEU343  ARG346  PHE356  ILE373  ILE376  PHE377  LEU380  LYS471  GLY472 
 MET473  HIS475  LEU476  LEU477  ASN478  MET479  VAL484  VAL487 

> <Gold.Protein.RotatedAtoms>
   37.2176   33.9601   40.7207 H   0  0  0  0  0  0  0  0  0  0  0  0  # atno 496  bound_to 491 

> <Gold.Score>
     Score     S(PLP)   S(hbond)     S(cho)   S(metal)  DE(clash)   DE(tors)     intcor
     41.13     -34.74       2.13       0.00       0.00       0.00       0.00       0.00

> <Gold.PLP.Fitness>
41.1303

> <Gold.PLP.PLP>
-34.7372

> <Gold.PLP.part.hbond>
-3.0000

> <Gold.PLP.part.metal>
0.0000

> <Gold.PLP.part.buried>
-3.1740

> <Gold.PLP.part.nonpolar>
-29.7994

> <Gold.PLP.part.repulsive>
0.1950

> <Gold.PLP.ligand.clash>
0.0000

> <Gold.PLP.ligand.torsion>
0.0000

> <Gold.PLP.Chemscore.Hbond>
2.1310

> <Gold.PLP.Chemscore.CHOScore>
0.0000

> <Gold.PLP.Chemscore.Metal>
0.0000

> <Gold.Chemscore.Hbonds>
donor molecule, donor type, donor heavy atom, donor atom, acceptor molecule, acceptor atom, score
      L1  H     1    13       P1  1131  0.13
      L1  H     1    14       P1   582  1.00
      L1  H    10    15       P1   582  1.00

> <Gold.PLP.Chemscore.Internal.Correction>
0.0000

