#       Name:                EN300-140735_i001
#       Creating user name   aseyller
#       Creation time:       Fri Apr 21 16:30:03 2023


#       File generated by GOLD software.
#

@<TRIPOS>MOLECULE
EN300-140735_i001|aminophenols|mol2|35|dock2
    15    15     1
SMALL
USER_CHARGES


@<TRIPOS>ATOM
      1 N1          28.8006  35.5015  42.2285 N.pl3          1 <1>                0.0000
      2 C2          28.5714  36.0941  40.9815 C.ar           1 <1>                0.0000
      3 C3          29.6279  36.3044  40.1069 C.ar           1 <1>                0.0000
      4 C4          29.3991  36.8906  38.8743 C.ar           1 <1>                0.0000
      5 F5          30.4282  37.0950  38.0233 F              1 <1>                0.0000
      6 C6          28.1171  37.2676  38.5115 C.ar           1 <1>                0.0000
      7 C7          27.0600  37.0600  39.3800 C.ar           1 <1>                0.0000
      8 Cl8         25.4542  37.5337  38.9208 Cl             1 <1>                0.0000
      9 C9          27.2816  36.4688  40.6135 C.ar           1 <1>                0.0000
     10 O10         26.2426  36.2644  41.4681 O.3            1 <1>                0.0000
     11 H11         30.6286  36.0111  40.3881 H              1 <1>                0.0000
     12 H12         27.9421  37.7247  37.5488 H              1 <1>                0.0000
     13 H13         29.6988  35.2373  42.4821 H              1 <1>                0.0000
     14 H14         28.0619  35.3585  42.8407 H              1 <1>                0.0000
     15 H15         26.4622  35.7089  42.2286 H              1 <1>                0.0000
@<TRIPOS>BOND
    1    1    2 1     
    2    1   13 1     
    3    1   14 1     
    4    2    3 ar    
    5    2    9 ar    
    6    3    4 ar    
    7    3   11 1     
    8    4    5 1     
    9    4    6 ar    
   10    6    7 ar    
   11    6   12 1     
   12    7    8 1     
   13    7    9 ar    
   14    9   10 1     
   15   10   15 1     
@<TRIPOS>SUBSTRUCTURE
      1 ****           1
@<TRIPOS>SET
DONOR_HYDROGENS      STATIC     ATOMS    <user>   **** ""
3 13 14 15
ATOM$RED        STATIC     ATOMS    COLORGROUP SYSTEM
3 13 14 15
@<TRIPOS>COMMENT
> <Gold.Version>
2022.2.0

> <Gold.Id.Protein>
1qkm|1qkm_protein|mol2

> <Gold.Protein.RotatedTorsions>
[  496  491  490  487 ] final   60.63 input  -89.99 | X-H torsion

> <Gold.Protein.ActiveResidues>
 MET295  LEU298  THR299  LEU301  ALA302  GLU305  TRP335  MET336  LEU339  MET340 
 GLY342  LEU343  ARG346  PHE356  ILE373  ILE376  PHE377  LEU380  LYS471  GLY472 
 MET473  HIS475  LEU476  LEU477  ASN478  MET479  VAL484  VAL487 

> <Gold.Protein.RotatedAtoms>
   36.5568   33.3111   42.2991 H   0  0  0  0  0  0  0  0  0  0  0  0  # atno 496  bound_to 491 

> <Gold.Score>
     Score     S(PLP)   S(hbond)     S(cho)   S(metal)  DE(clash)   DE(tors)     intcor
     38.65     -32.67       1.99       0.00       0.00       0.00       0.00       0.00

> <Gold.PLP.Fitness>
38.6469

> <Gold.PLP.PLP>
-32.6731

> <Gold.PLP.part.hbond>
-2.2150

> <Gold.PLP.part.metal>
0.0000

> <Gold.PLP.part.buried>
-2.3862

> <Gold.PLP.part.nonpolar>
-30.1513

> <Gold.PLP.part.repulsive>
0.9910

> <Gold.PLP.ligand.clash>
0.0000

> <Gold.PLP.ligand.torsion>
0.0000

> <Gold.PLP.Chemscore.Hbond>
1.9913

> <Gold.PLP.Chemscore.CHOScore>
0.0000

> <Gold.PLP.Chemscore.Metal>
0.0000

> <Gold.Chemscore.Hbonds>
donor molecule, donor type, donor heavy atom, donor atom, acceptor molecule, acceptor atom, score
      L1  H     1    13       P1   470  0.73
      L1  H     1    14       P1   582  0.26
      L1  H    10    15       P1   582  1.00

> <Gold.PLP.Chemscore.Internal.Correction>
0.0000

