#       Name:                EN300-1659128_i002
#       Creating user name   fsindt
#       Creation time:       Mon Feb 27 18:51:46 2023


#       File generated by GOLD software.
#

@<TRIPOS>MOLECULE
EN300-1659128_i002|acide_1|mol2|392|dock4
    39    39     1
SMALL
USER_CHARGES


@<TRIPOS>ATOM
      1 C1           2.7310 -16.0439  12.2564 C.3            1 <1>                0.0000
      2 C2           1.8810 -16.6931  13.3504 C.3            1 <1>                0.0000
      3 C3           2.5862 -16.5437  14.7000 C.3            1 <1>                0.0000
      4 C4           0.5151 -16.0065  13.4099 C.3            1 <1>                0.0000
      5 O5           1.7017 -18.1026  13.0515 O.3            1 <1>                0.0000
      6 C6           0.8874 -18.8012  13.8650 C.2            1 <1>                0.0000
      7 O7           0.5042 -18.3104  14.9084 O.2            1 <1>                0.0000
      8 N8           0.4974 -20.0449  13.5219 N.am           1 <1>                0.0000
      9 C9           0.8487 -20.6043  12.2096 C.3            1 <1>                0.0000
     10 C10         -0.4315 -21.0880  11.5211 C.3            1 <1>                0.0000
     11 C11         -1.1650 -22.0636  12.4443 C.3            1 <1>                0.0000
     12 C12         -1.5541 -21.3479  13.7398 C.3            1 <1>                0.0000
     13 C13         -0.2820 -20.8692  14.4556 C.3            1 <1>                0.0000
     14 C14          0.5446 -22.0790  14.8963 C.3            1 <1>                0.0000
     15 C15         -0.2215 -22.8660  15.8763 C.1            1 <1>                0.0000
     16 C16         -0.8325 -23.4937  16.6579 C.1            1 <1>                0.0000
     17 C17         -0.6593 -20.0458  15.6600 C.2            1 <1>                0.0000
     18 O18         -1.6551 -19.3429  15.6303 O.co2          1 <1>                0.0000
     19 O19          0.0312 -20.0827  16.6642 O.co2          1 <1>               -1.0000
     20 H20          3.7041 -16.5331  12.2140 H              1 <1>                0.0000
     21 H21          2.2286 -16.1503  11.2949 H              1 <1>                0.0000
     22 H22          2.8657 -14.9858  12.4808 H              1 <1>                0.0000
     23 H23          2.7208 -15.4856  14.9245 H              1 <1>                0.0000
     24 H24          1.9806 -17.0063  15.4795 H              1 <1>                0.0000
     25 H25          3.5593 -17.0328  14.6576 H              1 <1>                0.0000
     26 H26          0.0127 -16.1129  12.4485 H              1 <1>                0.0000
     27 H27         -0.0905 -16.4690  14.1894 H              1 <1>                0.0000
     28 H28          0.6498 -14.9483  13.6344 H              1 <1>                0.0000
     29 H29          1.3234 -19.8355  11.5998 H              1 <1>                0.0000
     30 H30          1.5322 -21.4430  12.3409 H              1 <1>                0.0000
     31 H31         -1.0751 -20.2344  11.3086 H              1 <1>                0.0000
     32 H32         -0.1752 -21.5919  10.5891 H              1 <1>                0.0000
     33 H33         -2.0637 -22.4283  11.9468 H              1 <1>                0.0000
     34 H34         -0.5118 -22.9048  12.6762 H              1 <1>                0.0000
     35 H35         -2.1872 -20.4919  13.5064 H              1 <1>                0.0000
     36 H36         -2.0970 -22.0368  14.3870 H              1 <1>                0.0000
     37 H37          0.7711 -22.6996  14.0293 H              1 <1>                0.0000
     38 H38          1.4743 -21.7374  15.3515 H              1 <1>                0.0000
     39 H39         -1.3790 -24.0551  17.3570 H              1 <1>                0.0000
@<TRIPOS>BOND
    1    1    2 1     
    2    1   20 1     
    3    1   21 1     
    4    1   22 1     
    5    2    3 1     
    6    2    4 1     
    7    2    5 1     
    8    3   23 1     
    9    3   24 1     
   10    3   25 1     
   11    4   26 1     
   12    4   27 1     
   13    4   28 1     
   14    5    6 1     
   15    6    7 2     
   16    6    8 am    
   17    8    9 1     
   18    8   13 1     
   19    9   10 1     
   20    9   29 1     
   21    9   30 1     
   22   10   11 1     
   23   10   31 1     
   24   10   32 1     
   25   11   12 1     
   26   11   33 1     
   27   11   34 1     
   28   12   13 1     
   29   12   35 1     
   30   12   36 1     
   31   13   14 1     
   32   13   17 1     
   33   14   15 1     
   34   14   37 1     
   35   14   38 1     
   36   15   16 3     
   37   16   39 1     
   38   17   18 ar    
   39   17   19 ar    
@<TRIPOS>SUBSTRUCTURE
      1 ****           1
@<TRIPOS>COMMENT
> <Gold.Version>
2022.2.0

> <Gold.Id.Protein>
3pbl|protein|mol2

> <Gold.Protein.RotatedTorsions>
[ 1303 1298 1297 1294 ] final   19.28 input  179.99 | X-H torsion
[ 2461 2456 2455 2452 ] final   54.06 input   30.03 | X-H torsion
[ 2515 2510 2509 2506 ] final  106.88 input  -89.99 | X-H torsion
[ 3721 3712 3711 3710 ] final  -10.12 input -179.91 | X-H torsion
[ 3841 3832 3831 3830 ] final -167.22 input -179.91 | X-H torsion
[ 3767 3762 3761 3758 ] final  110.53 input  -89.99 | X-H torsion
[ 2472 2467 2466 2463 ] final  -99.98 input  -89.97 | X-H torsion

> <Gold.Protein.ActiveResidues>
 VAL82   VAL86   LEU89   PHE106  VAL107  ASP110  VAL111  MET112  CYS114  THR115 
 CYS181  SER182  ILE183  PHE188  VAL189  ILE190  SER192  SER193  SER196  TRP342 
 PHE345  PHE346  HIS349  VAL350  TYR365  THR369  GLY372  TYR373 

> <Gold.Protein.RotatedAtoms>
    3.5244  -10.0911    4.2283 H   0  0  0  0  0  0  0  0  0  0  0  0  # atno 1303 bound_to 1298
    1.8481   -7.9950    7.3192 H   0  0  0  0  0  0  0  0  0  0  0  0  # atno 2461 bound_to 2456
   -4.1856   -5.3852    9.3678 H   0  0  0  0  0  0  0  0  0  0  0  0  # atno 2472 bound_to 2467
    2.0289   -7.9641    5.9928 H   0  0  0  0  0  0  0  0  0  0  0  0  # atno 2515 bound_to 2510
   -2.5146  -17.8876   14.3759 H   0  0  0  0  0  0  0  0  0  0  0  0  # atno 3721 bound_to 3712
   -4.0102  -23.2524   10.7727 H   0  0  0  0  0  0  0  0  0  0  0  0  # atno 3767 bound_to 3762
    2.8332  -19.9110    8.3641 H   0  0  0  0  0  0  0  0  0  0  0  0  # atno 3841 bound_to 3832
    3.9685   -8.5470    3.9370 LP  0  0  0  0  0  0  0  0  0  0  0  0  # atno 4297 bound_to 1298
    4.8695   -9.4829    4.9263 LP  0  0  0  0  0  0  0  0  0  0  0  0  # atno 4298 bound_to 1298
    0.3478   -8.6308    7.4306 LP  0  0  0  0  0  0  0  0  0  0  0  0  # atno 4299 bound_to 2456
    1.5421   -9.1822    8.3983 LP  0  0  0  0  0  0  0  0  0  0  0  0  # atno 4300 bound_to 2456
    2.6262   -7.7833    4.4841 LP  0  0  0  0  0  0  0  0  0  0  0  0  # atno 4301 bound_to 2510
    2.6418   -9.2519    5.1980 LP  0  0  0  0  0  0  0  0  0  0  0  0  # atno 4302 bound_to 2510
   -3.4933  -16.6166   14.3088 LP  0  0  0  0  0  0  0  0  0  0  0  0  # atno 4306 bound_to 3712
   -3.1313  -17.4582   12.9570 LP  0  0  0  0  0  0  0  0  0  0  0  0  # atno 4307 bound_to 3712
    2.5611  -21.1579    9.3373 LP  0  0  0  0  0  0  0  0  0  0  0  0  # atno 4314 bound_to 3832
    1.3955  -20.0472    9.0645 LP  0  0  0  0  0  0  0  0  0  0  0  0  # atno 4315 bound_to 3832
   -5.3999  -22.6000   10.2159 LP  0  0  0  0  0  0  0  0  0  0  0  0  # atno 4318 bound_to 3762
   -4.7170  -22.0229   11.5824 LP  0  0  0  0  0  0  0  0  0  0  0  0  # atno 4319 bound_to 3762
   -5.5055   -5.1904    8.4265 LP  0  0  0  0  0  0  0  0  0  0  0  0  # atno 4320 bound_to 2467
   -4.0257   -4.8180    7.8450 LP  0  0  0  0  0  0  0  0  0  0  0  0  # atno 4321 bound_to 2467

> <Gold.Score>
     Score     S(PLP)   S(hbond)     S(cho)   S(metal)  DE(clash)   DE(tors)     intcor
     39.19     -36.51       0.95       0.00       0.00      17.88       1.22      20.15

> <Gold.PLP.Fitness>
39.1911

> <Gold.PLP.PLP>
-36.5070

> <Gold.PLP.part.hbond>
-1.0000

> <Gold.PLP.part.metal>
0.0000

> <Gold.PLP.part.buried>
-1.2265

> <Gold.PLP.part.nonpolar>
-35.0374

> <Gold.PLP.part.repulsive>
0.2199

> <Gold.PLP.ligand.clash>
17.8794

> <Gold.PLP.ligand.torsion>
1.2186

> <Gold.PLP.Chemscore.Hbond>
0.9516

> <Gold.PLP.Chemscore.CHOScore>
0.0000

> <Gold.PLP.Chemscore.Metal>
0.0000

> <Gold.Chemscore.Hbonds>
donor molecule, donor type, donor heavy atom, donor atom, acceptor molecule, acceptor atom, score
      P1  H  3712  3721       L1    18  0.95

> <Gold.PLP.Chemscore.Internal.Correction>
20.1460

