#       Name:                EN300-1659128_i002
#       Creating user name   fsindt
#       Creation time:       Mon Feb 27 18:51:44 2023


#       File generated by GOLD software.
#

@<TRIPOS>MOLECULE
EN300-1659128_i002|acide_1|mol2|392|dock2
    39    39     1
SMALL
USER_CHARGES


@<TRIPOS>ATOM
      1 C1          -2.5029 -24.3188  12.5973 C.3            1 <1>                0.0000
      2 C2          -2.2154 -23.2087  13.6101 C.3            1 <1>                0.0000
      3 C3          -3.5132 -22.8174  14.3198 C.3            1 <1>                0.0000
      4 C4          -1.2013 -23.7087  14.6407 C.3            1 <1>                0.0000
      5 O5          -1.6737 -22.0520  12.9197 O.3            1 <1>                0.0000
      6 C6          -1.1925 -21.0537  13.6842 C.2            1 <1>                0.0000
      7 O7          -1.5632 -20.9374  14.8355 O.2            1 <1>                0.0000
      8 N8          -0.2998 -20.1832  13.1725 N.am           1 <1>                0.0000
      9 C9           0.2524 -20.3822  11.8256 C.3            1 <1>                0.0000
     10 C10          1.7818 -20.3639  11.9121 C.3            1 <1>                0.0000
     11 C11          2.2348 -19.0700  12.5922 C.3            1 <1>                0.0000
     12 C12          1.6700 -19.0139  14.0134 C.3            1 <1>                0.0000
     13 C13          0.1352 -19.0139  13.9486 C.3            1 <1>                0.0000
     14 C14         -0.3496 -17.7303  13.2715 C.3            1 <1>                0.0000
     15 C15          0.4026 -16.5816  13.8019 C.1            1 <1>                0.0000
     16 C16          1.0025 -15.6654  14.2249 C.1            1 <1>                0.0000
     17 C17         -0.4295 -19.0970  15.3434 C.2            1 <1>                0.0000
     18 O18         -1.4727 -18.5268  15.6137 O.co2          1 <1>                0.0000
     19 O19          0.1570 -19.7344  16.2014 O.co2          1 <1>               -1.0000
     20 H20         -3.2254 -23.9626  11.8630 H              1 <1>                0.0000
     21 H21         -1.5784 -24.5976  12.0916 H              1 <1>                0.0000
     22 H22         -2.9096 -25.1872  13.1156 H              1 <1>                0.0000
     23 H23         -3.9199 -23.6858  14.8382 H              1 <1>                0.0000
     24 H24         -3.3084 -22.0265  15.0415 H              1 <1>                0.0000
     25 H25         -4.2357 -22.4612  13.5856 H              1 <1>                0.0000
     26 H26         -0.2767 -23.9875  14.1351 H              1 <1>                0.0000
     27 H27         -0.9965 -22.9178  15.3623 H              1 <1>                0.0000
     28 H28         -1.6080 -24.5771  15.1591 H              1 <1>                0.0000
     29 H29         -0.0799 -21.3432  11.4327 H              1 <1>                0.0000
     30 H30         -0.0862 -19.5803  11.1697 H              1 <1>                0.0000
     31 H31          2.1235 -21.2198  12.4940 H              1 <1>                0.0000
     32 H32          2.2036 -20.4142  10.9082 H              1 <1>                0.0000
     33 H33          3.3237 -19.0431  12.6329 H              1 <1>                0.0000
     34 H34          1.8716 -18.2142  12.0231 H              1 <1>                0.0000
     35 H35          2.0128 -19.8825  14.5756 H              1 <1>                0.0000
     36 H36          2.0121 -18.1033  14.5052 H              1 <1>                0.0000
     37 H37         -0.1894 -17.8042  12.1959 H              1 <1>                0.0000
     38 H38         -1.4122 -17.5928  13.4721 H              1 <1>                0.0000
     39 H39          1.5391 -14.8459  14.6033 H              1 <1>                0.0000
@<TRIPOS>BOND
    1    1    2 1     
    2    1   20 1     
    3    1   21 1     
    4    1   22 1     
    5    2    3 1     
    6    2    4 1     
    7    2    5 1     
    8    3   23 1     
    9    3   24 1     
   10    3   25 1     
   11    4   26 1     
   12    4   27 1     
   13    4   28 1     
   14    5    6 1     
   15    6    7 2     
   16    6    8 am    
   17    8    9 1     
   18    8   13 1     
   19    9   10 1     
   20    9   29 1     
   21    9   30 1     
   22   10   11 1     
   23   10   31 1     
   24   10   32 1     
   25   11   12 1     
   26   11   33 1     
   27   11   34 1     
   28   12   13 1     
   29   12   35 1     
   30   12   36 1     
   31   13   14 1     
   32   13   17 1     
   33   14   15 1     
   34   14   37 1     
   35   14   38 1     
   36   15   16 3     
   37   16   39 1     
   38   17   18 ar    
   39   17   19 ar    
@<TRIPOS>SUBSTRUCTURE
      1 ****           1
@<TRIPOS>COMMENT
> <Gold.Version>
2022.2.0

> <Gold.Id.Protein>
3pbl|protein|mol2

> <Gold.Protein.RotatedTorsions>
[ 1303 1298 1297 1294 ] final -166.27 input  179.99 | X-H torsion
[ 2461 2456 2455 2452 ] final  129.30 input   30.03 | X-H torsion
[ 2515 2510 2509 2506 ] final   66.18 input  -89.99 | X-H torsion
[ 3721 3712 3711 3710 ] final  -17.24 input -179.91 | X-H torsion
[ 3841 3832 3831 3830 ] final   15.00 input -179.91 | X-H torsion
[ 3767 3762 3761 3758 ] final  -30.57 input  -89.99 | X-H torsion
[ 2472 2467 2466 2463 ] final  -83.64 input  -89.97 | X-H torsion

> <Gold.Protein.ActiveResidues>
 VAL82   VAL86   LEU89   PHE106  VAL107  ASP110  VAL111  MET112  CYS114  THR115 
 CYS181  SER182  ILE183  PHE188  VAL189  ILE190  SER192  SER193  SER196  TRP342 
 PHE345  PHE346  HIS349  VAL350  TYR365  THR369  GLY372  TYR373 

> <Gold.Protein.RotatedAtoms>
    4.7642   -8.7118    4.5546 H   0  0  0  0  0  0  0  0  0  0  0  0  # atno 1303 bound_to 1298
    2.0662   -8.7559    8.1554 H   0  0  0  0  0  0  0  0  0  0  0  0  # atno 2461 bound_to 2456
   -3.9609   -5.3145    9.2402 H   0  0  0  0  0  0  0  0  0  0  0  0  # atno 2472 bound_to 2467
    2.1207   -7.5006    5.5385 H   0  0  0  0  0  0  0  0  0  0  0  0  # atno 2515 bound_to 2510
   -2.5414  -17.8276   14.4610 H   0  0  0  0  0  0  0  0  0  0  0  0  # atno 3721 bound_to 3712
   -5.5002  -22.3455   10.4267 H   0  0  0  0  0  0  0  0  0  0  0  0  # atno 3767 bound_to 3762
    1.8857  -20.6484    9.6110 H   0  0  0  0  0  0  0  0  0  0  0  0  # atno 3841 bound_to 3832
    4.1974  -10.2308    4.7494 LP  0  0  0  0  0  0  0  0  0  0  0  0  # atno 4297 bound_to 1298
    3.4004   -9.1790    3.7875 LP  0  0  0  0  0  0  0  0  0  0  0  0  # atno 4298 bound_to 1298
    1.1880   -7.9472    7.0409 LP  0  0  0  0  0  0  0  0  0  0  0  0  # atno 4299 bound_to 2456
    0.4838   -9.1052    7.9519 LP  0  0  0  0  0  0  0  0  0  0  0  0  # atno 4300 bound_to 2456
    2.8101   -8.4012    4.3640 LP  0  0  0  0  0  0  0  0  0  0  0  0  # atno 4301 bound_to 2510
    2.3661   -9.0977    5.7726 LP  0  0  0  0  0  0  0  0  0  0  0  0  # atno 4302 bound_to 2510
   -3.5219  -16.5837   14.1982 LP  0  0  0  0  0  0  0  0  0  0  0  0  # atno 4306 bound_to 3712
   -3.0717  -17.5603   12.9693 LP  0  0  0  0  0  0  0  0  0  0  0  0  # atno 4307 bound_to 3712
    1.9254  -19.6348    8.3672 LP  0  0  0  0  0  0  0  0  0  0  0  0  # atno 4314 bound_to 3832
    3.1257  -20.7185    8.5943 LP  0  0  0  0  0  0  0  0  0  0  0  0  # atno 4315 bound_to 3832
   -4.4279  -22.1989   11.6495 LP  0  0  0  0  0  0  0  0  0  0  0  0  # atno 4318 bound_to 3762
   -4.1996  -23.3306   10.4947 LP  0  0  0  0  0  0  0  0  0  0  0  0  # atno 4319 bound_to 3762
   -5.4938   -5.2800    8.6787 LP  0  0  0  0  0  0  0  0  0  0  0  0  # atno 4320 bound_to 2467
   -4.2621   -4.7991    7.7204 LP  0  0  0  0  0  0  0  0  0  0  0  0  # atno 4321 bound_to 2467

> <Gold.Score>
     Score     S(PLP)   S(hbond)     S(cho)   S(metal)  DE(clash)   DE(tors)     intcor
     37.79     -35.34       1.00       0.00       0.00      17.40       1.65      20.15

> <Gold.PLP.Fitness>
37.7861

> <Gold.PLP.PLP>
-35.3362

> <Gold.PLP.part.hbond>
-1.0000

> <Gold.PLP.part.metal>
0.0000

> <Gold.PLP.part.buried>
0.9432

> <Gold.PLP.part.nonpolar>
-36.0427

> <Gold.PLP.part.repulsive>
0.0935

> <Gold.PLP.ligand.clash>
17.4018

> <Gold.PLP.ligand.torsion>
1.6471

> <Gold.PLP.Chemscore.Hbond>
1.0000

> <Gold.PLP.Chemscore.CHOScore>
0.0000

> <Gold.PLP.Chemscore.Metal>
0.0000

> <Gold.Chemscore.Hbonds>
donor molecule, donor type, donor heavy atom, donor atom, acceptor molecule, acceptor atom, score
      P1  H  3712  3721       L1    18  1.00

> <Gold.PLP.Chemscore.Internal.Correction>
20.1460

