#       Name:                EN300-1659128_i002
#       Creating user name   fsindt
#       Creation time:       Mon Feb 27 18:51:58 2023


#       File generated by GOLD software.
#

@<TRIPOS>MOLECULE
EN300-1659128_i002|acide_1|mol2|392|dock13
    39    39     1
SMALL
USER_CHARGES


@<TRIPOS>ATOM
      1 C1           0.8000 -15.9071  13.6212 C.3            1 <1>                0.0000
      2 C2           1.6260 -17.1903  13.5127 C.3            1 <1>                0.0000
      3 C3           2.6952 -17.0188  12.4318 C.3            1 <1>                0.0000
      4 C4           2.3000 -17.4782  14.8557 C.3            1 <1>                0.0000
      5 O5           0.7555 -18.2979  13.1608 O.3            1 <1>                0.0000
      6 C6          -0.0745 -18.7515  14.1190 C.2            1 <1>                0.0000
      7 O7          -0.4909 -17.9922  14.9714 O.2            1 <1>                0.0000
      8 N8          -0.4433 -20.0477  14.1328 N.am           1 <1>                0.0000
      9 C9          -1.2457 -20.5860  15.2397 C.3            1 <1>                0.0000
     10 C10         -0.5325 -21.8143  15.8138 C.3            1 <1>                0.0000
     11 C11         -0.2630 -22.8153  14.6880 C.3            1 <1>                0.0000
     12 C12          0.6487 -22.1735  13.6398 C.3            1 <1>                0.0000
     13 C13         -0.0557 -20.9480  13.0383 C.3            1 <1>                0.0000
     14 C14         -1.2997 -21.3976  12.2692 C.3            1 <1>                0.0000
     15 C15         -0.9730 -22.5806  11.4563 C.1            1 <1>                0.0000
     16 C16         -0.7124 -23.5241  10.8081 C.1            1 <1>                0.0000
     17 C17          0.8863 -20.2307  12.1060 C.2            1 <1>                0.0000
     18 O18          0.4544 -19.6808  11.1072 O.co2          1 <1>                0.0000
     19 O19          2.0803 -20.2003  12.3505 O.co2          1 <1>               -1.0000
     20 H20          0.3198 -15.7021  12.6644 H              1 <1>                0.0000
     21 H21          0.0382 -16.0293  14.3912 H              1 <1>                0.0000
     22 H22          1.4535 -15.0756  13.8853 H              1 <1>                0.0000
     23 H23          3.3487 -16.1873  12.6960 H              1 <1>                0.0000
     24 H24          3.2837 -17.9331  12.3545 H              1 <1>                0.0000
     25 H25          2.2151 -16.8137  11.4751 H              1 <1>                0.0000
     26 H26          1.5382 -17.6004  15.6257 H              1 <1>                0.0000
     27 H27          2.8884 -18.3925  14.7784 H              1 <1>                0.0000
     28 H28          2.9535 -16.6467  15.1199 H              1 <1>                0.0000
     29 H29         -1.3514 -19.8286  16.0165 H              1 <1>                0.0000
     30 H30         -2.2301 -20.8741  14.8711 H              1 <1>                0.0000
     31 H31          0.4125 -21.5092  16.2634 H              1 <1>                0.0000
     32 H32         -1.1628 -22.2798  16.5715 H              1 <1>                0.0000
     33 H33          0.2224 -23.7010  15.0981 H              1 <1>                0.0000
     34 H34         -1.2064 -23.1011  14.2227 H              1 <1>                0.0000
     35 H35          1.5825 -21.8651  14.1098 H              1 <1>                0.0000
     36 H36          0.8591 -22.8947  12.8501 H              1 <1>                0.0000
     37 H37         -2.0918 -21.6489  12.9745 H              1 <1>                0.0000
     38 H38         -1.6355 -20.5907  11.6179 H              1 <1>                0.0000
     39 H39         -0.4794 -24.3680  10.2283 H              1 <1>                0.0000
@<TRIPOS>BOND
    1    1    2 1     
    2    1   20 1     
    3    1   21 1     
    4    1   22 1     
    5    2    3 1     
    6    2    4 1     
    7    2    5 1     
    8    3   23 1     
    9    3   24 1     
   10    3   25 1     
   11    4   26 1     
   12    4   27 1     
   13    4   28 1     
   14    5    6 1     
   15    6    7 2     
   16    6    8 am    
   17    8    9 1     
   18    8   13 1     
   19    9   10 1     
   20    9   29 1     
   21    9   30 1     
   22   10   11 1     
   23   10   31 1     
   24   10   32 1     
   25   11   12 1     
   26   11   33 1     
   27   11   34 1     
   28   12   13 1     
   29   12   35 1     
   30   12   36 1     
   31   13   14 1     
   32   13   17 1     
   33   14   15 1     
   34   14   37 1     
   35   14   38 1     
   36   15   16 3     
   37   16   39 1     
   38   17   18 ar    
   39   17   19 ar    
@<TRIPOS>SUBSTRUCTURE
      1 ****           1
@<TRIPOS>COMMENT
> <Gold.Version>
2022.2.0

> <Gold.Id.Protein>
3pbl|protein|mol2

> <Gold.Protein.RotatedTorsions>
[ 1303 1298 1297 1294 ] final  -51.15 input  179.99 | X-H torsion
[ 2461 2456 2455 2452 ] final -117.83 input   30.03 | X-H torsion
[ 2515 2510 2509 2506 ] final   99.85 input  -89.99 | X-H torsion
[ 3721 3712 3711 3710 ] final  -12.49 input -179.91 | X-H torsion
[ 3841 3832 3831 3830 ] final  -17.01 input -179.91 | X-H torsion
[ 3767 3762 3761 3758 ] final -151.48 input  -89.99 | X-H torsion
[ 2472 2467 2466 2463 ] final   80.12 input  -89.97 | X-H torsion

> <Gold.Protein.ActiveResidues>
 VAL82   VAL86   LEU89   PHE106  VAL107  ASP110  VAL111  MET112  CYS114  THR115 
 CYS181  SER182  ILE183  PHE188  VAL189  ILE190  SER192  SER193  SER196  TRP342 
 PHE345  PHE346  HIS349  VAL350  TYR365  THR369  GLY372  TYR373 

> <Gold.Protein.RotatedAtoms>
    3.4308   -9.1050    3.7805 H   0  0  0  0  0  0  0  0  0  0  0  0  # atno 1303 bound_to 1298
    0.5525   -9.1594    8.0302 H   0  0  0  0  0  0  0  0  0  0  0  0  # atno 2461 bound_to 2456
   -4.9604   -4.8785    7.7252 H   0  0  0  0  0  0  0  0  0  0  0  0  # atno 2472 bound_to 2467
    2.0309   -7.8631    5.9366 H   0  0  0  0  0  0  0  0  0  0  0  0  # atno 2515 bound_to 2510
   -2.5229  -17.8686   14.4051 H   0  0  0  0  0  0  0  0  0  0  0  0  # atno 3721 bound_to 3712
   -4.4155  -22.2073   11.6498 H   0  0  0  0  0  0  0  0  0  0  0  0  # atno 3767 bound_to 3762
    1.6186  -20.2860    9.4520 H   0  0  0  0  0  0  0  0  0  0  0  0  # atno 3841 bound_to 3832
    4.8014   -8.7659    4.6008 LP  0  0  0  0  0  0  0  0  0  0  0  0  # atno 4297 bound_to 1298
    4.1303  -10.2505    4.7105 LP  0  0  0  0  0  0  0  0  0  0  0  0  # atno 4298 bound_to 1298
    2.1101   -8.6716    8.0865 LP  0  0  0  0  0  0  0  0  0  0  0  0  # atno 4299 bound_to 2456
    1.0749   -7.9773    7.0316 LP  0  0  0  0  0  0  0  0  0  0  0  0  # atno 4300 bound_to 2456
    2.6681   -7.8785    4.4335 LP  0  0  0  0  0  0  0  0  0  0  0  0  # atno 4301 bound_to 2510
    2.5979   -9.2578    5.3048 LP  0  0  0  0  0  0  0  0  0  0  0  0  # atno 4302 bound_to 2510
   -3.5035  -16.6043   14.2726 LP  0  0  0  0  0  0  0  0  0  0  0  0  # atno 4306 bound_to 3712
   -3.1114  -17.4924   12.9595 LP  0  0  0  0  0  0  0  0  0  0  0  0  # atno 4307 bound_to 3712
    2.4017  -19.7365    8.1633 LP  0  0  0  0  0  0  0  0  0  0  0  0  # atno 4314 bound_to 3832
    2.9579  -21.0354    8.9819 LP  0  0  0  0  0  0  0  0  0  0  0  0  # atno 4315 bound_to 3832
   -4.2093  -23.3319   10.4837 LP  0  0  0  0  0  0  0  0  0  0  0  0  # atno 4318 bound_to 3762
   -5.5024  -22.3357   10.4378 LP  0  0  0  0  0  0  0  0  0  0  0  0  # atno 4319 bound_to 3762
   -3.6390   -5.0709    8.6649 LP  0  0  0  0  0  0  0  0  0  0  0  0  # atno 4320 bound_to 2467
   -5.1176   -5.4441    9.2489 LP  0  0  0  0  0  0  0  0  0  0  0  0  # atno 4321 bound_to 2467

> <Gold.Score>
     Score     S(PLP)   S(hbond)     S(cho)   S(metal)  DE(clash)   DE(tors)     intcor
     38.17     -35.63       1.95       0.00       0.00      19.82       1.76      20.02

> <Gold.PLP.Fitness>
38.1678

> <Gold.PLP.PLP>
-35.6323

> <Gold.PLP.part.hbond>
-1.9627

> <Gold.PLP.part.metal>
0.0000

> <Gold.PLP.part.buried>
0.3439

> <Gold.PLP.part.nonpolar>
-34.4656

> <Gold.PLP.part.repulsive>
0.2330

> <Gold.PLP.ligand.clash>
19.8190

> <Gold.PLP.ligand.torsion>
1.7583

> <Gold.PLP.Chemscore.Hbond>
1.9500

> <Gold.PLP.Chemscore.CHOScore>
0.0000

> <Gold.PLP.Chemscore.Metal>
0.0000

> <Gold.Chemscore.Hbonds>
donor molecule, donor type, donor heavy atom, donor atom, acceptor molecule, acceptor atom, score
      P1  H  3712  3721       L1     7  0.98
      P1  H  3832  3841       L1    18  0.98

> <Gold.PLP.Chemscore.Internal.Correction>
20.0211

