#       Name:                EN300-1659128_i002
#       Creating user name   fsindt
#       Creation time:       Mon Feb 27 18:51:50 2023


#       File generated by GOLD software.
#

@<TRIPOS>MOLECULE
EN300-1659128_i002|acide_1|mol2|392|dock7
    39    39     1
SMALL
USER_CHARGES


@<TRIPOS>ATOM
      1 C1           2.6717 -17.0858  13.1880 C.3            1 <1>                0.0000
      2 C2           1.6992 -17.8808  14.0615 C.3            1 <1>                0.0000
      3 C3           2.4372 -18.4136  15.2914 C.3            1 <1>                0.0000
      4 C4           0.5540 -16.9702  14.5087 C.3            1 <1>                0.0000
      5 O5           1.1630 -18.9941  13.2991 O.3            1 <1>                0.0000
      6 C6           0.4064 -19.8847  13.9676 C.2            1 <1>                0.0000
      7 O7          -0.0299 -19.6072  15.0672 O.2            1 <1>                0.0000
      8 N8           0.1329 -21.0842  13.4172 N.am           1 <1>                0.0000
      9 C9           0.5463 -21.3878  12.0403 C.3            1 <1>                0.0000
     10 C10         -0.6784 -21.8610  11.2509 C.3            1 <1>                0.0000
     11 C11         -1.3309 -23.0349  11.9845 C.3            1 <1>                0.0000
     12 C12         -1.7958 -22.5783  13.3692 C.3            1 <1>                0.0000
     13 C13         -0.5790 -22.1152  14.1846 C.3            1 <1>                0.0000
     14 C14          0.3482 -23.3047  14.4429 C.3            1 <1>                0.0000
     15 C15         -0.3937 -24.3601  15.1519 C.1            1 <1>                0.0000
     16 C16         -0.9853 -25.2018  15.7173 C.1            1 <1>                0.0000
     17 C17         -1.0409 -21.5368  15.4973 C.2            1 <1>                0.0000
     18 O18         -2.1054 -20.9460  15.5623 O.co2          1 <1>                0.0000
     19 O19         -0.3500 -21.6597  16.4943 O.co2          1 <1>               -1.0000
     20 H20          3.4876 -17.7346  12.8694 H              1 <1>                0.0000
     21 H21          2.1460 -16.7063  12.3118 H              1 <1>                0.0000
     22 H22          3.0743 -16.2501  13.7604 H              1 <1>                0.0000
     23 H23          2.8398 -17.5778  15.8638 H              1 <1>                0.0000
     24 H24          1.7444 -18.9800  15.9138 H              1 <1>                0.0000
     25 H25          3.2531 -19.0622  14.9728 H              1 <1>                0.0000
     26 H26          0.0282 -16.5907  13.6325 H              1 <1>                0.0000
     27 H27         -0.1388 -17.5366  15.1311 H              1 <1>                0.0000
     28 H28          0.9566 -16.1345  15.0811 H              1 <1>                0.0000
     29 H29          0.9563 -20.4910  11.5758 H              1 <1>                0.0000
     30 H30          1.3008 -22.1743  12.0503 H              1 <1>                0.0000
     31 H31         -1.3937 -21.0432  11.1643 H              1 <1>                0.0000
     32 H32         -0.3685 -22.1808  10.2559 H              1 <1>                0.0000
     33 H33         -2.1882 -23.3895  11.4122 H              1 <1>                0.0000
     34 H34         -0.6073 -23.8430  12.0926 H              1 <1>                0.0000
     35 H35         -2.5006 -21.7537  13.2627 H              1 <1>                0.0000
     36 H36         -2.2813 -23.4086  13.8821 H              1 <1>                0.0000
     37 H37          0.7138 -23.6934  13.4925 H              1 <1>                0.0000
     38 H38          1.1922 -22.9817  15.0523 H              1 <1>                0.0000
     39 H39         -1.5144 -25.9547  16.2230 H              1 <1>                0.0000
@<TRIPOS>BOND
    1    1    2 1     
    2    1   20 1     
    3    1   21 1     
    4    1   22 1     
    5    2    3 1     
    6    2    4 1     
    7    2    5 1     
    8    3   23 1     
    9    3   24 1     
   10    3   25 1     
   11    4   26 1     
   12    4   27 1     
   13    4   28 1     
   14    5    6 1     
   15    6    7 2     
   16    6    8 am    
   17    8    9 1     
   18    8   13 1     
   19    9   10 1     
   20    9   29 1     
   21    9   30 1     
   22   10   11 1     
   23   10   31 1     
   24   10   32 1     
   25   11   12 1     
   26   11   33 1     
   27   11   34 1     
   28   12   13 1     
   29   12   35 1     
   30   12   36 1     
   31   13   14 1     
   32   13   17 1     
   33   14   15 1     
   34   14   37 1     
   35   14   38 1     
   36   15   16 3     
   37   16   39 1     
   38   17   18 ar    
   39   17   19 ar    
@<TRIPOS>SUBSTRUCTURE
      1 ****           1
@<TRIPOS>COMMENT
> <Gold.Version>
2022.2.0

> <Gold.Id.Protein>
3pbl|protein|mol2

> <Gold.Protein.RotatedTorsions>
[ 1303 1298 1297 1294 ] final  -54.87 input  179.99 | X-H torsion
[ 2461 2456 2455 2452 ] final   55.49 input   30.03 | X-H torsion
[ 2515 2510 2509 2506 ] final  -78.13 input  -89.99 | X-H torsion
[ 3721 3712 3711 3710 ] final   79.05 input -179.91 | X-H torsion
[ 3841 3832 3831 3830 ] final    9.20 input -179.91 | X-H torsion
[ 3767 3762 3761 3758 ] final  100.02 input  -89.99 | X-H torsion
[ 2472 2467 2466 2463 ] final  -29.32 input  -89.97 | X-H torsion

> <Gold.Protein.ActiveResidues>
 VAL82   VAL86   LEU89   PHE106  VAL107  ASP110  VAL111  MET112  CYS114  THR115 
 CYS181  SER182  ILE183  PHE188  VAL189  ILE190  SER192  SER193  SER196  TRP342 
 PHE345  PHE346  HIS349  VAL350  TYR365  THR369  GLY372  TYR373 

> <Gold.Protein.RotatedAtoms>
    3.4574   -9.0500    3.7777 H   0  0  0  0  0  0  0  0  0  0  0  0  # atno 1303 bound_to 1298
    1.8651   -8.0032    7.3333 H   0  0  0  0  0  0  0  0  0  0  0  0  # atno 2461 bound_to 2456
   -3.6380   -5.0128    8.5016 H   0  0  0  0  0  0  0  0  0  0  0  0  # atno 2472 bound_to 2467
    2.8350   -8.7746    4.4964 H   0  0  0  0  0  0  0  0  0  0  0  0  # atno 2515 bound_to 2510
   -2.7067  -17.7372   13.1845 H   0  0  0  0  0  0  0  0  0  0  0  0  # atno 3721 bound_to 3712
   -4.0938  -23.3026   10.6303 H   0  0  0  0  0  0  0  0  0  0  0  0  # atno 3767 bound_to 3762
    1.8237  -20.5883    9.5956 H   0  0  0  0  0  0  0  0  0  0  0  0  # atno 3841 bound_to 3832
    4.8261   -8.8101    4.6351 LP  0  0  0  0  0  0  0  0  0  0  0  0  # atno 4297 bound_to 1298
    4.0789  -10.2614    4.6790 LP  0  0  0  0  0  0  0  0  0  0  0  0  # atno 4298 bound_to 1298
    0.3525   -8.6137    7.4151 LP  0  0  0  0  0  0  0  0  0  0  0  0  # atno 4299 bound_to 2456
    1.5203   -9.1912    8.3996 LP  0  0  0  0  0  0  0  0  0  0  0  0  # atno 4300 bound_to 2456
    2.2080   -8.8157    6.0033 LP  0  0  0  0  0  0  0  0  0  0  0  0  # atno 4301 bound_to 2510
    2.2536   -7.4086    5.1760 LP  0  0  0  0  0  0  0  0  0  0  0  0  # atno 4302 bound_to 2510
   -2.8366  -17.6888   14.7841 LP  0  0  0  0  0  0  0  0  0  0  0  0  # atno 4306 bound_to 3712
   -3.5661  -16.5596   13.8572 LP  0  0  0  0  0  0  0  0  0  0  0  0  # atno 4307 bound_to 3712
    2.0083  -19.6360    8.3169 LP  0  0  0  0  0  0  0  0  0  0  0  0  # atno 4314 bound_to 3832
    3.1144  -20.7867    8.6623 LP  0  0  0  0  0  0  0  0  0  0  0  0  # atno 4315 bound_to 3832
   -5.4627  -22.4710   10.3118 LP  0  0  0  0  0  0  0  0  0  0  0  0  # atno 4318 bound_to 3762
   -4.5707  -22.1017   11.6289 LP  0  0  0  0  0  0  0  0  0  0  0  0  # atno 4319 bound_to 3762
   -4.9685   -5.4592    9.3365 LP  0  0  0  0  0  0  0  0  0  0  0  0  # atno 4320 bound_to 2467
   -5.1103   -4.9215    7.8011 LP  0  0  0  0  0  0  0  0  0  0  0  0  # atno 4321 bound_to 2467

> <Gold.Score>
     Score     S(PLP)   S(hbond)     S(cho)   S(metal)  DE(clash)   DE(tors)     intcor
     39.85     -39.88       0.00       0.00       0.00      17.41       1.34      20.05

> <Gold.PLP.Fitness>
39.8508

> <Gold.PLP.PLP>
-39.8839

> <Gold.PLP.part.hbond>
0.0000

> <Gold.PLP.part.metal>
0.0000

> <Gold.PLP.part.buried>
0.0375

> <Gold.PLP.part.nonpolar>
-40.1175

> <Gold.PLP.part.repulsive>
0.1029

> <Gold.PLP.ligand.clash>
17.4076

> <Gold.PLP.ligand.torsion>
1.3402

> <Gold.PLP.Chemscore.Hbond>
0.0000

> <Gold.PLP.Chemscore.CHOScore>
0.0000

> <Gold.PLP.Chemscore.Metal>
0.0000

> <Gold.PLP.Chemscore.Internal.Correction>
20.0549

