#       Name:                EN300-1659128_i002
#       Creating user name   fsindt
#       Creation time:       Mon Feb 27 18:51:53 2023


#       File generated by GOLD software.
#

@<TRIPOS>MOLECULE
EN300-1659128_i002|acide_1|mol2|392|dock9
    39    39     1
SMALL
USER_CHARGES


@<TRIPOS>ATOM
      1 C1           0.2575 -17.3676  11.9600 C.3            1 <1>                0.0000
      2 C2           1.0290 -17.8200  13.2012 C.3            1 <1>                0.0000
      3 C3           2.5314 -17.7586  12.9184 C.3            1 <1>                0.0000
      4 C4           0.6929 -16.8980  14.3749 C.3            1 <1>                0.0000
      5 O5           0.6546 -19.1829  13.5337 O.3            1 <1>                0.0000
      6 C6           0.7559 -20.1010  12.5542 C.2            1 <1>                0.0000
      7 O7           1.3838 -19.8464  11.5455 O.2            1 <1>                0.0000
      8 N8           0.1610 -21.3024  12.6924 N.am           1 <1>                0.0000
      9 C9           0.1558 -22.2672  11.5843 C.3            1 <1>                0.0000
     10 C10         -1.2892 -22.6959  11.3105 C.3            1 <1>                0.0000
     11 C11         -1.9150 -23.2215  12.6044 C.3            1 <1>                0.0000
     12 C12         -1.9322 -22.1078  13.6539 C.3            1 <1>                0.0000
     13 C13         -0.4897 -21.6746  13.9561 C.3            1 <1>                0.0000
     14 C14          0.2673 -22.8324  14.6098 C.3            1 <1>                0.0000
     15 C15          1.7122 -22.6628  14.3855 C.1            1 <1>                0.0000
     16 C16          2.8645 -22.5275  14.2065 C.1            1 <1>                0.0000
     17 C17         -0.5026 -20.4876  14.8845 C.2            1 <1>                0.0000
     18 O18         -1.3914 -19.6572  14.8001 O.co2          1 <1>                0.0000
     19 O19          0.3757 -20.3576  15.7200 O.co2          1 <1>               -1.0000
     20 H20          0.4970 -18.0245  11.1238 H              1 <1>                0.0000
     21 H21         -0.8128 -17.4113  12.1614 H              1 <1>                0.0000
     22 H22          0.5387 -16.3445  11.7103 H              1 <1>                0.0000
     23 H23          2.8126 -16.7354  12.6688 H              1 <1>                0.0000
     24 H24          3.0811 -18.0810  13.8028 H              1 <1>                0.0000
     25 H25          2.7709 -18.4155  12.0822 H              1 <1>                0.0000
     26 H26         -0.3774 -16.9418  14.5765 H              1 <1>                0.0000
     27 H27          1.2426 -17.2204  15.2593 H              1 <1>                0.0000
     28 H28          0.9741 -15.8748  14.1253 H              1 <1>                0.0000
     29 H29          0.5740 -21.8011  10.6921 H              1 <1>                0.0000
     30 H30          0.7504 -23.1392  11.8563 H              1 <1>                0.0000
     31 H31         -1.8608 -21.8401  10.9514 H              1 <1>                0.0000
     32 H32         -1.2985 -23.4827  10.5561 H              1 <1>                0.0000
     33 H33         -2.9354 -23.5502  12.4069 H              1 <1>                0.0000
     34 H34         -1.3286 -24.0618  12.9763 H              1 <1>                0.0000
     35 H35         -2.4978 -21.2575  13.2727 H              1 <1>                0.0000
     36 H36         -2.3993 -22.4759  14.5674 H              1 <1>                0.0000
     37 H37          0.0644 -22.8405  15.6807 H              1 <1>                0.0000
     38 H38         -0.0605 -23.7747  14.1708 H              1 <1>                0.0000
     39 H39          3.8952 -22.4065  14.0464 H              1 <1>                0.0000
@<TRIPOS>BOND
    1    1    2 1     
    2    1   20 1     
    3    1   21 1     
    4    1   22 1     
    5    2    3 1     
    6    2    4 1     
    7    2    5 1     
    8    3   23 1     
    9    3   24 1     
   10    3   25 1     
   11    4   26 1     
   12    4   27 1     
   13    4   28 1     
   14    5    6 1     
   15    6    7 2     
   16    6    8 am    
   17    8    9 1     
   18    8   13 1     
   19    9   10 1     
   20    9   29 1     
   21    9   30 1     
   22   10   11 1     
   23   10   31 1     
   24   10   32 1     
   25   11   12 1     
   26   11   33 1     
   27   11   34 1     
   28   12   13 1     
   29   12   35 1     
   30   12   36 1     
   31   13   14 1     
   32   13   17 1     
   33   14   15 1     
   34   14   37 1     
   35   14   38 1     
   36   15   16 3     
   37   16   39 1     
   38   17   18 ar    
   39   17   19 ar    
@<TRIPOS>SUBSTRUCTURE
      1 ****           1
@<TRIPOS>COMMENT
> <Gold.Version>
2022.2.0

> <Gold.Id.Protein>
3pbl|protein|mol2

> <Gold.Protein.RotatedTorsions>
[ 1303 1298 1297 1294 ] final  141.21 input  179.99 | X-H torsion
[ 2461 2456 2455 2452 ] final  115.77 input   30.03 | X-H torsion
[ 2515 2510 2509 2506 ] final -167.60 input  -89.99 | X-H torsion
[ 3721 3712 3711 3710 ] final   -0.10 input -179.91 | X-H torsion
[ 3841 3832 3831 3830 ] final   -0.05 input -179.91 | X-H torsion
[ 3767 3762 3761 3758 ] final -118.33 input  -89.99 | X-H torsion
[ 2472 2467 2466 2463 ] final  128.04 input  -89.97 | X-H torsion

> <Gold.Protein.ActiveResidues>
 VAL82   VAL86   LEU89   PHE106  VAL107  ASP110  VAL111  MET112  CYS114  THR115 
 CYS181  SER182  ILE183  PHE188  VAL189  ILE190  SER192  SER193  SER196  TRP342 
 PHE345  PHE346  HIS349  VAL350  TYR365  THR369  GLY372  TYR373 

> <Gold.Protein.RotatedAtoms>
    4.8772   -9.4527    4.9206 H   0  0  0  0  0  0  0  0  0  0  0  0  # atno 1303 bound_to 1298
    2.1386   -8.5951    8.0201 H   0  0  0  0  0  0  0  0  0  0  0  0  # atno 2461 bound_to 2456
   -5.4660   -5.1219    8.2462 H   0  0  0  0  0  0  0  0  0  0  0  0  # atno 2472 bound_to 2467
    2.4098   -9.1492    5.6958 H   0  0  0  0  0  0  0  0  0  0  0  0  # atno 2515 bound_to 2510
   -2.4871  -17.9561   14.2437 H   0  0  0  0  0  0  0  0  0  0  0  0  # atno 3721 bound_to 3712
   -4.8716  -21.9607   11.5062 H   0  0  0  0  0  0  0  0  0  0  0  0  # atno 3767 bound_to 3762
    1.7363  -20.4862    9.5583 H   0  0  0  0  0  0  0  0  0  0  0  0  # atno 3841 bound_to 3832
    3.5424  -10.1092    4.2472 LP  0  0  0  0  0  0  0  0  0  0  0  0  # atno 4297 bound_to 1298
    3.9422   -8.5594    3.9236 LP  0  0  0  0  0  0  0  0  0  0  0  0  # atno 4298 bound_to 1298
    0.9758   -8.0126    7.0322 LP  0  0  0  0  0  0  0  0  0  0  0  0  # atno 4299 bound_to 2456
    0.6236   -9.2005    8.0959 LP  0  0  0  0  0  0  0  0  0  0  0  0  # atno 4300 bound_to 2456
    2.0944   -7.5488    5.6248 LP  0  0  0  0  0  0  0  0  0  0  0  0  # atno 4301 bound_to 2510
    2.7925   -8.3007    4.3544 LP  0  0  0  0  0  0  0  0  0  0  0  0  # atno 4302 bound_to 2510
   -3.4424  -16.6828   14.4538 LP  0  0  0  0  0  0  0  0  0  0  0  0  # atno 4306 bound_to 3712
   -3.2138  -17.3129   12.9647 LP  0  0  0  0  0  0  0  0  0  0  0  0  # atno 4307 bound_to 3712
    2.1453  -19.6540    8.2482 LP  0  0  0  0  0  0  0  0  0  0  0  0  # atno 4314 bound_to 3832
    3.0783  -20.8867    8.7742 LP  0  0  0  0  0  0  0  0  0  0  0  0  # atno 4315 bound_to 3832
   -3.9477  -23.1764   10.9273 LP  0  0  0  0  0  0  0  0  0  0  0  0  # atno 4318 bound_to 3762
   -5.3081  -22.7377   10.1378 LP  0  0  0  0  0  0  0  0  0  0  0  0  # atno 4319 bound_to 3762
   -3.8796   -4.8481    7.9730 LP  0  0  0  0  0  0  0  0  0  0  0  0  # atno 4320 bound_to 2467
   -4.3715   -5.4236    9.4199 LP  0  0  0  0  0  0  0  0  0  0  0  0  # atno 4321 bound_to 2467

> <Gold.Score>
     Score     S(PLP)   S(hbond)     S(cho)   S(metal)  DE(clash)   DE(tors)     intcor
     38.46     -35.70       1.96       0.00       0.00      19.82       1.66      20.02

> <Gold.PLP.Fitness>
38.4613

> <Gold.PLP.PLP>
-35.6950

> <Gold.PLP.part.hbond>
-2.0000

> <Gold.PLP.part.metal>
0.0000

> <Gold.PLP.part.buried>
-2.7191

> <Gold.PLP.part.nonpolar>
-31.3516

> <Gold.PLP.part.repulsive>
0.2010

> <Gold.PLP.ligand.clash>
19.8236

> <Gold.PLP.ligand.torsion>
1.6550

> <Gold.PLP.Chemscore.Hbond>
1.9588

> <Gold.PLP.Chemscore.CHOScore>
0.0000

> <Gold.PLP.Chemscore.Metal>
0.0000

> <Gold.Chemscore.Hbonds>
donor molecule, donor type, donor heavy atom, donor atom, acceptor molecule, acceptor atom, score
      P1  H  3712  3721       L1    18  1.00
      P1  H  3832  3841       L1     7  0.96

> <Gold.PLP.Chemscore.Internal.Correction>
20.0236

