#       Name:                EN300-1659128_i002
#       Creating user name   fsindt
#       Creation time:       Mon Feb 27 18:52:09 2023


#       File generated by GOLD software.
#

@<TRIPOS>MOLECULE
EN300-1659128_i002|acide_1|mol2|392|dock20
    39    39     1
SMALL
USER_CHARGES


@<TRIPOS>ATOM
      1 C1          -0.9218 -19.8770  18.7544 C.3            1 <1>                0.0000
      2 C2          -1.2777 -19.7945  17.2687 C.3            1 <1>                0.0000
      3 C3          -1.8539 -21.1347  16.8072 C.3            1 <1>                0.0000
      4 C4          -2.3160 -18.6917  17.0534 C.3            1 <1>                0.0000
      5 O5          -0.0832 -19.4912  16.5010 O.3            1 <1>                0.0000
      6 C6          -0.2414 -19.2857  15.1798 C.2            1 <1>                0.0000
      7 O7          -1.3008 -19.5498  14.6465 O.2            1 <1>                0.0000
      8 N8           0.7753 -18.7872  14.4489 N.am           1 <1>                0.0000
      9 C9           2.0177 -18.3463  15.0974 C.3            1 <1>                0.0000
     10 C10          2.3161 -16.9074  14.6646 C.3            1 <1>                0.0000
     11 C11          2.3446 -16.8341  13.1363 C.3            1 <1>                0.0000
     12 C12          0.9759 -17.2321  12.5792 C.3            1 <1>                0.0000
     13 C13          0.6645 -18.6798  12.9877 C.3            1 <1>                0.0000
     14 C14          1.6626 -19.6275  12.3192 C.3            1 <1>                0.0000
     15 C15          1.5422 -20.9676  12.9162 C.1            1 <1>                0.0000
     16 C16          1.4463 -22.0364  13.3924 C.1            1 <1>                0.0000
     17 C17         -0.7367 -19.0348  12.5615 C.2            1 <1>                0.0000
     18 O18         -1.0055 -20.1809  12.2439 O.co2          1 <1>                0.0000
     19 O19         -1.6017 -18.1759  12.5344 O.co2          1 <1>               -1.0000
     20 H20         -0.1821 -20.6627  18.9078 H              1 <1>                0.0000
     21 H21         -0.5113 -18.9223  19.0832 H              1 <1>                0.0000
     22 H22         -1.8185 -20.1047  19.3307 H              1 <1>                0.0000
     23 H23         -2.7507 -21.3624  17.3835 H              1 <1>                0.0000
     24 H24         -2.1075 -21.0759  15.7486 H              1 <1>                0.0000
     25 H25         -1.1142 -21.9203  16.9606 H              1 <1>                0.0000
     26 H26         -1.9055 -17.7369  17.3821 H              1 <1>                0.0000
     27 H27         -2.5696 -18.6330  15.9949 H              1 <1>                0.0000
     28 H28         -3.2128 -18.9194  17.6297 H              1 <1>                0.0000
     29 H29          1.8984 -18.3849  16.1802 H              1 <1>                0.0000
     30 H30          2.8385 -18.9965  14.7948 H              1 <1>                0.0000
     31 H31          1.5397 -16.2443  15.0462 H              1 <1>                0.0000
     32 H32          3.2840 -16.6014  15.0616 H              1 <1>                0.0000
     33 H33          2.5810 -15.8163  12.8258 H              1 <1>                0.0000
     34 H34          3.1044 -17.5159  12.7541 H              1 <1>                0.0000
     35 H35          0.2122 -16.5660  12.9804 H              1 <1>                0.0000
     36 H36          0.9899 -17.1572  11.4918 H              1 <1>                0.0000
     37 H37          1.4500 -19.6849  11.2517 H              1 <1>                0.0000
     38 H38          2.6752 -19.2528  12.4685 H              1 <1>                0.0000
     39 H39          1.3604 -22.9923  13.8183 H              1 <1>                0.0000
@<TRIPOS>BOND
    1    1    2 1     
    2    1   20 1     
    3    1   21 1     
    4    1   22 1     
    5    2    3 1     
    6    2    4 1     
    7    2    5 1     
    8    3   23 1     
    9    3   24 1     
   10    3   25 1     
   11    4   26 1     
   12    4   27 1     
   13    4   28 1     
   14    5    6 1     
   15    6    7 2     
   16    6    8 am    
   17    8    9 1     
   18    8   13 1     
   19    9   10 1     
   20    9   29 1     
   21    9   30 1     
   22   10   11 1     
   23   10   31 1     
   24   10   32 1     
   25   11   12 1     
   26   11   33 1     
   27   11   34 1     
   28   12   13 1     
   29   12   35 1     
   30   12   36 1     
   31   13   14 1     
   32   13   17 1     
   33   14   15 1     
   34   14   37 1     
   35   14   38 1     
   36   15   16 3     
   37   16   39 1     
   38   17   18 ar    
   39   17   19 ar    
@<TRIPOS>SUBSTRUCTURE
      1 ****           1
@<TRIPOS>COMMENT
> <Gold.Version>
2022.2.0

> <Gold.Id.Protein>
3pbl|protein|mol2

> <Gold.Protein.RotatedTorsions>
[ 1303 1298 1297 1294 ] final    0.76 input  179.99 | X-H torsion
[ 2461 2456 2455 2452 ] final   -4.80 input   30.03 | X-H torsion
[ 2515 2510 2509 2506 ] final   94.69 input  -89.99 | X-H torsion
[ 3721 3712 3711 3710 ] final    4.90 input -179.91 | X-H torsion
[ 3841 3832 3831 3830 ] final   91.03 input -179.91 | X-H torsion
[ 3767 3762 3761 3758 ] final   53.67 input  -89.99 | X-H torsion
[ 2472 2467 2466 2463 ] final  116.82 input  -89.97 | X-H torsion

> <Gold.Protein.ActiveResidues>
 VAL82   VAL86   LEU89   PHE106  VAL107  ASP110  VAL111  MET112  CYS114  THR115 
 CYS181  SER182  ILE183  PHE188  VAL189  ILE190  SER192  SER193  SER196  TRP342 
 PHE345  PHE346  HIS349  VAL350  TYR365  THR369  GLY372  TYR373 

> <Gold.Protein.RotatedAtoms>
    3.3901   -9.8824    4.0540 H   0  0  0  0  0  0  0  0  0  0  0  0  # atno 1303 bound_to 1298
    0.9671   -8.0159    7.0325 H   0  0  0  0  0  0  0  0  0  0  0  0  # atno 2461 bound_to 2456
   -5.3937   -5.0574    8.0894 H   0  0  0  0  0  0  0  0  0  0  0  0  # atno 2472 bound_to 2467
    2.0361   -7.7934    5.8885 H   0  0  0  0  0  0  0  0  0  0  0  0  # atno 2515 bound_to 2510
   -2.4782  -17.9826   14.1736 H   0  0  0  0  0  0  0  0  0  0  0  0  # atno 3721 bound_to 3712
   -4.6570  -23.2469   10.1501 H   0  0  0  0  0  0  0  0  0  0  0  0  # atno 3767 bound_to 3762
    2.8533  -20.9176    9.2530 H   0  0  0  0  0  0  0  0  0  0  0  0  # atno 3841 bound_to 3832
    4.2229   -8.4783    4.0872 LP  0  0  0  0  0  0  0  0  0  0  0  0  # atno 4297 bound_to 1298
    4.7494   -9.7605    4.9506 LP  0  0  0  0  0  0  0  0  0  0  0  0  # atno 4298 bound_to 1298
    0.6303   -9.2038    8.1015 LP  0  0  0  0  0  0  0  0  0  0  0  0  # atno 4299 bound_to 2456
    2.1403   -8.5883    8.0139 LP  0  0  0  0  0  0  0  0  0  0  0  0  # atno 4300 bound_to 2456
    2.6966   -7.9528    4.4039 LP  0  0  0  0  0  0  0  0  0  0  0  0  # atno 4301 bound_to 2510
    2.5641   -9.2532    5.3826 LP  0  0  0  0  0  0  0  0  0  0  0  0  # atno 4302 bound_to 2510
   -3.4129  -16.7240   14.5201 LP  0  0  0  0  0  0  0  0  0  0  0  0  # atno 4306 bound_to 3712
   -3.2537  -17.2410   12.9793 LP  0  0  0  0  0  0  0  0  0  0  0  0  # atno 4307 bound_to 3712
    1.3993  -20.2381    9.2331 LP  0  0  0  0  0  0  0  0  0  0  0  0  # atno 4314 bound_to 3832
    2.5341  -19.8042    8.1419 LP  0  0  0  0  0  0  0  0  0  0  0  0  # atno 4315 bound_to 3832
   -5.4284  -22.0169   10.8977 LP  0  0  0  0  0  0  0  0  0  0  0  0  # atno 4318 bound_to 3762
   -4.0420  -22.6115   11.5230 LP  0  0  0  0  0  0  0  0  0  0  0  0  # atno 4319 bound_to 3762
   -3.7698   -4.8874    8.1158 LP  0  0  0  0  0  0  0  0  0  0  0  0  # atno 4320 bound_to 2467
   -4.5536   -5.4487    9.4339 LP  0  0  0  0  0  0  0  0  0  0  0  0  # atno 4321 bound_to 2467

> <Gold.Score>
     Score     S(PLP)   S(hbond)     S(cho)   S(metal)  DE(clash)   DE(tors)     intcor
     40.15     -37.74       1.00       0.00       0.00      17.93       1.34      20.02

> <Gold.PLP.Fitness>
40.1500

> <Gold.PLP.PLP>
-37.7440

> <Gold.PLP.part.hbond>
-1.0682

> <Gold.PLP.part.metal>
0.0000

> <Gold.PLP.part.buried>
-0.5697

> <Gold.PLP.part.nonpolar>
-35.9688

> <Gold.PLP.part.repulsive>
0.1230

> <Gold.PLP.ligand.clash>
17.9268

> <Gold.PLP.ligand.torsion>
1.3441

> <Gold.PLP.Chemscore.Hbond>
1.0000

> <Gold.PLP.Chemscore.CHOScore>
0.0000

> <Gold.PLP.Chemscore.Metal>
0.0000

> <Gold.Chemscore.Hbonds>
donor molecule, donor type, donor heavy atom, donor atom, acceptor molecule, acceptor atom, score
      P1  H  3712  3721       L1     7  1.00

> <Gold.PLP.Chemscore.Internal.Correction>
20.0211

