#       Name:                EN300-1659128_i002
#       Creating user name   fsindt
#       Creation time:       Mon Feb 27 18:52:00 2023


#       File generated by GOLD software.
#

@<TRIPOS>MOLECULE
EN300-1659128_i002|acide_1|mol2|392|dock14
    39    39     1
SMALL
USER_CHARGES


@<TRIPOS>ATOM
      1 C1           0.2648 -17.8434  14.0860 C.3            1 <1>                0.0000
      2 C2           1.6130 -18.5634  14.0166 C.3            1 <1>                0.0000
      3 C3           2.4617 -17.9502  12.9009 C.3            1 <1>                0.0000
      4 C4           2.3415 -18.4120  15.3534 C.3            1 <1>                0.0000
      5 O5           1.3957 -19.9722  13.7406 O.3            1 <1>                0.0000
      6 C6           0.5010 -20.6158  14.5140 C.2            1 <1>                0.0000
      7 O7           0.2370 -20.1895  15.6208 O.2            1 <1>                0.0000
      8 N8          -0.1016 -21.7328  14.0606 N.am           1 <1>                0.0000
      9 C9           0.1114 -22.1910  12.6810 C.3            1 <1>                0.0000
     10 C10         -1.2518 -22.3793  12.0079 C.3            1 <1>                0.0000
     11 C11         -2.1098 -23.3198  12.8571 C.3            1 <1>                0.0000
     12 C12         -2.3346 -22.7005  14.2384 C.3            1 <1>                0.0000
     13 C13         -0.9793 -22.5188  14.9384 C.3            1 <1>                0.0000
     14 C14         -0.3536 -23.8888  15.2081 C.3            1 <1>                0.0000
     15 C15         -1.2173 -24.6507  16.1249 C.1            1 <1>                0.0000
     16 C16         -1.9061 -25.2584  16.8560 C.1            1 <1>                0.0000
     17 C17         -1.1771 -21.7856  16.2400 C.2            1 <1>                0.0000
     18 O18         -0.4588 -22.0319  17.1938 O.co2          1 <1>                0.0000
     19 O19         -2.0555 -20.9458  16.3392 O.co2          1 <1>               -1.0000
     20 H20         -0.2542 -17.9513  13.1336 H              1 <1>                0.0000
     21 H21         -0.3399 -18.2802  14.8808 H              1 <1>                0.0000
     22 H22          0.4279 -16.7858  14.2931 H              1 <1>                0.0000
     23 H23          2.6249 -16.8925  13.1081 H              1 <1>                0.0000
     24 H24          3.4223 -18.4632  12.8515 H              1 <1>                0.0000
     25 H25          1.9428 -18.0580  11.9486 H              1 <1>                0.0000
     26 H26          1.7368 -18.8489  16.1482 H              1 <1>                0.0000
     27 H27          3.3020 -18.9250  15.3040 H              1 <1>                0.0000
     28 H28          2.5047 -17.3543  15.5606 H              1 <1>                0.0000
     29 H29          0.6894 -21.4461  12.1337 H              1 <1>                0.0000
     30 H30          0.6488 -23.1392  12.6897 H              1 <1>                0.0000
     31 H31         -1.7497 -21.4138  11.9183 H              1 <1>                0.0000
     32 H32         -1.1116 -22.8102  11.0165 H              1 <1>                0.0000
     33 H33         -3.0715 -23.4751  12.3679 H              1 <1>                0.0000
     34 H34         -1.5998 -24.2769  12.9669 H              1 <1>                0.0000
     35 H35         -2.8224 -21.7320  14.1278 H              1 <1>                0.0000
     36 H36         -2.9652 -23.3601  14.8346 H              1 <1>                0.0000
     37 H37         -0.2514 -24.4327  14.2691 H              1 <1>                0.0000
     38 H38          0.6292 -23.7566  15.6605 H              1 <1>                0.0000
     39 H39         -2.5222 -25.8018  17.5100 H              1 <1>                0.0000
@<TRIPOS>BOND
    1    1    2 1     
    2    1   20 1     
    3    1   21 1     
    4    1   22 1     
    5    2    3 1     
    6    2    4 1     
    7    2    5 1     
    8    3   23 1     
    9    3   24 1     
   10    3   25 1     
   11    4   26 1     
   12    4   27 1     
   13    4   28 1     
   14    5    6 1     
   15    6    7 2     
   16    6    8 am    
   17    8    9 1     
   18    8   13 1     
   19    9   10 1     
   20    9   29 1     
   21    9   30 1     
   22   10   11 1     
   23   10   31 1     
   24   10   32 1     
   25   11   12 1     
   26   11   33 1     
   27   11   34 1     
   28   12   13 1     
   29   12   35 1     
   30   12   36 1     
   31   13   14 1     
   32   13   17 1     
   33   14   15 1     
   34   14   37 1     
   35   14   38 1     
   36   15   16 3     
   37   16   39 1     
   38   17   18 ar    
   39   17   19 ar    
@<TRIPOS>SUBSTRUCTURE
      1 ****           1
@<TRIPOS>COMMENT
> <Gold.Version>
2022.2.0

> <Gold.Id.Protein>
3pbl|protein|mol2

> <Gold.Protein.RotatedTorsions>
[ 1303 1298 1297 1294 ] final -122.72 input  179.99 | X-H torsion
[ 2461 2456 2455 2452 ] final  -67.59 input   30.03 | X-H torsion
[ 2515 2510 2509 2506 ] final   76.84 input  -89.99 | X-H torsion
[ 3721 3712 3711 3710 ] final  -29.61 input -179.91 | X-H torsion
[ 3841 3832 3831 3830 ] final   36.60 input -179.91 | X-H torsion
[ 3767 3762 3761 3758 ] final  -68.92 input  -89.99 | X-H torsion
[ 2472 2467 2466 2463 ] final  144.84 input  -89.97 | X-H torsion

> <Gold.Protein.ActiveResidues>
 VAL82   VAL86   LEU89   PHE106  VAL107  ASP110  VAL111  MET112  CYS114  THR115 
 CYS181  SER182  ILE183  PHE188  VAL189  ILE190  SER192  SER193  SER196  TRP342 
 PHE345  PHE346  HIS349  VAL350  TYR365  THR369  GLY372  TYR373 

> <Gold.Protein.RotatedAtoms>
    4.2700   -8.4757    4.1195 H   0  0  0  0  0  0  0  0  0  0  0  0  # atno 1303 bound_to 1298
    0.3428   -8.6505    7.4486 H   0  0  0  0  0  0  0  0  0  0  0  0  # atno 2461 bound_to 2456
   -5.5100   -5.2183    8.5005 H   0  0  0  0  0  0  0  0  0  0  0  0  # atno 2472 bound_to 2467
    2.0786   -7.5893    5.6834 H   0  0  0  0  0  0  0  0  0  0  0  0  # atno 2515 bound_to 2510
   -2.6010  -17.7041   14.5875 H   0  0  0  0  0  0  0  0  0  0  0  0  # atno 3721 bound_to 3712
   -5.4113  -22.0002   10.9332 H   0  0  0  0  0  0  0  0  0  0  0  0  # atno 3767 bound_to 3762
    2.1523  -20.8331    9.6114 H   0  0  0  0  0  0  0  0  0  0  0  0  # atno 3841 bound_to 3832
    4.7190   -9.8091    4.9483 LP  0  0  0  0  0  0  0  0  0  0  0  0  # atno 4297 bound_to 1298
    3.3731   -9.8369    4.0239 LP  0  0  0  0  0  0  0  0  0  0  0  0  # atno 4298 bound_to 1298
    1.5669   -9.1713    8.3961 LP  0  0  0  0  0  0  0  0  0  0  0  0  # atno 4299 bound_to 2456
    1.8278   -7.9863    7.3033 LP  0  0  0  0  0  0  0  0  0  0  0  0  # atno 4300 bound_to 2456
    2.7774   -8.2294    4.3538 LP  0  0  0  0  0  0  0  0  0  0  0  0  # atno 4301 bound_to 2510
    2.4409   -9.1807    5.6378 LP  0  0  0  0  0  0  0  0  0  0  0  0  # atno 4302 bound_to 2510
   -3.5556  -16.5563   13.9967 LP  0  0  0  0  0  0  0  0  0  0  0  0  # atno 4306 bound_to 3712
   -2.9692  -17.7304   13.0249 LP  0  0  0  0  0  0  0  0  0  0  0  0  # atno 4307 bound_to 3712
    1.6533  -19.6980    8.5923 LP  0  0  0  0  0  0  0  0  0  0  0  0  # atno 4314 bound_to 3832
    3.0898  -20.4418    8.3688 LP  0  0  0  0  0  0  0  0  0  0  0  0  # atno 4315 bound_to 3832
   -4.0226  -22.6435   11.5028 LP  0  0  0  0  0  0  0  0  0  0  0  0  # atno 4318 bound_to 3762
   -4.6938  -23.2311   10.1351 LP  0  0  0  0  0  0  0  0  0  0  0  0  # atno 4319 bound_to 3762
   -4.0918   -4.8097    7.8017 LP  0  0  0  0  0  0  0  0  0  0  0  0  # atno 4320 bound_to 2467
   -4.1153   -5.3656    9.3370 LP  0  0  0  0  0  0  0  0  0  0  0  0  # atno 4321 bound_to 2467

> <Gold.Score>
     Score     S(PLP)   S(hbond)     S(cho)   S(metal)  DE(clash)   DE(tors)     intcor
     34.35     -34.76       0.00       0.00       0.00      17.40       1.51      20.02

> <Gold.PLP.Fitness>
34.3469

> <Gold.PLP.PLP>
-34.7558

> <Gold.PLP.part.hbond>
0.0000

> <Gold.PLP.part.metal>
0.0000

> <Gold.PLP.part.buried>
-1.0741

> <Gold.PLP.part.nonpolar>
-34.4809

> <Gold.PLP.part.repulsive>
0.0869

> <Gold.PLP.ligand.clash>
17.4018

> <Gold.PLP.ligand.torsion>
1.5141

> <Gold.PLP.Chemscore.Hbond>
0.0000

> <Gold.PLP.Chemscore.CHOScore>
0.0000

> <Gold.PLP.Chemscore.Metal>
0.0000

> <Gold.PLP.Chemscore.Internal.Correction>
20.0211

