#       Name:                EN300-1659128_i002
#       Creating user name   fsindt
#       Creation time:       Mon Feb 27 18:52:04 2023


#       File generated by GOLD software.
#

@<TRIPOS>MOLECULE
EN300-1659128_i002|acide_1|mol2|392|dock17
    39    39     1
SMALL
USER_CHARGES


@<TRIPOS>ATOM
      1 C1           0.4254 -22.4412  14.1987 C.3            1 <1>                0.0000
      2 C2          -0.0830 -21.0082  14.3685 C.3            1 <1>                0.0000
      3 C3          -1.4142 -20.8487  13.6313 C.3            1 <1>                0.0000
      4 C4          -0.2849 -20.7115  15.8557 C.3            1 <1>                0.0000
      5 O5           0.8893 -20.0812  13.8176 O.3            1 <1>                0.0000
      6 C6           0.5295 -18.7855  13.7519 C.2            1 <1>                0.0000
      7 O7          -0.4219 -18.3858  14.3934 O.2            1 <1>                0.0000
      8 N8           1.2245 -17.9317  12.9743 N.am           1 <1>                0.0000
      9 C9           2.4496 -18.3692  12.2914 C.3            1 <1>                0.0000
     10 C10          3.5841 -17.4032  12.6468 C.3            1 <1>                0.0000
     11 C11          3.1545 -15.9730  12.3121 C.3            1 <1>                0.0000
     12 C12          1.9247 -15.6003  13.1431 C.3            1 <1>                0.0000
     13 C13          0.7683 -16.5475  12.7888 C.3            1 <1>                0.0000
     14 C14          0.3526 -16.3273  11.3329 C.3            1 <1>                0.0000
     15 C15         -0.0661 -14.9282  11.1484 C.1            1 <1>                0.0000
     16 C16         -0.4000 -13.8123  11.0012 C.1            1 <1>                0.0000
     17 C17         -0.4028 -16.2772  13.6979 C.2            1 <1>                0.0000
     18 O18         -0.2125 -15.9024  14.8424 O.co2          1 <1>                0.0000
     19 O19         -1.5407 -16.4332  13.2889 O.co2          1 <1>               -1.0000
     20 H20          0.5693 -22.6526  13.1392 H              1 <1>                0.0000
     21 H21          1.3738 -22.5548  14.7239 H              1 <1>                0.0000
     22 H22         -0.3045 -23.1372  14.6122 H              1 <1>                0.0000
     23 H23         -2.1442 -21.5447  14.0449 H              1 <1>                0.0000
     24 H24         -1.7765 -19.8278  13.7523 H              1 <1>                0.0000
     25 H25         -1.2704 -21.0602  12.5718 H              1 <1>                0.0000
     26 H26          0.6634 -20.8251  16.3809 H              1 <1>                0.0000
     27 H27         -0.6472 -19.6905  15.9767 H              1 <1>                0.0000
     28 H28         -1.0149 -21.4074  16.2693 H              1 <1>                0.0000
     29 H29          2.7108 -19.3757  12.6185 H              1 <1>                0.0000
     30 H30          2.2890 -18.3634  11.2134 H              1 <1>                0.0000
     31 H31          3.8047 -17.4770  13.7117 H              1 <1>                0.0000
     32 H32          4.4740 -17.6598  12.0719 H              1 <1>                0.0000
     33 H33          3.9693 -15.2860  12.5411 H              1 <1>                0.0000
     34 H34          2.9104 -15.9058  11.2519 H              1 <1>                0.0000
     35 H35          2.1608 -15.6911  14.2032 H              1 <1>                0.0000
     36 H36          1.6333 -14.5735  12.9213 H              1 <1>                0.0000
     37 H37          1.1963 -16.5435  10.6775 H              1 <1>                0.0000
     38 H38         -0.4772 -16.9903  11.0878 H              1 <1>                0.0000
     39 H39         -0.6986 -12.8143  10.8696 H              1 <1>                0.0000
@<TRIPOS>BOND
    1    1    2 1     
    2    1   20 1     
    3    1   21 1     
    4    1   22 1     
    5    2    3 1     
    6    2    4 1     
    7    2    5 1     
    8    3   23 1     
    9    3   24 1     
   10    3   25 1     
   11    4   26 1     
   12    4   27 1     
   13    4   28 1     
   14    5    6 1     
   15    6    7 2     
   16    6    8 am    
   17    8    9 1     
   18    8   13 1     
   19    9   10 1     
   20    9   29 1     
   21    9   30 1     
   22   10   11 1     
   23   10   31 1     
   24   10   32 1     
   25   11   12 1     
   26   11   33 1     
   27   11   34 1     
   28   12   13 1     
   29   12   35 1     
   30   12   36 1     
   31   13   14 1     
   32   13   17 1     
   33   14   15 1     
   34   14   37 1     
   35   14   38 1     
   36   15   16 3     
   37   16   39 1     
   38   17   18 ar    
   39   17   19 ar    
@<TRIPOS>SUBSTRUCTURE
      1 ****           1
@<TRIPOS>COMMENT
> <Gold.Version>
2022.2.0

> <Gold.Id.Protein>
3pbl|protein|mol2

> <Gold.Protein.RotatedTorsions>
[ 1303 1298 1297 1294 ] final   72.87 input  179.99 | X-H torsion
[ 2461 2456 2455 2452 ] final  -75.39 input   30.03 | X-H torsion
[ 2515 2510 2509 2506 ] final -111.23 input  -89.99 | X-H torsion
[ 3721 3712 3711 3710 ] final    5.75 input -179.91 | X-H torsion
[ 3841 3832 3831 3830 ] final  -94.97 input -179.91 | X-H torsion
[ 3767 3762 3761 3758 ] final -178.40 input  -89.99 | X-H torsion
[ 2472 2467 2466 2463 ] final   41.43 input  -89.97 | X-H torsion

> <Gold.Protein.ActiveResidues>
 VAL82   VAL86   LEU89   PHE106  VAL107  ASP110  VAL111  MET112  CYS114  THR115 
 CYS181  SER182  ILE183  PHE188  VAL189  ILE190  SER192  SER193  SER196  TRP342 
 PHE345  PHE346  HIS349  VAL350  TYR365  THR369  GLY372  TYR373 

> <Gold.Protein.RotatedAtoms>
    4.1853  -10.2343    4.7431 H   0  0  0  0  0  0  0  0  0  0  0  0  # atno 1303 bound_to 1298
    0.3307   -8.7429    7.5367 H   0  0  0  0  0  0  0  0  0  0  0  0  # atno 2461 bound_to 2456
   -4.3416   -4.7993    7.6946 H   0  0  0  0  0  0  0  0  0  0  0  0  # atno 2472 bound_to 2467
    2.7553   -9.1464    4.8754 H   0  0  0  0  0  0  0  0  0  0  0  0  # atno 2515 bound_to 2510
   -2.4769  -17.9866   14.1614 H   0  0  0  0  0  0  0  0  0  0  0  0  # atno 3721 bound_to 3712
   -4.1092  -22.5130   11.5759 H   0  0  0  0  0  0  0  0  0  0  0  0  # atno 3767 bound_to 3762
    1.9069  -19.5987    8.6580 H   0  0  0  0  0  0  0  0  0  0  0  0  # atno 3841 bound_to 3832
    3.4055   -9.1657    3.7859 LP  0  0  0  0  0  0  0  0  0  0  0  0  # atno 4297 bound_to 1298
    4.7714   -8.7210    4.5625 LP  0  0  0  0  0  0  0  0  0  0  0  0  # atno 4298 bound_to 1298
    1.6802   -9.1141    8.3784 LP  0  0  0  0  0  0  0  0  0  0  0  0  # atno 4299 bound_to 2456
    1.7265   -7.9512    7.2329 LP  0  0  0  0  0  0  0  0  0  0  0  0  # atno 4300 bound_to 2456
    2.0610   -8.3066    6.0914 LP  0  0  0  0  0  0  0  0  0  0  0  0  # atno 4301 bound_to 2510
    2.4803   -7.5457    4.7087 LP  0  0  0  0  0  0  0  0  0  0  0  0  # atno 4302 bound_to 2510
   -3.4076  -16.7316   14.5310 LP  0  0  0  0  0  0  0  0  0  0  0  0  # atno 4306 bound_to 3712
   -3.2604  -17.2288   12.9825 LP  0  0  0  0  0  0  0  0  0  0  0  0  # atno 4307 bound_to 3712
    3.1274  -20.6311    8.5150 LP  0  0  0  0  0  0  0  0  0  0  0  0  # atno 4314 bound_to 3832
    1.8992  -20.9347    9.5474 LP  0  0  0  0  0  0  0  0  0  0  0  0  # atno 4315 bound_to 3832
   -4.5474  -23.2887   10.2073 LP  0  0  0  0  0  0  0  0  0  0  0  0  # atno 4318 bound_to 3762
   -5.4705  -22.0733   10.7881 LP  0  0  0  0  0  0  0  0  0  0  0  0  # atno 4319 bound_to 3762
   -3.9004   -5.2885    9.1888 LP  0  0  0  0  0  0  0  0  0  0  0  0  # atno 4320 bound_to 2467
   -5.4748   -5.3056    8.7556 LP  0  0  0  0  0  0  0  0  0  0  0  0  # atno 4321 bound_to 2467

> <Gold.Score>
     Score     S(PLP)   S(hbond)     S(cho)   S(metal)  DE(clash)   DE(tors)     intcor
     35.64     -29.78       1.99       0.00       0.00      17.40       1.37      20.02

> <Gold.PLP.Fitness>
35.6391

> <Gold.PLP.PLP>
-29.7801

> <Gold.PLP.part.hbond>
-1.1391

> <Gold.PLP.part.metal>
0.0000

> <Gold.PLP.part.buried>
5.1129

> <Gold.PLP.part.nonpolar>
-34.7470

> <Gold.PLP.part.repulsive>
0.6178

> <Gold.PLP.ligand.clash>
17.4018

> <Gold.PLP.ligand.torsion>
1.3670

> <Gold.PLP.Chemscore.Hbond>
1.9913

> <Gold.PLP.Chemscore.CHOScore>
0.0000

> <Gold.PLP.Chemscore.Metal>
0.0000

> <Gold.Chemscore.Hbonds>
donor molecule, donor type, donor heavy atom, donor atom, acceptor molecule, acceptor atom, score
      P1  H  2305  2313       L1    18  1.00
      P1  H  3712  3721       L1     7  0.99

> <Gold.PLP.Chemscore.Internal.Correction>
20.0211

