#       Name:                EN300-1659128_i002
#       Creating user name   fsindt
#       Creation time:       Mon Feb 27 18:51:45 2023


#       File generated by GOLD software.
#

@<TRIPOS>MOLECULE
EN300-1659128_i002|acide_1|mol2|392|dock3
    39    39     1
SMALL
USER_CHARGES


@<TRIPOS>ATOM
      1 C1           0.6941 -16.7515  14.4009 C.3            1 <1>                0.0000
      2 C2           1.0224 -17.6660  13.2191 C.3            1 <1>                0.0000
      3 C3           0.2008 -17.2398  12.0008 C.3            1 <1>                0.0000
      4 C4           2.5131 -17.5604  12.8912 C.3            1 <1>                0.0000
      5 O5           0.6989 -19.0386  13.5648 O.3            1 <1>                0.0000
      6 C6           0.7923 -19.9546  12.5825 C.2            1 <1>                0.0000
      7 O7           1.3841 -19.6863  11.5558 O.2            1 <1>                0.0000
      8 N8           0.2291 -21.1692  12.7380 N.am           1 <1>                0.0000
      9 C9           0.2133 -22.1344  11.6304 C.3            1 <1>                0.0000
     10 C10         -1.2290 -22.5960  11.3993 C.3            1 <1>                0.0000
     11 C11         -1.8043 -23.1351  12.7109 C.3            1 <1>                0.0000
     12 C12         -1.8159 -22.0216  13.7606 C.3            1 <1>                0.0000
     13 C13         -0.3754 -21.5555  14.0203 C.3            1 <1>                0.0000
     14 C14          0.4267 -22.6955  14.6512 C.3            1 <1>                0.0000
     15 C15         -0.2428 -23.1431  15.8835 C.1            1 <1>                0.0000
     16 C16         -0.7767 -23.5000  16.8662 C.1            1 <1>                0.0000
     17 C17         -0.3880 -20.3686  14.9488 C.2            1 <1>                0.0000
     18 O18          0.5124 -20.2170  15.7568 O.co2          1 <1>                0.0000
     19 O19         -1.2986 -19.5598  14.8920 O.co2          1 <1>               -1.0000
     20 H20         -0.3679 -16.8267  14.6345 H              1 <1>                0.0000
     21 H21          1.2794 -17.0551  15.2689 H              1 <1>                0.0000
     22 H22          0.9369 -15.7210  14.1414 H              1 <1>                0.0000
     23 H23          0.4437 -16.2093  11.7412 H              1 <1>                0.0000
     24 H24          0.4348 -17.8914  11.1588 H              1 <1>                0.0000
     25 H25         -0.8611 -17.3149  12.2344 H              1 <1>                0.0000
     26 H26          3.0984 -17.8641  13.7592 H              1 <1>                0.0000
     27 H27          2.7470 -18.2120  12.0492 H              1 <1>                0.0000
     28 H28          2.7560 -16.5300  12.6317 H              1 <1>                0.0000
     29 H29          0.5942 -21.6594  10.7263 H              1 <1>                0.0000
     30 H30          0.8354 -22.9926  11.8846 H              1 <1>                0.0000
     31 H31         -1.8302 -21.7536  11.0573 H              1 <1>                0.0000
     32 H32         -1.2427 -23.3832  10.6453 H              1 <1>                0.0000
     33 H33         -2.8223 -23.4871  12.5436 H              1 <1>                0.0000
     34 H34         -1.1881 -23.9616  13.0652 H              1 <1>                0.0000
     35 H35         -2.4117 -21.1846  13.3965 H              1 <1>                0.0000
     36 H36         -2.2473 -22.3998  14.6875 H              1 <1>                0.0000
     37 H37          0.4899 -23.5271  13.9494 H              1 <1>                0.0000
     38 H38          1.4306 -22.3445  14.8901 H              1 <1>                0.0000
     39 H39         -1.2542 -23.8192  17.7451 H              1 <1>                0.0000
@<TRIPOS>BOND
    1    1    2 1     
    2    1   20 1     
    3    1   21 1     
    4    1   22 1     
    5    2    3 1     
    6    2    4 1     
    7    2    5 1     
    8    3   23 1     
    9    3   24 1     
   10    3   25 1     
   11    4   26 1     
   12    4   27 1     
   13    4   28 1     
   14    5    6 1     
   15    6    7 2     
   16    6    8 am    
   17    8    9 1     
   18    8   13 1     
   19    9   10 1     
   20    9   29 1     
   21    9   30 1     
   22   10   11 1     
   23   10   31 1     
   24   10   32 1     
   25   11   12 1     
   26   11   33 1     
   27   11   34 1     
   28   12   13 1     
   29   12   35 1     
   30   12   36 1     
   31   13   14 1     
   32   13   17 1     
   33   14   15 1     
   34   14   37 1     
   35   14   38 1     
   36   15   16 3     
   37   16   39 1     
   38   17   18 ar    
   39   17   19 ar    
@<TRIPOS>SUBSTRUCTURE
      1 ****           1
@<TRIPOS>COMMENT
> <Gold.Version>
2022.2.0

> <Gold.Id.Protein>
3pbl|protein|mol2

> <Gold.Protein.RotatedTorsions>
[ 1303 1298 1297 1294 ] final  -26.07 input  179.99 | X-H torsion
[ 2461 2456 2455 2452 ] final -176.08 input   30.03 | X-H torsion
[ 2515 2510 2509 2506 ] final   23.61 input  -89.99 | X-H torsion
[ 3721 3712 3711 3710 ] final    2.85 input -179.91 | X-H torsion
[ 3841 3832 3831 3830 ] final   -5.24 input -179.91 | X-H torsion
[ 3767 3762 3761 3758 ] final  146.73 input  -89.99 | X-H torsion
[ 2472 2467 2466 2463 ] final -112.08 input  -89.97 | X-H torsion

> <Gold.Protein.ActiveResidues>
 VAL82   VAL86   LEU89   PHE106  VAL107  ASP110  VAL111  MET112  CYS114  THR115 
 CYS181  SER182  ILE183  PHE188  VAL189  ILE190  SER192  SER193  SER196  TRP342 
 PHE345  PHE346  HIS349  VAL350  TYR365  THR369  GLY372  TYR373 

> <Gold.Protein.RotatedAtoms>
    3.3316   -9.4935    3.8624 H   0  0  0  0  0  0  0  0  0  0  0  0  # atno 1303 bound_to 1298
    1.3893   -9.2366    8.3994 H   0  0  0  0  0  0  0  0  0  0  0  0  # atno 2461 bound_to 2456
   -4.3732   -5.4246    9.4199 H   0  0  0  0  0  0  0  0  0  0  0  0  # atno 2472 bound_to 2467
    2.3761   -7.4480    4.9060 H   0  0  0  0  0  0  0  0  0  0  0  0  # atno 2515 bound_to 2510
   -2.4814  -17.9724   14.2026 H   0  0  0  0  0  0  0  0  0  0  0  0  # atno 3721 bound_to 3712
   -3.9122  -22.9343   11.2550 H   0  0  0  0  0  0  0  0  0  0  0  0  # atno 3767 bound_to 3762
    1.6941  -20.4262    9.5307 H   0  0  0  0  0  0  0  0  0  0  0  0  # atno 3841 bound_to 3832
    4.5662   -8.5429    4.3508 LP  0  0  0  0  0  0  0  0  0  0  0  0  # atno 4297 bound_to 1298
    4.4647  -10.0849    4.8786 LP  0  0  0  0  0  0  0  0  0  0  0  0  # atno 4298 bound_to 1298
    1.9572   -8.0588    7.4209 LP  0  0  0  0  0  0  0  0  0  0  0  0  # atno 4299 bound_to 2456
    0.3914   -8.5130    7.3281 LP  0  0  0  0  0  0  0  0  0  0  0  0  # atno 4300 bound_to 2456
    2.8065   -9.0071    4.6823 LP  0  0  0  0  0  0  0  0  0  0  0  0  # atno 4301 bound_to 2510
    2.1141   -8.5445    6.0871 LP  0  0  0  0  0  0  0  0  0  0  0  0  # atno 4302 bound_to 2510
   -3.4253  -16.7066   14.4935 LP  0  0  0  0  0  0  0  0  0  0  0  0  # atno 4306 bound_to 3712
   -3.2375  -17.2703   12.9725 LP  0  0  0  0  0  0  0  0  0  0  0  0  # atno 4307 bound_to 3712
    2.2237  -19.6726    8.2163 LP  0  0  0  0  0  0  0  0  0  0  0  0  # atno 4314 bound_to 3832
    3.0487  -20.9374    8.8379 LP  0  0  0  0  0  0  0  0  0  0  0  0  # atno 4315 bound_to 3832
   -5.0256  -23.0243   10.0638 LP  0  0  0  0  0  0  0  0  0  0  0  0  # atno 4318 bound_to 3762
   -5.1893  -21.9165   11.2524 LP  0  0  0  0  0  0  0  0  0  0  0  0  # atno 4319 bound_to 3762
   -5.4655   -5.1205    8.2449 LP  0  0  0  0  0  0  0  0  0  0  0  0  # atno 4320 bound_to 2467
   -3.8782   -4.8484    7.9745 LP  0  0  0  0  0  0  0  0  0  0  0  0  # atno 4321 bound_to 2467

> <Gold.Score>
     Score     S(PLP)   S(hbond)     S(cho)   S(metal)  DE(clash)   DE(tors)     intcor
     41.05     -37.90       1.81       0.00       0.00      19.82       1.31      20.15

> <Gold.PLP.Fitness>
41.0496

> <Gold.PLP.PLP>
-37.8986

> <Gold.PLP.part.hbond>
-1.8918

> <Gold.PLP.part.metal>
0.0000

> <Gold.PLP.part.buried>
-3.6085

> <Gold.PLP.part.nonpolar>
-32.6660

> <Gold.PLP.part.repulsive>
0.2202

> <Gold.PLP.ligand.clash>
19.8190

> <Gold.PLP.ligand.torsion>
1.3068

> <Gold.PLP.Chemscore.Hbond>
1.8125

> <Gold.PLP.Chemscore.CHOScore>
0.0000

> <Gold.PLP.Chemscore.Metal>
0.0000

> <Gold.Chemscore.Hbonds>
donor molecule, donor type, donor heavy atom, donor atom, acceptor molecule, acceptor atom, score
      P1  H  3712  3721       L1    19  1.00
      P1  H  3832  3841       L1     7  0.81

> <Gold.PLP.Chemscore.Internal.Correction>
20.1460

