#       Name:                EN300-1659128_i002
#       Creating user name   fsindt
#       Creation time:       Mon Feb 27 18:51:49 2023


#       File generated by GOLD software.
#

@<TRIPOS>MOLECULE
EN300-1659128_i002|acide_1|mol2|392|dock6
    39    39     1
SMALL
USER_CHARGES


@<TRIPOS>ATOM
      1 C1           0.4991 -14.6994   8.5514 C.3            1 <1>                0.0000
      2 C2           0.4418 -14.7680  10.0787 C.3            1 <1>                0.0000
      3 C3           1.8516 -14.6024  10.6499 C.3            1 <1>                0.0000
      4 C4          -0.4569 -13.6478  10.6062 C.3            1 <1>                0.0000
      5 O5          -0.0973 -16.0533  10.4857 O.3            1 <1>                0.0000
      6 C6          -0.0273 -16.3587  11.7951 C.2            1 <1>                0.0000
      7 O7          -0.0626 -15.4745  12.6278 O.2            1 <1>                0.0000
      8 N8           0.0821 -17.6450  12.1821 N.am           1 <1>                0.0000
      9 C9           0.0005 -18.7325  11.1976 C.3            1 <1>                0.0000
     10 C10         -1.0734 -19.7272  11.6495 C.3            1 <1>                0.0000
     11 C11         -0.7655 -20.1916  13.0748 C.3            1 <1>                0.0000
     12 C12         -0.7915 -18.9895  14.0216 C.3            1 <1>                0.0000
     13 C13          0.2911 -17.9862  13.5958 C.3            1 <1>                0.0000
     14 C14          1.6739 -18.6146  13.7805 C.3            1 <1>                0.0000
     15 C15          2.6871 -17.7726  13.1237 C.1            1 <1>                0.0000
     16 C16          3.4951 -17.1011  12.5998 C.1            1 <1>                0.0000
     17 C17          0.1833 -16.7398  14.4359 C.2            1 <1>                0.0000
     18 O18         -0.9045 -16.3743  14.8478 O.co2          1 <1>                0.0000
     19 O19          1.1839 -16.0968  14.7038 O.co2          1 <1>               -1.0000
     20 H20          1.1394 -15.4975   8.1757 H              1 <1>                0.0000
     21 H21         -0.5052 -14.8174   8.1445 H              1 <1>                0.0000
     22 H22          0.9040 -13.7346   8.2459 H              1 <1>                0.0000
     23 H23          2.2563 -13.6375  10.3445 H              1 <1>                0.0000
     24 H24          1.8107 -14.6513  11.7381 H              1 <1>                0.0000
     25 H25          2.4918 -15.4004  10.2742 H              1 <1>                0.0000
     26 H26         -1.4613 -13.7658  10.1993 H              1 <1>                0.0000
     27 H27         -0.4978 -13.6966  11.6944 H              1 <1>                0.0000
     28 H28         -0.0521 -12.6829  10.3008 H              1 <1>                0.0000
     29 H29         -0.2669 -18.3239  10.2230 H              1 <1>                0.0000
     30 H30          0.9634 -19.2391  11.1320 H              1 <1>                0.0000
     31 H31         -2.0498 -19.2434  11.6273 H              1 <1>                0.0000
     32 H32         -1.0777 -20.5872  10.9796 H              1 <1>                0.0000
     33 H33         -1.5145 -20.9182  13.3898 H              1 <1>                0.0000
     34 H34          0.2216 -20.6532  13.1011 H              1 <1>                0.0000
     35 H35         -1.7706 -18.5127  13.9772 H              1 <1>                0.0000
     36 H36         -0.5952 -19.3244  15.0401 H              1 <1>                0.0000
     37 H37          1.8991 -18.6910  14.8442 H              1 <1>                0.0000
     38 H38          1.6835 -19.6092  13.3346 H              1 <1>                0.0000
     39 H39          4.2178 -16.5005  12.1314 H              1 <1>                0.0000
@<TRIPOS>BOND
    1    1    2 1     
    2    1   20 1     
    3    1   21 1     
    4    1   22 1     
    5    2    3 1     
    6    2    4 1     
    7    2    5 1     
    8    3   23 1     
    9    3   24 1     
   10    3   25 1     
   11    4   26 1     
   12    4   27 1     
   13    4   28 1     
   14    5    6 1     
   15    6    7 2     
   16    6    8 am    
   17    8    9 1     
   18    8   13 1     
   19    9   10 1     
   20    9   29 1     
   21    9   30 1     
   22   10   11 1     
   23   10   31 1     
   24   10   32 1     
   25   11   12 1     
   26   11   33 1     
   27   11   34 1     
   28   12   13 1     
   29   12   35 1     
   30   12   36 1     
   31   13   14 1     
   32   13   17 1     
   33   14   15 1     
   34   14   37 1     
   35   14   38 1     
   36   15   16 3     
   37   16   39 1     
   38   17   18 ar    
   39   17   19 ar    
@<TRIPOS>SUBSTRUCTURE
      1 ****           1
@<TRIPOS>COMMENT
> <Gold.Version>
2022.2.0

> <Gold.Id.Protein>
3pbl|protein|mol2

> <Gold.Protein.RotatedTorsions>
[ 1303 1298 1297 1294 ] final   41.40 input  179.99 | X-H torsion
[ 2461 2456 2455 2452 ] final -146.81 input   30.03 | X-H torsion
[ 2515 2510 2509 2506 ] final  173.49 input  -89.99 | X-H torsion
[ 3721 3712 3711 3710 ] final  -57.93 input -179.91 | X-H torsion
[ 3841 3832 3831 3830 ] final  -15.43 input -179.91 | X-H torsion
[ 3767 3762 3761 3758 ] final -174.67 input  -89.99 | X-H torsion
[ 2472 2467 2466 2463 ] final -103.29 input  -89.97 | X-H torsion

> <Gold.Protein.ActiveResidues>
 VAL82   VAL86   LEU89   PHE106  VAL107  ASP110  VAL111  MET112  CYS114  THR115 
 CYS181  SER182  ILE183  PHE188  VAL189  ILE190  SER192  SER193  SER196  TRP342 
 PHE345  PHE346  HIS349  VAL350  TYR365  THR369  GLY372  TYR373 

> <Gold.Protein.RotatedAtoms>
    3.7642  -10.2418    4.4534 H   0  0  0  0  0  0  0  0  0  0  0  0  # atno 1303 bound_to 1298
    0.9289   -9.2840    8.2860 H   0  0  0  0  0  0  0  0  0  0  0  0  # atno 2461 bound_to 2456
   -4.2356   -5.3972    9.3859 H   0  0  0  0  0  0  0  0  0  0  0  0  # atno 2472 bound_to 2467
    2.2804   -8.9645    5.9081 H   0  0  0  0  0  0  0  0  0  0  0  0  # atno 2515 bound_to 2510
   -2.7849  -17.3580   14.7491 H   0  0  0  0  0  0  0  0  0  0  0  0  # atno 3721 bound_to 3712
   -4.1451  -22.4677   11.5962 H   0  0  0  0  0  0  0  0  0  0  0  0  # atno 3767 bound_to 3762
    1.6270  -20.3050    9.4638 H   0  0  0  0  0  0  0  0  0  0  0  0  # atno 3841 bound_to 3832
    3.6872   -8.7402    3.8165 LP  0  0  0  0  0  0  0  0  0  0  0  0  # atno 4297 bound_to 1298
    4.9109   -9.1391    4.8216 LP  0  0  0  0  0  0  0  0  0  0  0  0  # atno 4298 bound_to 1298
    2.1480   -8.3324    7.7609 LP  0  0  0  0  0  0  0  0  0  0  0  0  # atno 4299 bound_to 2456
    0.6607   -8.1920    7.1015 LP  0  0  0  0  0  0  0  0  0  0  0  0  # atno 4300 bound_to 2456
    2.1843   -7.4323    5.3522 LP  0  0  0  0  0  0  0  0  0  0  0  0  # atno 4301 bound_to 2510
    2.8321   -8.6021    4.4147 LP  0  0  0  0  0  0  0  0  0  0  0  0  # atno 4302 bound_to 2510
   -3.5500  -16.6376   13.5352 LP  0  0  0  0  0  0  0  0  0  0  0  0  # atno 4306 bound_to 3712
   -2.7625  -18.0486   13.2998 LP  0  0  0  0  0  0  0  0  0  0  0  0  # atno 4307 bound_to 3712
    2.3780  -19.7262    8.1688 LP  0  0  0  0  0  0  0  0  0  0  0  0  # atno 4314 bound_to 3832
    2.9719  -21.0237    8.9628 LP  0  0  0  0  0  0  0  0  0  0  0  0  # atno 4315 bound_to 3832
   -4.4968  -23.3038   10.2382 LP  0  0  0  0  0  0  0  0  0  0  0  0  # atno 4318 bound_to 3762
   -5.4853  -22.1035   10.7369 LP  0  0  0  0  0  0  0  0  0  0  0  0  # atno 4319 bound_to 3762
   -5.4986   -5.1714    8.3759 LP  0  0  0  0  0  0  0  0  0  0  0  0  # atno 4320 bound_to 2467
   -3.9826   -4.8250    7.8776 LP  0  0  0  0  0  0  0  0  0  0  0  0  # atno 4321 bound_to 2467

> <Gold.Score>
     Score     S(PLP)   S(hbond)     S(cho)   S(metal)  DE(clash)   DE(tors)     intcor
     39.53     -35.58       1.51       0.00       0.00      17.40       1.67      20.15

> <Gold.PLP.Fitness>
39.5321

> <Gold.PLP.PLP>
-35.5815

> <Gold.PLP.part.hbond>
-2.0000

> <Gold.PLP.part.metal>
0.0000

> <Gold.PLP.part.buried>
2.1769

> <Gold.PLP.part.nonpolar>
-36.3088

> <Gold.PLP.part.repulsive>
0.3033

> <Gold.PLP.ligand.clash>
17.4018

> <Gold.PLP.ligand.torsion>
1.6658

> <Gold.PLP.Chemscore.Hbond>
1.5127

> <Gold.PLP.Chemscore.CHOScore>
0.0000

> <Gold.PLP.Chemscore.Metal>
0.0000

> <Gold.Chemscore.Hbonds>
donor molecule, donor type, donor heavy atom, donor atom, acceptor molecule, acceptor atom, score
      P1  H  2305  2313       L1    19  1.00
      P1  H  3712  3721       L1    18  0.51

> <Gold.PLP.Chemscore.Internal.Correction>
20.1460

