#       Name:                EN300-1659128_i002
#       Creating user name   fsindt
#       Creation time:       Mon Feb 27 18:51:51 2023


#       File generated by GOLD software.
#

@<TRIPOS>MOLECULE
EN300-1659128_i002|acide_1|mol2|392|dock8
    39    39     1
SMALL
USER_CHARGES


@<TRIPOS>ATOM
      1 C1           1.8818 -15.8991  12.8224 C.3            1 <1>                0.0000
      2 C2           0.5912 -15.6616  12.0358 C.3            1 <1>                0.0000
      3 C3          -0.4140 -14.9180  12.9177 C.3            1 <1>                0.0000
      4 C4           0.8979 -14.8231  10.7935 C.3            1 <1>                0.0000
      5 O5           0.0289 -16.9378  11.6317 O.3            1 <1>                0.0000
      6 C6          -0.0558 -17.8948  12.5750 C.2            1 <1>                0.0000
      7 O7          -0.2077 -17.5870  13.7406 O.2            1 <1>                0.0000
      8 N8           0.0279 -19.1940  12.2264 N.am           1 <1>                0.0000
      9 C9           0.0858 -19.5873  10.8119 C.3            1 <1>                0.0000
     10 C10         -1.0177 -20.6146  10.5403 C.3            1 <1>                0.0000
     11 C11         -0.8777 -21.7795  11.5228 C.3            1 <1>                0.0000
     12 C12         -1.0398 -21.2638  12.9545 C.3            1 <1>                0.0000
     13 C13          0.0690 -20.2436  13.2537 C.3            1 <1>                0.0000
     14 C14          1.4297 -20.9428  13.2290 C.3            1 <1>                0.0000
     15 C15          1.3374 -22.2216  13.9522 C.1            1 <1>                0.0000
     16 C16          1.2638 -23.2415  14.5290 C.1            1 <1>                0.0000
     17 C17         -0.1621 -19.6295  14.6104 C.2            1 <1>                0.0000
     18 O18         -1.2988 -19.4575  15.0162 O.co2          1 <1>                0.0000
     19 O19          0.7879 -19.3048  15.3023 O.co2          1 <1>               -1.0000
     20 H20          1.6632 -16.4966  13.7074 H              1 <1>                0.0000
     21 H21          2.5979 -16.4289  12.1941 H              1 <1>                0.0000
     22 H22          2.3039 -14.9411  13.1259 H              1 <1>                0.0000
     23 H23          0.0081 -13.9598  13.2211 H              1 <1>                0.0000
     24 H24         -1.3335 -14.7487  12.3573 H              1 <1>                0.0000
     25 H25         -0.6325 -15.5153  13.8028 H              1 <1>                0.0000
     26 H26          1.6140 -15.3529  10.1652 H              1 <1>                0.0000
     27 H27         -0.0216 -14.6539  10.2331 H              1 <1>                0.0000
     28 H28          1.3200 -13.8649  11.0969 H              1 <1>                0.0000
     29 H29         -0.0679 -18.7108  10.1823 H              1 <1>                0.0000
     30 H30          1.0581 -20.0295  10.5951 H              1 <1>                0.0000
     31 H31         -1.9924 -20.1444  10.6699 H              1 <1>                0.0000
     32 H32         -0.9254 -20.9863   9.5197 H              1 <1>                0.0000
     33 H33         -1.6468 -22.5238  11.3156 H              1 <1>                0.0000
     34 H34          0.1067 -22.2337  11.4097 H              1 <1>                0.0000
     35 H35         -2.0143 -20.7875  13.0614 H              1 <1>                0.0000
     36 H36         -0.9633 -22.0976  13.6524 H              1 <1>                0.0000
     37 H37          1.7233 -21.1299  12.1961 H              1 <1>                0.0000
     38 H38          2.1737 -20.3069  13.7088 H              1 <1>                0.0000
     39 H39          1.1978 -24.1536  15.0449 H              1 <1>                0.0000
@<TRIPOS>BOND
    1    1    2 1     
    2    1   20 1     
    3    1   21 1     
    4    1   22 1     
    5    2    3 1     
    6    2    4 1     
    7    2    5 1     
    8    3   23 1     
    9    3   24 1     
   10    3   25 1     
   11    4   26 1     
   12    4   27 1     
   13    4   28 1     
   14    5    6 1     
   15    6    7 2     
   16    6    8 am    
   17    8    9 1     
   18    8   13 1     
   19    9   10 1     
   20    9   29 1     
   21    9   30 1     
   22   10   11 1     
   23   10   31 1     
   24   10   32 1     
   25   11   12 1     
   26   11   33 1     
   27   11   34 1     
   28   12   13 1     
   29   12   35 1     
   30   12   36 1     
   31   13   14 1     
   32   13   17 1     
   33   14   15 1     
   34   14   37 1     
   35   14   38 1     
   36   15   16 3     
   37   16   39 1     
   38   17   18 ar    
   39   17   19 ar    
@<TRIPOS>SUBSTRUCTURE
      1 ****           1
@<TRIPOS>COMMENT
> <Gold.Version>
2022.2.0

> <Gold.Id.Protein>
3pbl|protein|mol2

> <Gold.Protein.RotatedTorsions>
[ 1303 1298 1297 1294 ] final  106.05 input  179.99 | X-H torsion
[ 2461 2456 2455 2452 ] final  -18.60 input   30.03 | X-H torsion
[ 2515 2510 2509 2506 ] final   71.28 input  -89.99 | X-H torsion
[ 3721 3712 3711 3710 ] final    3.99 input -179.91 | X-H torsion
[ 3841 3832 3831 3830 ] final  -24.36 input -179.91 | X-H torsion
[ 3767 3762 3761 3758 ] final   95.38 input  -89.99 | X-H torsion
[ 2472 2467 2466 2463 ] final  -85.64 input  -89.97 | X-H torsion

> <Gold.Protein.ActiveResidues>
 VAL82   VAL86   LEU89   PHE106  VAL107  ASP110  VAL111  MET112  CYS114  THR115 
 CYS181  SER182  ILE183  PHE188  VAL189  ILE190  SER192  SER193  SER196  TRP342 
 PHE345  PHE346  HIS349  VAL350  TYR365  THR369  GLY372  TYR373 

> <Gold.Protein.RotatedAtoms>
    4.6062   -9.9535    4.9266 H   0  0  0  0  0  0  0  0  0  0  0  0  # atno 1303 bound_to 1298
    0.7671   -8.1176    7.0643 H   0  0  0  0  0  0  0  0  0  0  0  0  # atno 2461 bound_to 2456
   -3.9861   -5.3241    9.2591 H   0  0  0  0  0  0  0  0  0  0  0  0  # atno 2472 bound_to 2467
    2.0991   -7.5397    5.6096 H   0  0  0  0  0  0  0  0  0  0  0  0  # atno 2515 bound_to 2510
   -2.4795  -17.9782   14.1865 H   0  0  0  0  0  0  0  0  0  0  0  0  # atno 3721 bound_to 3712
   -4.1375  -23.3177   10.5695 H   0  0  0  0  0  0  0  0  0  0  0  0  # atno 3767 bound_to 3762
    1.5869  -20.1978    9.3926 H   0  0  0  0  0  0  0  0  0  0  0  0  # atno 3841 bound_to 3832
    3.3370   -9.6779    3.9370 LP  0  0  0  0  0  0  0  0  0  0  0  0  # atno 4297 bound_to 1298
    4.4188   -8.4897    4.2277 LP  0  0  0  0  0  0  0  0  0  0  0  0  # atno 4298 bound_to 1298
    0.8096   -9.2652    8.2256 LP  0  0  0  0  0  0  0  0  0  0  0  0  # atno 4299 bound_to 2456
    2.1609   -8.4252    7.8581 LP  0  0  0  0  0  0  0  0  0  0  0  0  # atno 4300 bound_to 2456
    2.7960   -8.3188    4.3554 LP  0  0  0  0  0  0  0  0  0  0  0  0  # atno 4301 bound_to 2510
    2.4018   -9.1410    5.7101 LP  0  0  0  0  0  0  0  0  0  0  0  0  # atno 4302 bound_to 2510
   -3.4185  -16.7162   14.5084 LP  0  0  0  0  0  0  0  0  0  0  0  0  # atno 4306 bound_to 3712
   -3.2465  -17.2540   12.9761 LP  0  0  0  0  0  0  0  0  0  0  0  0  # atno 4307 bound_to 3712
    2.5102  -19.7906    8.1446 LP  0  0  0  0  0  0  0  0  0  0  0  0  # atno 4314 bound_to 3832
    2.8860  -21.0831    9.0692 LP  0  0  0  0  0  0  0  0  0  0  0  0  # atno 4315 bound_to 3832
   -5.4825  -22.4154   10.3603 LP  0  0  0  0  0  0  0  0  0  0  0  0  # atno 4318 bound_to 3762
   -4.5072  -22.1423   11.6412 LP  0  0  0  0  0  0  0  0  0  0  0  0  # atno 4319 bound_to 3762
   -5.4993   -5.2695    8.6480 LP  0  0  0  0  0  0  0  0  0  0  0  0  # atno 4320 bound_to 2467
   -4.2314   -4.8000    7.7322 LP  0  0  0  0  0  0  0  0  0  0  0  0  # atno 4321 bound_to 2467

> <Gold.Score>
     Score     S(PLP)   S(hbond)     S(cho)   S(metal)  DE(clash)   DE(tors)     intcor
     38.12     -36.03       1.00       0.00       0.00      17.40       1.78      20.05

> <Gold.PLP.Fitness>
38.1209

> <Gold.PLP.PLP>
-36.0332

> <Gold.PLP.part.hbond>
-1.8809

> <Gold.PLP.part.metal>
0.0000

> <Gold.PLP.part.buried>
-3.4985

> <Gold.PLP.part.nonpolar>
-31.1349

> <Gold.PLP.part.repulsive>
0.1735

> <Gold.PLP.ligand.clash>
17.4018

> <Gold.PLP.ligand.torsion>
1.7827

> <Gold.PLP.Chemscore.Hbond>
1.0000

> <Gold.PLP.Chemscore.CHOScore>
0.0000

> <Gold.PLP.Chemscore.Metal>
0.0000

> <Gold.Chemscore.Hbonds>
donor molecule, donor type, donor heavy atom, donor atom, acceptor molecule, acceptor atom, score
      P1  H  3712  3721       L1    18  1.00

> <Gold.PLP.Chemscore.Internal.Correction>
20.0549

