#       Name:                EN300-1659128_i002
#       Creating user name   fsindt
#       Creation time:       Mon Feb 27 18:52:06 2023


#       File generated by GOLD software.
#

@<TRIPOS>MOLECULE
EN300-1659128_i002|acide_1|mol2|392|dock18
    39    39     1
SMALL
USER_CHARGES


@<TRIPOS>ATOM
      1 C1           1.1375 -23.6168  14.2362 C.3            1 <1>                0.0000
      2 C2          -0.3564 -23.4950  14.5433 C.3            1 <1>                0.0000
      3 C3          -1.1658 -23.9698  13.3348 C.3            1 <1>                0.0000
      4 C4          -0.6994 -24.3590  15.7583 C.3            1 <1>                0.0000
      5 O5          -0.6804 -22.1086  14.8282 O.3            1 <1>                0.0000
      6 C6          -0.2559 -21.1872  13.9429 C.2            1 <1>                0.0000
      7 O7          -0.1398 -21.4804  12.7695 O.2            1 <1>                0.0000
      8 N8           0.0403 -19.9397  14.3584 N.am           1 <1>                0.0000
      9 C9          -0.2129 -19.5334  15.7475 C.3            1 <1>                0.0000
     10 C10         -1.0617 -18.2581  15.7412 C.3            1 <1>                0.0000
     11 C11         -0.3669 -17.1919  14.8912 C.3            1 <1>                0.0000
     12 C12         -0.2353 -17.6915  13.4507 C.3            1 <1>                0.0000
     13 C13          0.6279 -18.9621  13.4324 C.3            1 <1>                0.0000
     14 C14          2.0530 -18.6203  13.8720 C.3            1 <1>                0.0000
     15 C15          2.4976 -17.3957  13.1867 C.1            1 <1>                0.0000
     16 C16          2.8521 -16.4191  12.6401 C.1            1 <1>                0.0000
     17 C17          0.6502 -19.5377  12.0398 C.2            1 <1>                0.0000
     18 O18          1.6528 -20.0949  11.6264 O.co2          1 <1>                0.0000
     19 O19         -0.3345 -19.4464  11.3266 O.co2          1 <1>               -1.0000
     20 H20          1.3819 -23.0012  13.3705 H              1 <1>                0.0000
     21 H21          1.7142 -23.2785  15.0970 H              1 <1>                0.0000
     22 H22          1.3807 -24.6576  14.0222 H              1 <1>                0.0000
     23 H23         -0.9226 -25.0107  13.1209 H              1 <1>                0.0000
     24 H24         -2.2302 -23.8830  13.5537 H              1 <1>                0.0000
     25 H25         -0.9214 -23.3543  12.4692 H              1 <1>                0.0000
     26 H26         -0.1228 -24.0207  16.6193 H              1 <1>                0.0000
     27 H27         -1.7638 -24.2722  15.9772 H              1 <1>                0.0000
     28 H28         -0.4562 -25.3998  15.5444 H              1 <1>                0.0000
     29 H29         -0.7493 -20.3267  16.2683 H              1 <1>                0.0000
     30 H30          0.7346 -19.3393  16.2499 H              1 <1>                0.0000
     31 H31         -2.0432 -18.4764  15.3204 H              1 <1>                0.0000
     32 H32         -1.1761 -17.8923  16.7617 H              1 <1>                0.0000
     33 H33         -0.9566 -16.2752  14.9052 H              1 <1>                0.0000
     34 H34          0.6243 -16.9921  15.2983 H              1 <1>                0.0000
     35 H35         -1.2246 -17.9150  13.0514 H              1 <1>                0.0000
     36 H36          0.2385 -16.9223  12.8408 H              1 <1>                0.0000
     37 H37          2.0722 -18.4607  14.9501 H              1 <1>                0.0000
     38 H38          2.7198 -19.4433  13.6146 H              1 <1>                0.0000
     39 H39          3.1692 -15.5456  12.1513 H              1 <1>                0.0000
@<TRIPOS>BOND
    1    1    2 1     
    2    1   20 1     
    3    1   21 1     
    4    1   22 1     
    5    2    3 1     
    6    2    4 1     
    7    2    5 1     
    8    3   23 1     
    9    3   24 1     
   10    3   25 1     
   11    4   26 1     
   12    4   27 1     
   13    4   28 1     
   14    5    6 1     
   15    6    7 2     
   16    6    8 am    
   17    8    9 1     
   18    8   13 1     
   19    9   10 1     
   20    9   29 1     
   21    9   30 1     
   22   10   11 1     
   23   10   31 1     
   24   10   32 1     
   25   11   12 1     
   26   11   33 1     
   27   11   34 1     
   28   12   13 1     
   29   12   35 1     
   30   12   36 1     
   31   13   14 1     
   32   13   17 1     
   33   14   15 1     
   34   14   37 1     
   35   14   38 1     
   36   15   16 3     
   37   16   39 1     
   38   17   18 ar    
   39   17   19 ar    
@<TRIPOS>SUBSTRUCTURE
      1 ****           1
@<TRIPOS>COMMENT
> <Gold.Version>
2022.2.0

> <Gold.Id.Protein>
3pbl|protein|mol2

> <Gold.Protein.RotatedTorsions>
[ 1303 1298 1297 1294 ] final  140.84 input  179.99 | X-H torsion
[ 2461 2456 2455 2452 ] final    4.31 input   30.03 | X-H torsion
[ 2515 2510 2509 2506 ] final -130.34 input  -89.99 | X-H torsion
[ 3721 3712 3711 3710 ] final   -7.09 input -179.91 | X-H torsion
[ 3841 3832 3831 3830 ] final    9.14 input -179.91 | X-H torsion
[ 3767 3762 3761 3758 ] final -123.62 input  -89.99 | X-H torsion
[ 2472 2467 2466 2463 ] final  160.61 input  -89.97 | X-H torsion

> <Gold.Protein.ActiveResidues>
 VAL82   VAL86   LEU89   PHE106  VAL107  ASP110  VAL111  MET112  CYS114  THR115 
 CYS181  SER182  ILE183  PHE188  VAL189  ILE190  SER192  SER193  SER196  TRP342 
 PHE345  PHE346  HIS349  VAL350  TYR365  THR369  GLY372  TYR373 

> <Gold.Protein.RotatedAtoms>
    4.8757   -9.4585    4.9218 H   0  0  0  0  0  0  0  0  0  0  0  0  # atno 1303 bound_to 1298
    1.1086   -7.9670    7.0331 H   0  0  0  0  0  0  0  0  0  0  0  0  # atno 2461 bound_to 2456
   -5.4784   -5.3023    8.7430 H   0  0  0  0  0  0  0  0  0  0  0  0  # atno 2472 bound_to 2467
    2.6583   -9.2454    5.1558 H   0  0  0  0  0  0  0  0  0  0  0  0  # atno 2515 bound_to 2510
   -2.5050  -17.9104   14.3373 H   0  0  0  0  0  0  0  0  0  0  0  0  # atno 3721 bound_to 3712
   -4.7985  -21.9869   11.5455 H   0  0  0  0  0  0  0  0  0  0  0  0  # atno 3767 bound_to 3762
    1.8231  -20.5877    9.5954 H   0  0  0  0  0  0  0  0  0  0  0  0  # atno 3841 bound_to 3832
    3.5389  -10.1059    4.2435 LP  0  0  0  0  0  0  0  0  0  0  0  0  # atno 4297 bound_to 1298
    3.9472   -8.5569    3.9261 LP  0  0  0  0  0  0  0  0  0  0  0  0  # atno 4298 bound_to 1298
    0.5309   -9.1439    8.0071 LP  0  0  0  0  0  0  0  0  0  0  0  0  # atno 4299 bound_to 2456
    2.0983   -8.6970    8.1078 LP  0  0  0  0  0  0  0  0  0  0  0  0  # atno 4300 bound_to 2456
    2.0295   -8.0056    6.0122 LP  0  0  0  0  0  0  0  0  0  0  0  0  # atno 4301 bound_to 2510
    2.6088   -7.7478    4.5073 LP  0  0  0  0  0  0  0  0  0  0  0  0  # atno 4302 bound_to 2510
   -3.4791  -16.6342   14.3542 LP  0  0  0  0  0  0  0  0  0  0  0  0  # atno 4306 bound_to 3712
   -3.1565  -17.4142   12.9563 LP  0  0  0  0  0  0  0  0  0  0  0  0  # atno 4307 bound_to 3712
    2.0092  -19.6360    8.3164 LP  0  0  0  0  0  0  0  0  0  0  0  0  # atno 4314 bound_to 3832
    3.1142  -20.7873    8.6630 LP  0  0  0  0  0  0  0  0  0  0  0  0  # atno 4315 bound_to 3832
   -3.9741  -23.2154   10.8542 LP  0  0  0  0  0  0  0  0  0  0  0  0  # atno 4318 bound_to 3762
   -5.3547  -22.6725   10.1717 LP  0  0  0  0  0  0  0  0  0  0  0  0  # atno 4319 bound_to 3762
   -4.3287   -4.7986    7.6986 LP  0  0  0  0  0  0  0  0  0  0  0  0  # atno 4320 bound_to 2467
   -3.9100   -5.2927    9.1976 LP  0  0  0  0  0  0  0  0  0  0  0  0  # atno 4321 bound_to 2467

> <Gold.Score>
     Score     S(PLP)   S(hbond)     S(cho)   S(metal)  DE(clash)   DE(tors)     intcor
     38.42     -36.17       1.00       0.00       0.00      17.40       1.69      20.02

> <Gold.PLP.Fitness>
38.4164

> <Gold.PLP.PLP>
-36.1729

> <Gold.PLP.part.hbond>
-1.0000

> <Gold.PLP.part.metal>
0.0000

> <Gold.PLP.part.buried>
-0.3098

> <Gold.PLP.part.nonpolar>
-35.0725

> <Gold.PLP.part.repulsive>
0.1685

> <Gold.PLP.ligand.clash>
17.4018

> <Gold.PLP.ligand.torsion>
1.6879

> <Gold.PLP.Chemscore.Hbond>
1.0000

> <Gold.PLP.Chemscore.CHOScore>
0.0000

> <Gold.PLP.Chemscore.Metal>
0.0000

> <Gold.Chemscore.Hbonds>
donor molecule, donor type, donor heavy atom, donor atom, acceptor molecule, acceptor atom, score
      P1  H  3832  3841       L1    18  1.00

> <Gold.PLP.Chemscore.Internal.Correction>
20.0211

