#       Name:                EN300-1659128_i002
#       Creating user name   fsindt
#       Creation time:       Mon Feb 27 18:52:07 2023


#       File generated by GOLD software.
#

@<TRIPOS>MOLECULE
EN300-1659128_i002|acide_1|mol2|392|dock19
    39    39     1
SMALL
USER_CHARGES


@<TRIPOS>ATOM
      1 C1           2.3582 -16.8371  12.6591 C.3            1 <1>                0.0000
      2 C2           1.5159 -17.4353  13.7876 C.3            1 <1>                0.0000
      3 C3           2.4050 -17.6931  15.0059 C.3            1 <1>                0.0000
      4 C4           0.4025 -16.4570  14.1667 C.3            1 <1>                0.0000
      5 O5           0.9297 -18.6870  13.3428 O.3            1 <1>                0.0000
      6 C6           0.2492 -19.4027  14.2579 C.2            1 <1>                0.0000
      7 O7          -0.0425 -18.9023  15.3261 O.2            1 <1>                0.0000
      8 N8          -0.1083 -20.6741  13.9892 N.am           1 <1>                0.0000
      9 C9           0.1257 -21.2524  12.6590 C.3            1 <1>                0.0000
     10 C10         -1.1946 -21.8206  12.1292 C.3            1 <1>                0.0000
     11 C11         -1.7678 -22.8055  13.1506 C.3            1 <1>                0.0000
     12 C12         -2.0498 -22.0737  14.4648 C.3            1 <1>                0.0000
     13 C13         -0.7342 -21.5100  15.0227 C.3            1 <1>                0.0000
     14 C14          0.2002 -22.6627  15.3960 C.3            1 <1>                0.0000
     15 C15         -0.4935 -23.5783  16.3164 C.1            1 <1>                0.0000
     16 C16         -1.0468 -24.3086  17.0505 C.1            1 <1>                0.0000
     17 C17         -1.0204 -20.6727  16.2426 C.2            1 <1>                0.0000
     18 O18         -0.2143 -20.6311  17.1564 O.co2          1 <1>                0.0000
     19 O19         -2.0580 -20.0366  16.3156 O.co2          1 <1>               -1.0000
     20 H20          3.1514 -17.5342  12.3890 H              1 <1>                0.0000
     21 H21          1.7248 -16.6535  11.7912 H              1 <1>                0.0000
     22 H22          2.7983 -15.8975  12.9930 H              1 <1>                0.0000
     23 H23          2.8451 -16.7535  15.3399 H              1 <1>                0.0000
     24 H24          1.8049 -18.1194  15.8099 H              1 <1>                0.0000
     25 H25          3.1982 -18.3901  14.7358 H              1 <1>                0.0000
     26 H26         -0.2309 -16.2733  13.2988 H              1 <1>                0.0000
     27 H27         -0.1976 -16.8832  14.9707 H              1 <1>                0.0000
     28 H28          0.8426 -15.5173  14.5007 H              1 <1>                0.0000
     29 H29          0.4879 -20.4781  11.9825 H              1 <1>                0.0000
     30 H30          0.8640 -22.0508  12.7324 H              1 <1>                0.0000
     31 H31         -1.9029 -21.0076  11.9704 H              1 <1>                0.0000
     32 H32         -1.0158 -22.3374  11.1861 H              1 <1>                0.0000
     33 H33         -2.6949 -23.2300  12.7652 H              1 <1>                0.0000
     34 H34         -1.0485 -23.6052  13.3274 H              1 <1>                0.0000
     35 H35         -2.7502 -21.2583  14.2840 H              1 <1>                0.0000
     36 H36         -2.4798 -22.7706  15.1842 H              1 <1>                0.0000
     37 H37          0.4885 -23.2032  14.4945 H              1 <1>                0.0000
     38 H38          1.0913 -22.2652  15.8819 H              1 <1>                0.0000
     39 H39         -1.5416 -24.9618  17.7070 H              1 <1>                0.0000
@<TRIPOS>BOND
    1    1    2 1     
    2    1   20 1     
    3    1   21 1     
    4    1   22 1     
    5    2    3 1     
    6    2    4 1     
    7    2    5 1     
    8    3   23 1     
    9    3   24 1     
   10    3   25 1     
   11    4   26 1     
   12    4   27 1     
   13    4   28 1     
   14    5    6 1     
   15    6    7 2     
   16    6    8 am    
   17    8    9 1     
   18    8   13 1     
   19    9   10 1     
   20    9   29 1     
   21    9   30 1     
   22   10   11 1     
   23   10   31 1     
   24   10   32 1     
   25   11   12 1     
   26   11   33 1     
   27   11   34 1     
   28   12   13 1     
   29   12   35 1     
   30   12   36 1     
   31   13   14 1     
   32   13   17 1     
   33   14   15 1     
   34   14   37 1     
   35   14   38 1     
   36   15   16 3     
   37   16   39 1     
   38   17   18 ar    
   39   17   19 ar    
@<TRIPOS>SUBSTRUCTURE
      1 ****           1
@<TRIPOS>COMMENT
> <Gold.Version>
2022.2.0

> <Gold.Id.Protein>
3pbl|protein|mol2

> <Gold.Protein.RotatedTorsions>
[ 1303 1298 1297 1294 ] final  -68.16 input  179.99 | X-H torsion
[ 2461 2456 2455 2452 ] final   81.51 input   30.03 | X-H torsion
[ 2515 2510 2509 2506 ] final  -61.06 input  -89.99 | X-H torsion
[ 3721 3712 3711 3710 ] final   -7.20 input -179.91 | X-H torsion
[ 3841 3832 3831 3830 ] final  -32.10 input -179.91 | X-H torsion
[ 3767 3762 3761 3758 ] final  -72.91 input  -89.99 | X-H torsion
[ 2472 2467 2466 2463 ] final  115.28 input  -89.97 | X-H torsion

> <Gold.Protein.ActiveResidues>
 VAL82   VAL86   LEU89   PHE106  VAL107  ASP110  VAL111  MET112  CYS114  THR115 
 CYS181  SER182  ILE183  PHE188  VAL189  ILE190  SER192  SER193  SER196  TRP342 
 PHE345  PHE346  HIS349  VAL350  TYR365  THR369  GLY372  TYR373 

> <Gold.Protein.RotatedAtoms>
    3.5743   -8.8660    3.7876 H   0  0  0  0  0  0  0  0  0  0  0  0  # atno 1303 bound_to 1298
    2.0982   -8.2102    7.6215 H   0  0  0  0  0  0  0  0  0  0  0  0  # atno 2461 bound_to 2456
   -5.3812   -5.0487    8.0691 H   0  0  0  0  0  0  0  0  0  0  0  0  # atno 2472 bound_to 2467
    2.8250   -8.5168    4.3883 H   0  0  0  0  0  0  0  0  0  0  0  0  # atno 2515 bound_to 2510
   -2.5053  -17.9096   14.3386 H   0  0  0  0  0  0  0  0  0  0  0  0  # atno 3721 bound_to 3712
   -5.3826  -21.9781   10.9880 H   0  0  0  0  0  0  0  0  0  0  0  0  # atno 3767 bound_to 3762
    1.5670  -20.1062    9.3229 H   0  0  0  0  0  0  0  0  0  0  0  0  # atno 3841 bound_to 3832
    4.8897   -8.9860    4.7476 LP  0  0  0  0  0  0  0  0  0  0  0  0  # atno 4297 bound_to 1298
    3.8983  -10.2695    4.5567 LP  0  0  0  0  0  0  0  0  0  0  0  0  # atno 4298 bound_to 1298
    0.5303   -8.3118    7.1756 LP  0  0  0  0  0  0  0  0  0  0  0  0  # atno 4299 bound_to 2456
    1.1095   -9.2861    8.3511 LP  0  0  0  0  0  0  0  0  0  0  0  0  # atno 4300 bound_to 2456
    2.3164   -9.0260    5.8538 LP  0  0  0  0  0  0  0  0  0  0  0  0  # atno 4301 bound_to 2510
    2.1552   -7.4563    5.4335 LP  0  0  0  0  0  0  0  0  0  0  0  0  # atno 4302 bound_to 2510
   -3.4796  -16.6336   14.3526 LP  0  0  0  0  0  0  0  0  0  0  0  0  # atno 4306 bound_to 3712
   -3.1556  -17.4157   12.9562 LP  0  0  0  0  0  0  0  0  0  0  0  0  # atno 4307 bound_to 3712
    2.6200  -19.8584    8.1373 LP  0  0  0  0  0  0  0  0  0  0  0  0  # atno 4314 bound_to 3832
    2.7992  -21.1212    9.1570 LP  0  0  0  0  0  0  0  0  0  0  0  0  # atno 4315 bound_to 3832
   -3.9954  -22.6929   11.4692 LP  0  0  0  0  0  0  0  0  0  0  0  0  # atno 4318 bound_to 3762
   -4.7496  -23.2038   10.1139 LP  0  0  0  0  0  0  0  0  0  0  0  0  # atno 4319 bound_to 3762
   -3.7571   -4.8936    8.1368 LP  0  0  0  0  0  0  0  0  0  0  0  0  # atno 4320 bound_to 2467
   -4.5788   -5.4512    9.4331 LP  0  0  0  0  0  0  0  0  0  0  0  0  # atno 4321 bound_to 2467

> <Gold.Score>
     Score     S(PLP)   S(hbond)     S(cho)   S(metal)  DE(clash)   DE(tors)     intcor
     35.08     -35.35       0.00       0.00       0.00      17.72       1.28      20.02

> <Gold.PLP.Fitness>
35.0839

> <Gold.PLP.PLP>
-35.3507

> <Gold.PLP.part.hbond>
0.0000

> <Gold.PLP.part.metal>
0.0000

> <Gold.PLP.part.buried>
-1.0479

> <Gold.PLP.part.nonpolar>
-34.8274

> <Gold.PLP.part.repulsive>
0.1686

> <Gold.PLP.ligand.clash>
17.7228

> <Gold.PLP.ligand.torsion>
1.2825

> <Gold.PLP.Chemscore.Hbond>
0.0000

> <Gold.PLP.Chemscore.CHOScore>
0.0000

> <Gold.PLP.Chemscore.Metal>
0.0000

> <Gold.PLP.Chemscore.Internal.Correction>
20.0211

