#       Name:                EN300-1659128_i002
#       Creating user name   fsindt
#       Creation time:       Mon Feb 27 18:51:54 2023


#       File generated by GOLD software.
#

@<TRIPOS>MOLECULE
EN300-1659128_i002|acide_1|mol2|392|dock10
    39    39     1
SMALL
USER_CHARGES


@<TRIPOS>ATOM
      1 C1           1.8701 -14.4017  10.3528 C.3            1 <1>                0.0000
      2 C2           0.4313 -14.4971   9.8418 C.3            1 <1>                0.0000
      3 C3          -0.3991 -13.3601  10.4408 C.3            1 <1>                0.0000
      4 C4           0.4235 -14.3852   8.3160 C.3            1 <1>                0.0000
      5 O5          -0.1390 -15.7727  10.2365 O.3            1 <1>                0.0000
      6 C6          -0.0228 -16.1195  11.5323 C.2            1 <1>                0.0000
      7 O7           0.0428 -15.2592  12.3878 O.2            1 <1>                0.0000
      8 N8           0.0207 -17.4209  11.8803 N.am           1 <1>                0.0000
      9 C9          -0.1826 -18.4721  10.8742 C.3            1 <1>                0.0000
     10 C10         -1.2955 -19.4077  11.3566 C.3            1 <1>                0.0000
     11 C11         -0.9470 -19.9318  12.7515 C.3            1 <1>                0.0000
     12 C12         -0.8453 -18.7582  13.7285 C.3            1 <1>                0.0000
     13 C13          0.2782 -17.8153  13.2720 C.3            1 <1>                0.0000
     14 C14          1.6240 -18.5370  13.3677 C.3            1 <1>                0.0000
     15 C15          1.6984 -19.2695  14.6424 C.1            1 <1>                0.0000
     16 C16          1.7577 -19.8537  15.6590 C.1            1 <1>                0.0000
     17 C17          0.2959 -16.5891  14.1479 C.2            1 <1>                0.0000
     18 O18         -0.7459 -16.1525  14.6067 O.co2          1 <1>                0.0000
     19 O19          1.3522 -16.0337  14.3978 O.co2          1 <1>               -1.0000
     20 H20          1.8757 -14.4814  11.4399 H              1 <1>                0.0000
     21 H21          2.4618 -15.2117   9.9261 H              1 <1>                0.0000
     22 H22          2.2982 -13.4440  10.0566 H              1 <1>                0.0000
     23 H23          0.0289 -12.4025  10.1444 H              1 <1>                0.0000
     24 H24         -1.4243 -13.4281  10.0766 H              1 <1>                0.0000
     25 H25         -0.3935 -13.4398  11.5278 H              1 <1>                0.0000
     26 H26          1.0150 -15.1953   7.8892 H              1 <1>                0.0000
     27 H27         -0.6017 -14.4532   7.9518 H              1 <1>                0.0000
     28 H28          0.8515 -13.4275   8.0196 H              1 <1>                0.0000
     29 H29         -0.4715 -18.0191   9.9257 H              1 <1>                0.0000
     30 H30          0.7401 -19.0378  10.7452 H              1 <1>                0.0000
     31 H31         -2.2377 -18.8612  11.3981 H              1 <1>                0.0000
     32 H32         -1.3908 -20.2460  10.6663 H              1 <1>                0.0000
     33 H33         -1.7254 -20.6171  13.0870 H              1 <1>                0.0000
     34 H34          0.0075 -20.4569  12.7142 H              1 <1>                0.0000
     35 H35         -1.7917 -18.2179  13.7477 H              1 <1>                0.0000
     36 H36         -0.6201 -19.1342  14.7265 H              1 <1>                0.0000
     37 H37          1.7196 -19.2388  12.5393 H              1 <1>                0.0000
     38 H38          2.4320 -17.8068  13.3205 H              1 <1>                0.0000
     39 H39          1.8107 -20.3762  16.5682 H              1 <1>                0.0000
@<TRIPOS>BOND
    1    1    2 1     
    2    1   20 1     
    3    1   21 1     
    4    1   22 1     
    5    2    3 1     
    6    2    4 1     
    7    2    5 1     
    8    3   23 1     
    9    3   24 1     
   10    3   25 1     
   11    4   26 1     
   12    4   27 1     
   13    4   28 1     
   14    5    6 1     
   15    6    7 2     
   16    6    8 am    
   17    8    9 1     
   18    8   13 1     
   19    9   10 1     
   20    9   29 1     
   21    9   30 1     
   22   10   11 1     
   23   10   31 1     
   24   10   32 1     
   25   11   12 1     
   26   11   33 1     
   27   11   34 1     
   28   12   13 1     
   29   12   35 1     
   30   12   36 1     
   31   13   14 1     
   32   13   17 1     
   33   14   15 1     
   34   14   37 1     
   35   14   38 1     
   36   15   16 3     
   37   16   39 1     
   38   17   18 ar    
   39   17   19 ar    
@<TRIPOS>SUBSTRUCTURE
      1 ****           1
@<TRIPOS>COMMENT
> <Gold.Version>
2022.2.0

> <Gold.Id.Protein>
3pbl|protein|mol2

> <Gold.Protein.RotatedTorsions>
[ 1303 1298 1297 1294 ] final   81.86 input  179.99 | X-H torsion
[ 2461 2456 2455 2452 ] final   58.33 input   30.03 | X-H torsion
[ 2515 2510 2509 2506 ] final  127.07 input  -89.99 | X-H torsion
[ 3721 3712 3711 3710 ] final  -91.27 input -179.91 | X-H torsion
[ 3841 3832 3831 3830 ] final -139.16 input -179.91 | X-H torsion
[ 3767 3762 3761 3758 ] final  -13.40 input  -89.99 | X-H torsion
[ 2472 2467 2466 2463 ] final  -54.67 input  -89.97 | X-H torsion

> <Gold.Protein.ActiveResidues>
 VAL82   VAL86   LEU89   PHE106  VAL107  ASP110  VAL111  MET112  CYS114  THR115 
 CYS181  SER182  ILE183  PHE188  VAL189  ILE190  SER192  SER193  SER196  TRP342 
 PHE345  PHE346  HIS349  VAL350  TYR365  THR369  GLY372  TYR373 

> <Gold.Protein.RotatedAtoms>
    4.3077  -10.1836    4.8085 H   0  0  0  0  0  0  0  0  0  0  0  0  # atno 1303 bound_to 1298
    1.8978   -8.0204    7.3619 H   0  0  0  0  0  0  0  0  0  0  0  0  # atno 2461 bound_to 2456
   -3.6929   -5.1571    8.8854 H   0  0  0  0  0  0  0  0  0  0  0  0  # atno 2472 bound_to 2467
    2.0568   -8.2793    6.0878 H   0  0  0  0  0  0  0  0  0  0  0  0  # atno 2515 bound_to 2510
   -3.0341  -16.9343   14.6771 H   0  0  0  0  0  0  0  0  0  0  0  0  # atno 3721 bound_to 3712
   -5.4260  -22.5508   10.2490 H   0  0  0  0  0  0  0  0  0  0  0  0  # atno 3767 bound_to 3762
    2.4854  -19.6760    8.3691 H   0  0  0  0  0  0  0  0  0  0  0  0  # atno 3841 bound_to 3832
    3.3614   -9.3048    3.8092 LP  0  0  0  0  0  0  0  0  0  0  0  0  # atno 4297 bound_to 1298
    4.6930   -8.6326    4.4737 LP  0  0  0  0  0  0  0  0  0  0  0  0  # atno 4298 bound_to 1298
    0.3635   -8.5796    7.3849 LP  0  0  0  0  0  0  0  0  0  0  0  0  # atno 4299 bound_to 2456
    1.4767   -9.2079    8.4011 LP  0  0  0  0  0  0  0  0  0  0  0  0  # atno 4300 bound_to 2456
    2.4922   -7.5605    4.6880 LP  0  0  0  0  0  0  0  0  0  0  0  0  # atno 4301 bound_to 2510
    2.7479   -9.1594    4.8990 LP  0  0  0  0  0  0  0  0  0  0  0  0  # atno 4302 bound_to 2510
   -3.4033  -16.9589   13.1148 LP  0  0  0  0  0  0  0  0  0  0  0  0  # atno 4306 bound_to 3712
   -2.6215  -18.2165   13.8033 LP  0  0  0  0  0  0  0  0  0  0  0  0  # atno 4307 bound_to 3712
    2.9091  -21.0697    9.0429 LP  0  0  0  0  0  0  0  0  0  0  0  0  # atno 4314 bound_to 3832
    1.4493  -20.4068    9.3532 LP  0  0  0  0  0  0  0  0  0  0  0  0  # atno 4315 bound_to 3832
   -4.6621  -22.0501   11.6027 LP  0  0  0  0  0  0  0  0  0  0  0  0  # atno 4318 bound_to 3762
   -4.0395  -23.2741   10.7192 LP  0  0  0  0  0  0  0  0  0  0  0  0  # atno 4319 bound_to 3762
   -5.2942   -5.4053    9.0872 LP  0  0  0  0  0  0  0  0  0  0  0  0  # atno 4320 bound_to 2467
   -4.7296   -4.8311    7.6666 LP  0  0  0  0  0  0  0  0  0  0  0  0  # atno 4321 bound_to 2467

> <Gold.Score>
     Score     S(PLP)   S(hbond)     S(cho)   S(metal)  DE(clash)   DE(tors)     intcor
     33.51     -31.16       1.07       0.00       0.00      17.40       1.74      20.02

> <Gold.PLP.Fitness>
33.5085

> <Gold.PLP.PLP>
-31.1584

> <Gold.PLP.part.hbond>
-2.0000

> <Gold.PLP.part.metal>
0.0000

> <Gold.PLP.part.buried>
4.2010

> <Gold.PLP.part.nonpolar>
-33.5126

> <Gold.PLP.part.repulsive>
0.2703

> <Gold.PLP.ligand.clash>
17.4018

> <Gold.PLP.ligand.torsion>
1.7388

> <Gold.PLP.Chemscore.Hbond>
1.0686

> <Gold.PLP.Chemscore.CHOScore>
0.0000

> <Gold.PLP.Chemscore.Metal>
0.0000

> <Gold.Chemscore.Hbonds>
donor molecule, donor type, donor heavy atom, donor atom, acceptor molecule, acceptor atom, score
      P1  H  2305  2313       L1    19  1.00
      P1  H  3712  3721       L1    18  0.07

> <Gold.PLP.Chemscore.Internal.Correction>
20.0236

