#       Name:                EN300-1659128_i002
#       Creating user name   fsindt
#       Creation time:       Mon Feb 27 18:51:43 2023


#       File generated by GOLD software.
#

@<TRIPOS>MOLECULE
EN300-1659128_i002|acide_1|mol2|392|dock1
    39    39     1
SMALL
USER_CHARGES


@<TRIPOS>ATOM
      1 C1           2.1397 -17.2971  14.7009 C.3            1 <1>                0.0000
      2 C2           1.2182 -16.8535  13.5631 C.3            1 <1>                0.0000
      3 C3           0.0316 -16.0790  14.1404 C.3            1 <1>                0.0000
      4 C4           1.9943 -15.9536  12.5995 C.3            1 <1>                0.0000
      5 O5           0.7328 -18.0215  12.8500 O.3            1 <1>                0.0000
      6 C6           0.2126 -19.0178  13.5912 C.2            1 <1>                0.0000
      7 O7          -0.2054 -18.7889  14.7090 O.2            1 <1>                0.0000
      8 N8           0.1555 -20.2690  13.0935 N.am           1 <1>                0.0000
      9 C9           0.5401 -20.5391  11.7014 C.3            1 <1>                0.0000
     10 C10         -0.6077 -21.2792  11.0075 C.3            1 <1>                0.0000
     11 C11         -0.9650 -22.5293  11.8147 C.3            1 <1>                0.0000
     12 C12         -1.4306 -22.1194  13.2138 C.3            1 <1>                0.0000
     13 C13         -0.2868 -21.3897  13.9343 C.3            1 <1>                0.0000
     14 C14          0.8753 -22.3581  14.1640 C.3            1 <1>                0.0000
     15 C15          0.3522 -23.6463  14.6478 C.1            1 <1>                0.0000
     16 C16         -0.0650 -24.6736  15.0336 C.1            1 <1>                0.0000
     17 C17         -0.7782 -20.8628  15.2579 C.2            1 <1>                0.0000
     18 O18         -1.9337 -20.4918  15.3754 O.co2          1 <1>                0.0000
     19 O19         -0.0203 -20.8076  16.2114 O.co2          1 <1>               -1.0000
     20 H20          1.5868 -17.9382  15.3874 H              1 <1>                0.0000
     21 H21          2.9851 -17.8489  14.2897 H              1 <1>                0.0000
     22 H22          2.5040 -16.4203  15.2363 H              1 <1>                0.0000
     23 H23          0.3959 -15.2021  14.6758 H              1 <1>                0.0000
     24 H24         -0.6250 -15.7629  13.3297 H              1 <1>                0.0000
     25 H25         -0.5213 -16.7200  14.8269 H              1 <1>                0.0000
     26 H26          2.8396 -16.5054  12.1882 H              1 <1>                0.0000
     27 H27          1.3377 -15.6375  11.7888 H              1 <1>                0.0000
     28 H28          2.3586 -15.0767  13.1349 H              1 <1>                0.0000
     29 H29          0.7324 -19.5979  11.1862 H              1 <1>                0.0000
     30 H30          1.4374 -21.1576  11.6837 H              1 <1>                0.0000
     31 H31         -1.4774 -20.6252  10.9454 H              1 <1>                0.0000
     32 H32         -0.2985 -21.5705  10.0036 H              1 <1>                0.0000
     33 H33         -1.7650 -23.0711  11.3100 H              1 <1>                0.0000
     34 H34         -0.0880 -23.1713  11.8974 H              1 <1>                0.0000
     35 H35         -2.2926 -21.4576  13.1309 H              1 <1>                0.0000
     36 H36         -1.7071 -23.0087  13.7802 H              1 <1>                0.0000
     37 H37          1.4104 -22.5122  13.2271 H              1 <1>                0.0000
     38 H38          1.5551 -21.9402  14.9064 H              1 <1>                0.0000
     39 H39         -0.4381 -25.5924  15.3788 H              1 <1>                0.0000
@<TRIPOS>BOND
    1    1    2 1     
    2    1   20 1     
    3    1   21 1     
    4    1   22 1     
    5    2    3 1     
    6    2    4 1     
    7    2    5 1     
    8    3   23 1     
    9    3   24 1     
   10    3   25 1     
   11    4   26 1     
   12    4   27 1     
   13    4   28 1     
   14    5    6 1     
   15    6    7 2     
   16    6    8 am    
   17    8    9 1     
   18    8   13 1     
   19    9   10 1     
   20    9   29 1     
   21    9   30 1     
   22   10   11 1     
   23   10   31 1     
   24   10   32 1     
   25   11   12 1     
   26   11   33 1     
   27   11   34 1     
   28   12   13 1     
   29   12   35 1     
   30   12   36 1     
   31   13   14 1     
   32   13   17 1     
   33   14   15 1     
   34   14   37 1     
   35   14   38 1     
   36   15   16 3     
   37   16   39 1     
   38   17   18 ar    
   39   17   19 ar    
@<TRIPOS>SUBSTRUCTURE
      1 ****           1
@<TRIPOS>COMMENT
> <Gold.Version>
2022.2.0

> <Gold.Id.Protein>
3pbl|protein|mol2

> <Gold.Protein.RotatedTorsions>
[ 1303 1298 1297 1294 ] final  -55.69 input  179.99 | X-H torsion
[ 2461 2456 2455 2452 ] final  157.66 input   30.03 | X-H torsion
[ 2515 2510 2509 2506 ] final -110.45 input  -89.99 | X-H torsion
[ 3721 3712 3711 3710 ] final    2.53 input -179.91 | X-H torsion
[ 3841 3832 3831 3830 ] final  -21.05 input -179.91 | X-H torsion
[ 3767 3762 3761 3758 ] final  148.47 input  -89.99 | X-H torsion
[ 2472 2467 2466 2463 ] final -171.29 input  -89.97 | X-H torsion

> <Gold.Protein.ActiveResidues>
 VAL82   VAL86   LEU89   PHE106  VAL107  ASP110  VAL111  MET112  CYS114  THR115 
 CYS181  SER182  ILE183  PHE188  VAL189  ILE190  SER192  SER193  SER196  TRP342 
 PHE345  PHE346  HIS349  VAL350  TYR365  THR369  GLY372  TYR373 

> <Gold.Protein.RotatedAtoms>
    3.4636   -9.0380    3.7774 H   0  0  0  0  0  0  0  0  0  0  0  0  # atno 1303 bound_to 1298
    1.7747   -9.0551    8.3526 H   0  0  0  0  0  0  0  0  0  0  0  0  # atno 2461 bound_to 2456
   -5.2577   -5.4165    9.1275 H   0  0  0  0  0  0  0  0  0  0  0  0  # atno 2472 bound_to 2467
    2.7585   -9.1404    4.8645 H   0  0  0  0  0  0  0  0  0  0  0  0  # atno 2515 bound_to 2510
   -2.4820  -17.9707   14.2071 H   0  0  0  0  0  0  0  0  0  0  0  0  # atno 3721 bound_to 3712
   -3.9154  -22.9147   11.2757 H   0  0  0  0  0  0  0  0  0  0  0  0  # atno 3767 bound_to 3762
    1.5997  -20.2375    9.4202 H   0  0  0  0  0  0  0  0  0  0  0  0  # atno 3841 bound_to 3832
    4.8312   -8.8201    4.6425 LP  0  0  0  0  0  0  0  0  0  0  0  0  # atno 4297 bound_to 1298
    4.0676  -10.2633    4.6719 LP  0  0  0  0  0  0  0  0  0  0  0  0  # atno 4298 bound_to 1298
    1.6287   -7.9300    7.1777 LP  0  0  0  0  0  0  0  0  0  0  0  0  # atno 4299 bound_to 2456
    0.3345   -8.8232    7.6181 LP  0  0  0  0  0  0  0  0  0  0  0  0  # atno 4300 bound_to 2456
    2.0632   -8.3192    6.0926 LP  0  0  0  0  0  0  0  0  0  0  0  0  # atno 4301 bound_to 2510
    2.4748   -7.5391    4.7183 LP  0  0  0  0  0  0  0  0  0  0  0  0  # atno 4302 bound_to 2510
   -3.4272  -16.7039   14.4893 LP  0  0  0  0  0  0  0  0  0  0  0  0  # atno 4306 bound_to 3712
   -3.2350  -17.2749   12.9715 LP  0  0  0  0  0  0  0  0  0  0  0  0  # atno 4307 bound_to 3712
    2.4618  -19.7649    8.1516 LP  0  0  0  0  0  0  0  0  0  0  0  0  # atno 4314 bound_to 3832
    2.9197  -21.0630    9.0302 LP  0  0  0  0  0  0  0  0  0  0  0  0  # atno 4315 bound_to 3832
   -5.0031  -23.0420   10.0642 LP  0  0  0  0  0  0  0  0  0  0  0  0  # atno 4318 bound_to 3762
   -5.2086  -21.9184   11.2313 LP  0  0  0  0  0  0  0  0  0  0  0  0  # atno 4319 bound_to 3762
   -4.7839   -4.8402    7.6750 LP  0  0  0  0  0  0  0  0  0  0  0  0  # atno 4320 bound_to 2467
   -3.6754   -5.1369    8.8368 LP  0  0  0  0  0  0  0  0  0  0  0  0  # atno 4321 bound_to 2467

> <Gold.Score>
     Score     S(PLP)   S(hbond)     S(cho)   S(metal)  DE(clash)   DE(tors)     intcor
     43.42     -43.76       0.08       0.00       0.00      17.40       1.68      20.19

> <Gold.PLP.Fitness>
43.4229

> <Gold.PLP.PLP>
-43.7560

> <Gold.PLP.part.hbond>
0.0000

> <Gold.PLP.part.metal>
0.0000

> <Gold.PLP.part.buried>
-2.0138

> <Gold.PLP.part.nonpolar>
-41.5811

> <Gold.PLP.part.repulsive>
0.1443

> <Gold.PLP.ligand.clash>
17.4018

> <Gold.PLP.ligand.torsion>
1.6825

> <Gold.PLP.Chemscore.Hbond>
0.0812

> <Gold.PLP.Chemscore.CHOScore>
0.0000

> <Gold.PLP.Chemscore.Metal>
0.0000

> <Gold.Chemscore.Hbonds>
donor molecule, donor type, donor heavy atom, donor atom, acceptor molecule, acceptor atom, score
      P1  H  3712  3721       L1     7  0.08

> <Gold.PLP.Chemscore.Internal.Correction>
20.1899

