#       Name:                EN300-1659128_i002
#       Creating user name   fsindt
#       Creation time:       Mon Feb 27 18:52:03 2023


#       File generated by GOLD software.
#

@<TRIPOS>MOLECULE
EN300-1659128_i002|acide_1|mol2|392|dock16
    39    39     1
SMALL
USER_CHARGES


@<TRIPOS>ATOM
      1 C1           1.9074 -17.2501  13.1170 C.3            1 <1>                0.0000
      2 C2           1.0942 -18.1428  14.0563 C.3            1 <1>                0.0000
      3 C3           1.9952 -18.6519  15.1832 C.3            1 <1>                0.0000
      4 C4          -0.0617 -17.3369  14.6522 C.3            1 <1>                0.0000
      5 O5           0.5644 -19.2719  13.3128 O.3            1 <1>                0.0000
      6 C6          -0.0329 -20.2464  14.0244 C.2            1 <1>                0.0000
      7 O7          -0.4405 -20.0169  15.1459 O.2            1 <1>                0.0000
      8 N8          -0.1785 -21.4763  13.4929 N.am           1 <1>                0.0000
      9 C9           0.1947 -21.7372  12.0960 C.3            1 <1>                0.0000
     10 C10         -0.9997 -22.3720  11.3769 C.3            1 <1>                0.0000
     11 C11         -1.4536 -23.6133  12.1484 C.3            1 <1>                0.0000
     12 C12         -1.8973 -23.2073  13.5557 C.3            1 <1>                0.0000
     13 C13         -0.7079 -22.5832  14.3012 C.3            1 <1>                0.0000
     14 C14          0.3782 -23.6405  14.5105 C.3            1 <1>                0.0000
     15 C15          1.7040 -23.0101  14.4016 C.1            1 <1>                0.0000
     16 C16          2.7613 -22.5074  14.3148 C.1            1 <1>                0.0000
     17 C17         -1.1682 -22.0567  15.6361 C.2            1 <1>                0.0000
     18 O18         -2.2881 -21.5894  15.7539 O.co2          1 <1>                0.0000
     19 O19         -0.4206 -22.0981  16.5984 O.co2          1 <1>               -1.0000
     20 H20          2.7309 -17.8242  12.6925 H              1 <1>                0.0000
     21 H21          1.2656 -16.8874  12.3141 H              1 <1>                0.0000
     22 H22          2.3052 -16.4025  13.6751 H              1 <1>                0.0000
     23 H23          2.3929 -17.8043  15.7414 H              1 <1>                0.0000
     24 H24          1.4157 -19.2880  15.8525 H              1 <1>                0.0000
     25 H25          2.8187 -19.2260  14.7587 H              1 <1>                0.0000
     26 H26         -0.7037 -16.9743  13.8494 H              1 <1>                0.0000
     27 H27         -0.6412 -17.9730  15.3214 H              1 <1>                0.0000
     28 H28          0.3360 -16.4893  15.2104 H              1 <1>                0.0000
     29 H29          0.4592 -20.7994  11.6072 H              1 <1>                0.0000
     30 H30          1.0442 -22.4195  12.0660 H              1 <1>                0.0000
     31 H31         -1.8185 -21.6542  11.3282 H              1 <1>                0.0000
     32 H32         -0.7059 -22.6586  10.3670 H              1 <1>                0.0000
     33 H33         -2.2879 -24.0810  11.6255 H              1 <1>                0.0000
     34 H34         -0.6268 -24.3201  12.2181 H              1 <1>                0.0000
     35 H35         -2.7076 -22.4817  13.4865 H              1 <1>                0.0000
     36 H36         -2.2424 -24.0884  14.0967 H              1 <1>                0.0000
     37 H37          0.2671 -24.0845  15.4997 H              1 <1>                0.0000
     38 H38          0.2812 -24.4162  13.7509 H              1 <1>                0.0000
     39 H39          3.7070 -22.0578  14.2372 H              1 <1>                0.0000
@<TRIPOS>BOND
    1    1    2 1     
    2    1   20 1     
    3    1   21 1     
    4    1   22 1     
    5    2    3 1     
    6    2    4 1     
    7    2    5 1     
    8    3   23 1     
    9    3   24 1     
   10    3   25 1     
   11    4   26 1     
   12    4   27 1     
   13    4   28 1     
   14    5    6 1     
   15    6    7 2     
   16    6    8 am    
   17    8    9 1     
   18    8   13 1     
   19    9   10 1     
   20    9   29 1     
   21    9   30 1     
   22   10   11 1     
   23   10   31 1     
   24   10   32 1     
   25   11   12 1     
   26   11   33 1     
   27   11   34 1     
   28   12   13 1     
   29   12   35 1     
   30   12   36 1     
   31   13   14 1     
   32   13   17 1     
   33   14   15 1     
   34   14   37 1     
   35   14   38 1     
   36   15   16 3     
   37   16   39 1     
   38   17   18 ar    
   39   17   19 ar    
@<TRIPOS>SUBSTRUCTURE
      1 ****           1
@<TRIPOS>COMMENT
> <Gold.Version>
2022.2.0

> <Gold.Id.Protein>
3pbl|protein|mol2

> <Gold.Protein.RotatedTorsions>
[ 1303 1298 1297 1294 ] final   72.95 input  179.99 | X-H torsion
[ 2461 2456 2455 2452 ] final   96.57 input   30.03 | X-H torsion
[ 2515 2510 2509 2506 ] final  -55.50 input  -89.99 | X-H torsion
[ 3721 3712 3711 3710 ] final  176.74 input -179.91 | X-H torsion
[ 3841 3832 3831 3830 ] final -162.86 input -179.91 | X-H torsion
[ 3767 3762 3761 3758 ] final -160.04 input  -89.99 | X-H torsion
[ 2472 2467 2466 2463 ] final -144.67 input  -89.97 | X-H torsion

> <Gold.Protein.ActiveResidues>
 VAL82   VAL86   LEU89   PHE106  VAL107  ASP110  VAL111  MET112  CYS114  THR115 
 CYS181  SER182  ILE183  PHE188  VAL189  ILE190  SER192  SER193  SER196  TRP342 
 PHE345  PHE346  HIS349  VAL350  TYR365  THR369  GLY372  TYR373 

> <Gold.Protein.RotatedAtoms>
    4.1865  -10.2339    4.7438 H   0  0  0  0  0  0  0  0  0  0  0  0  # atno 1303 bound_to 1298
    2.1559   -8.3700    7.8012 H   0  0  0  0  0  0  0  0  0  0  0  0  # atno 2461 bound_to 2456
   -4.8982   -5.4631    9.3665 H   0  0  0  0  0  0  0  0  0  0  0  0  # atno 2472 bound_to 2467
    2.8141   -8.4281    4.3687 H   0  0  0  0  0  0  0  0  0  0  0  0  # atno 2515 bound_to 2510
   -3.3143  -16.6276   13.5023 H   0  0  0  0  0  0  0  0  0  0  0  0  # atno 3721 bound_to 3712
   -4.3076  -22.2977   11.6449 H   0  0  0  0  0  0  0  0  0  0  0  0  # atno 3767 bound_to 3762
    2.7848  -19.8673    8.3549 H   0  0  0  0  0  0  0  0  0  0  0  0  # atno 3841 bound_to 3832
    3.4050   -9.1670    3.7860 LP  0  0  0  0  0  0  0  0  0  0  0  0  # atno 4297 bound_to 1298
    4.7707   -8.7200    4.5616 LP  0  0  0  0  0  0  0  0  0  0  0  0  # atno 4298 bound_to 1298
    0.7033   -8.1603    7.0846 LP  0  0  0  0  0  0  0  0  0  0  0  0  # atno 4299 bound_to 2456
    0.8789   -9.2778    8.2623 LP  0  0  0  0  0  0  0  0  0  0  0  0  # atno 4300 bound_to 2456
    2.3544   -9.0821    5.7924 LP  0  0  0  0  0  0  0  0  0  0  0  0  # atno 4301 bound_to 2510
    2.1280   -7.4889    5.5145 LP  0  0  0  0  0  0  0  0  0  0  0  0  # atno 4302 bound_to 2510
   -2.7148  -18.1143   13.4119 LP  0  0  0  0  0  0  0  0  0  0  0  0  # atno 4306 bound_to 3712
   -2.9864  -17.4152   14.8625 LP  0  0  0  0  0  0  0  0  0  0  0  0  # atno 4307 bound_to 3712
    2.6222  -21.1559    9.2977 LP  0  0  0  0  0  0  0  0  0  0  0  0  # atno 4314 bound_to 3832
    1.3903  -20.0997    9.1148 LP  0  0  0  0  0  0  0  0  0  0  0  0  # atno 4315 bound_to 3832
   -4.3083  -23.3350   10.3837 LP  0  0  0  0  0  0  0  0  0  0  0  0  # atno 4318 bound_to 3762
   -5.5113  -22.2423   10.5427 LP  0  0  0  0  0  0  0  0  0  0  0  0  # atno 4319 bound_to 3762
   -5.1709   -4.9432    7.8428 LP  0  0  0  0  0  0  0  0  0  0  0  0  # atno 4320 bound_to 2467
   -3.6479   -4.9873    8.4301 LP  0  0  0  0  0  0  0  0  0  0  0  0  # atno 4321 bound_to 2467

> <Gold.Score>
     Score     S(PLP)   S(hbond)     S(cho)   S(metal)  DE(clash)   DE(tors)     intcor
     36.64     -38.27       0.00       0.00       0.00      17.40       2.13      20.02

> <Gold.PLP.Fitness>
36.6400

> <Gold.PLP.PLP>
-38.2726

> <Gold.PLP.part.hbond>
0.0000

> <Gold.PLP.part.metal>
0.0000

> <Gold.PLP.part.buried>
-2.2236

> <Gold.PLP.part.nonpolar>
-36.3671

> <Gold.PLP.part.repulsive>
0.0485

> <Gold.PLP.ligand.clash>
17.4018

> <Gold.PLP.ligand.torsion>
2.1259

> <Gold.PLP.Chemscore.Hbond>
0.0000

> <Gold.PLP.Chemscore.CHOScore>
0.0000

> <Gold.PLP.Chemscore.Metal>
0.0000

> <Gold.PLP.Chemscore.Internal.Correction>
20.0211

