#       Name:                EN300-1659128_i002
#       Creating user name   fsindt
#       Creation time:       Mon Feb 27 18:52:01 2023


#       File generated by GOLD software.
#

@<TRIPOS>MOLECULE
EN300-1659128_i002|acide_1|mol2|392|dock15
    39    39     1
SMALL
USER_CHARGES


@<TRIPOS>ATOM
      1 C1           1.6974 -19.0501  15.0612 C.3            1 <1>                0.0000
      2 C2           1.0795 -19.4369  13.7161 C.3            1 <1>                0.0000
      3 C3          -0.3145 -18.8174  13.5982 C.3            1 <1>                0.0000
      4 C4           1.9650 -18.9200  12.5806 C.3            1 <1>                0.0000
      5 O5           0.9755 -20.8825  13.6291 O.3            1 <1>                0.0000
      6 C6           0.0494 -21.4766  14.4052 C.2            1 <1>                0.0000
      7 O7          -0.2601 -20.9799  15.4700 O.2            1 <1>                0.0000
      8 N8          -0.5341 -22.6223  14.0009 N.am           1 <1>                0.0000
      9 C9          -0.2643 -23.1686  12.6640 C.3            1 <1>                0.0000
     10 C10         -1.5986 -23.4036  11.9489 C.3            1 <1>                0.0000
     11 C11         -2.4913 -24.2890  12.8213 C.3            1 <1>                0.0000
     12 C12         -2.7729 -23.5817  14.1488 C.3            1 <1>                0.0000
     13 C13         -1.4477 -23.3516  14.8909 C.3            1 <1>                0.0000
     14 C14         -0.8341 -24.6996  15.2749 C.3            1 <1>                0.0000
     15 C15         -1.7599 -25.4260  16.1594 C.1            1 <1>                0.0000
     16 C16         -2.4983 -26.0052  16.8647 C.1            1 <1>                0.0000
     17 C17         -1.6991 -22.5357  16.1328 C.2            1 <1>                0.0000
     18 O18         -2.5845 -21.6976  16.1428 O.co2          1 <1>                0.0000
     19 O19         -1.0170 -22.7138  17.1276 O.co2          1 <1>               -1.0000
     20 H20          1.0666 -19.4183  15.8702 H              1 <1>                0.0000
     21 H21          2.6905 -19.4914  15.1452 H              1 <1>                0.0000
     22 H22          1.7754 -17.9648  15.1266 H              1 <1>                0.0000
     23 H23         -0.2365 -17.7321  13.6635 H              1 <1>                0.0000
     24 H24         -0.7547 -19.0930  12.6399 H              1 <1>                0.0000
     25 H25         -0.9453 -19.1856  14.4072 H              1 <1>                0.0000
     26 H26          2.9581 -19.3614  12.6645 H              1 <1>                0.0000
     27 H27          1.5247 -19.1957  11.6222 H              1 <1>                0.0000
     28 H28          2.0430 -17.8347  12.6458 H              1 <1>                0.0000
     29 H29          0.3360 -22.4596  12.0938 H              1 <1>                0.0000
     30 H30          0.2719 -24.1130  12.7566 H              1 <1>                0.0000
     31 H31         -2.0921 -22.4473  11.7761 H              1 <1>                0.0000
     32 H32         -1.4176 -23.8978  10.9943 H              1 <1>                0.0000
     33 H33         -3.4319 -24.4781  12.3039 H              1 <1>                0.0000
     34 H34         -1.9865 -25.2357  13.0141 H              1 <1>                0.0000
     35 H35         -3.2554 -22.6237  13.9554 H              1 <1>                0.0000
     36 H36         -3.4278 -24.2027  14.7601 H              1 <1>                0.0000
     37 H37         -0.6557 -25.2873  14.3744 H              1 <1>                0.0000
     38 H38          0.1099 -24.5344  15.7941 H              1 <1>                0.0000
     39 H39         -3.1587 -26.5233  17.4956 H              1 <1>                0.0000
@<TRIPOS>BOND
    1    1    2 1     
    2    1   20 1     
    3    1   21 1     
    4    1   22 1     
    5    2    3 1     
    6    2    4 1     
    7    2    5 1     
    8    3   23 1     
    9    3   24 1     
   10    3   25 1     
   11    4   26 1     
   12    4   27 1     
   13    4   28 1     
   14    5    6 1     
   15    6    7 2     
   16    6    8 am    
   17    8    9 1     
   18    8   13 1     
   19    9   10 1     
   20    9   29 1     
   21    9   30 1     
   22   10   11 1     
   23   10   31 1     
   24   10   32 1     
   25   11   12 1     
   26   11   33 1     
   27   11   34 1     
   28   12   13 1     
   29   12   35 1     
   30   12   36 1     
   31   13   14 1     
   32   13   17 1     
   33   14   15 1     
   34   14   37 1     
   35   14   38 1     
   36   15   16 3     
   37   16   39 1     
   38   17   18 ar    
   39   17   19 ar    
@<TRIPOS>SUBSTRUCTURE
      1 ****           1
@<TRIPOS>COMMENT
> <Gold.Version>
2022.2.0

> <Gold.Id.Protein>
3pbl|protein|mol2

> <Gold.Protein.RotatedTorsions>
[ 1303 1298 1297 1294 ] final   45.38 input  179.99 | X-H torsion
[ 2461 2456 2455 2452 ] final   15.40 input   30.03 | X-H torsion
[ 2515 2510 2509 2506 ] final  -32.93 input  -89.99 | X-H torsion
[ 3721 3712 3711 3710 ] final  -34.36 input -179.91 | X-H torsion
[ 3841 3832 3831 3830 ] final -111.79 input -179.91 | X-H torsion
[ 3767 3762 3761 3758 ] final  127.58 input  -89.99 | X-H torsion
[ 2472 2467 2466 2463 ] final   43.72 input  -89.97 | X-H torsion

> <Gold.Protein.ActiveResidues>
 VAL82   VAL86   LEU89   PHE106  VAL107  ASP110  VAL111  MET112  CYS114  THR115 
 CYS181  SER182  ILE183  PHE188  VAL189  ILE190  SER192  SER193  SER196  TRP342 
 PHE345  PHE346  HIS349  VAL350  TYR365  THR369  GLY372  TYR373 

> <Gold.Protein.RotatedAtoms>
    3.8141  -10.2556    4.4934 H   0  0  0  0  0  0  0  0  0  0  0  0  # atno 1303 bound_to 1298
    1.2852   -7.9293    7.0570 H   0  0  0  0  0  0  0  0  0  0  0  0  # atno 2461 bound_to 2456
   -4.3780   -4.8000    7.6853 H   0  0  0  0  0  0  0  0  0  0  0  0  # atno 2472 bound_to 2467
    2.7347   -8.0679    4.3728 H   0  0  0  0  0  0  0  0  0  0  0  0  # atno 2515 bound_to 2510
   -2.6278  -17.6510   14.6278 H   0  0  0  0  0  0  0  0  0  0  0  0  # atno 3721 bound_to 3712
   -3.9253  -23.1271   11.0078 H   0  0  0  0  0  0  0  0  0  0  0  0  # atno 3767 bound_to 3762
    2.1142  -19.5808    8.5136 H   0  0  0  0  0  0  0  0  0  0  0  0  # atno 3841 bound_to 3832
    3.6424   -8.7859    3.8031 LP  0  0  0  0  0  0  0  0  0  0  0  0  # atno 4297 bound_to 1298
    4.9059   -9.0795    4.7950 LP  0  0  0  0  0  0  0  0  0  0  0  0  # atno 4298 bound_to 1298
    0.4343   -9.0528    7.8823 LP  0  0  0  0  0  0  0  0  0  0  0  0  # atno 4299 bound_to 2456
    2.0182   -8.8259    8.2086 LP  0  0  0  0  0  0  0  0  0  0  0  0  # atno 4300 bound_to 2456
    2.5124   -9.2329    5.4949 LP  0  0  0  0  0  0  0  0  0  0  0  0  # atno 4301 bound_to 2510
    2.0494   -7.6985    5.8080 LP  0  0  0  0  0  0  0  0  0  0  0  0  # atno 4302 bound_to 2510
   -3.5628  -16.5560   13.9175 LP  0  0  0  0  0  0  0  0  0  0  0  0  # atno 4306 bound_to 3712
   -2.9310  -17.7920   13.0575 LP  0  0  0  0  0  0  0  0  0  0  0  0  # atno 4307 bound_to 3712
    3.1016  -20.8308    8.7097 LP  0  0  0  0  0  0  0  0  0  0  0  0  # atno 4314 bound_to 3832
    1.6855  -20.7558    9.5194 LP  0  0  0  0  0  0  0  0  0  0  0  0  # atno 4315 bound_to 3832
   -5.2499  -22.8094   10.1071 LP  0  0  0  0  0  0  0  0  0  0  0  0  # atno 4318 bound_to 3762
   -4.9519  -21.9388   11.4562 LP  0  0  0  0  0  0  0  0  0  0  0  0  # atno 4319 bound_to 3762
   -3.8749   -5.2767    9.1638 LP  0  0  0  0  0  0  0  0  0  0  0  0  # atno 4320 bound_to 2467
   -5.4640   -5.3168    8.7899 LP  0  0  0  0  0  0  0  0  0  0  0  0  # atno 4321 bound_to 2467

> <Gold.Score>
     Score     S(PLP)   S(hbond)     S(cho)   S(metal)  DE(clash)   DE(tors)     intcor
     34.25     -34.80       0.00       0.00       0.00      17.40       1.58      20.02

> <Gold.PLP.Fitness>
34.2505

> <Gold.PLP.PLP>
-34.7953

> <Gold.PLP.part.hbond>
0.0000

> <Gold.PLP.part.metal>
0.0000

> <Gold.PLP.part.buried>
-3.2089

> <Gold.PLP.part.nonpolar>
-31.5498

> <Gold.PLP.part.repulsive>
0.0374

> <Gold.PLP.ligand.clash>
17.4018

> <Gold.PLP.ligand.torsion>
1.5820

> <Gold.PLP.Chemscore.Hbond>
0.0000

> <Gold.PLP.Chemscore.CHOScore>
0.0000

> <Gold.PLP.Chemscore.Metal>
0.0000

> <Gold.PLP.Chemscore.Internal.Correction>
20.0211

