#       Name:                EN300-1659128_i002
#       Creating user name   fsindt
#       Creation time:       Mon Feb 27 18:51:57 2023


#       File generated by GOLD software.
#

@<TRIPOS>MOLECULE
EN300-1659128_i002|acide_1|mol2|392|dock12
    39    39     1
SMALL
USER_CHARGES


@<TRIPOS>ATOM
      1 C1          -0.0973 -20.4626  19.6198 C.3            1 <1>                0.0000
      2 C2          -1.5734 -20.7388  19.3276 C.3            1 <1>                0.0000
      3 C3          -2.1857 -21.5219  20.4908 C.3            1 <1>                0.0000
      4 C4          -2.3168 -19.4124  19.1584 C.3            1 <1>                0.0000
      5 O5          -1.6878 -21.5170  18.1071 O.3            1 <1>                0.0000
      6 C6          -1.0905 -21.0205  17.0073 C.2            1 <1>                0.0000
      7 O7          -0.6865 -19.8745  17.0003 O.2            1 <1>                0.0000
      8 N8          -0.9408 -21.7945  15.9142 N.am           1 <1>                0.0000
      9 C9          -1.3095 -23.2163  15.9474 C.3            1 <1>                0.0000
     10 C10         -0.1118 -24.0475  15.4769 C.3            1 <1>                0.0000
     11 C11          0.3426 -23.5480  14.1036 C.3            1 <1>                0.0000
     12 C12          0.7814 -22.0857  14.2102 C.3            1 <1>                0.0000
     13 C13         -0.4114 -21.2311  14.6648 C.3            1 <1>                0.0000
     14 C14         -1.4958 -21.2486  13.5855 C.3            1 <1>                0.0000
     15 C15         -0.8790 -21.0315  12.2667 C.1            1 <1>                0.0000
     16 C16         -0.3870 -20.8584  11.2149 C.1            1 <1>                0.0000
     17 C17          0.0441 -19.8147  14.9044 C.2            1 <1>                0.0000
     18 O18          1.1765 -19.5971  15.3003 O.co2          1 <1>                0.0000
     19 O19         -0.7199 -18.8863  14.7022 O.co2          1 <1>               -1.0000
     20 H20          0.4323 -21.4076  19.7404 H              1 <1>                0.0000
     21 H21          0.3390 -19.9048  18.7912 H              1 <1>                0.0000
     22 H22         -0.0114 -19.8785  20.5361 H              1 <1>                0.0000
     23 H23         -2.0999 -20.9377  21.4071 H              1 <1>                0.0000
     24 H24         -3.2375 -21.7187  20.2826 H              1 <1>                0.0000
     25 H25         -1.6562 -22.4668  20.6114 H              1 <1>                0.0000
     26 H26         -1.8806 -18.8546  18.3296 H              1 <1>                0.0000
     27 H27         -3.3685 -19.6092  18.9501 H              1 <1>                0.0000
     28 H28         -2.2310 -18.8282  20.0747 H              1 <1>                0.0000
     29 H29         -1.5746 -23.5014  16.9656 H              1 <1>                0.0000
     30 H30         -2.1574 -23.3896  15.2849 H              1 <1>                0.0000
     31 H31          0.7056 -23.9440  16.1905 H              1 <1>                0.0000
     32 H32         -0.4021 -25.0957  15.4050 H              1 <1>                0.0000
     33 H33          1.1793 -24.1537  13.7554 H              1 <1>                0.0000
     34 H34         -0.4830 -23.6287  13.3964 H              1 <1>                0.0000
     35 H35          1.5904 -22.0008  14.9357 H              1 <1>                0.0000
     36 H36          1.1269 -21.7377  13.2367 H              1 <1>                0.0000
     37 H37         -2.0025 -22.2136  13.5952 H              1 <1>                0.0000
     38 H38         -2.2182 -20.4568  13.7835 H              1 <1>                0.0000
     39 H39          0.0530 -20.7036  10.2742 H              1 <1>                0.0000
@<TRIPOS>BOND
    1    1    2 1     
    2    1   20 1     
    3    1   21 1     
    4    1   22 1     
    5    2    3 1     
    6    2    4 1     
    7    2    5 1     
    8    3   23 1     
    9    3   24 1     
   10    3   25 1     
   11    4   26 1     
   12    4   27 1     
   13    4   28 1     
   14    5    6 1     
   15    6    7 2     
   16    6    8 am    
   17    8    9 1     
   18    8   13 1     
   19    9   10 1     
   20    9   29 1     
   21    9   30 1     
   22   10   11 1     
   23   10   31 1     
   24   10   32 1     
   25   11   12 1     
   26   11   33 1     
   27   11   34 1     
   28   12   13 1     
   29   12   35 1     
   30   12   36 1     
   31   13   14 1     
   32   13   17 1     
   33   14   15 1     
   34   14   37 1     
   35   14   38 1     
   36   15   16 3     
   37   16   39 1     
   38   17   18 ar    
   39   17   19 ar    
@<TRIPOS>SUBSTRUCTURE
      1 ****           1
@<TRIPOS>COMMENT
> <Gold.Version>
2022.2.0

> <Gold.Id.Protein>
3pbl|protein|mol2

> <Gold.Protein.RotatedTorsions>
[ 1303 1298 1297 1294 ] final   51.02 input  179.99 | X-H torsion
[ 2461 2456 2455 2452 ] final  -60.38 input   30.03 | X-H torsion
[ 2515 2510 2509 2506 ] final -135.95 input  -89.99 | X-H torsion
[ 3721 3712 3711 3710 ] final  -13.94 input -179.91 | X-H torsion
[ 3841 3832 3831 3830 ] final   21.88 input -179.91 | X-H torsion
[ 3767 3762 3761 3758 ] final   40.77 input  -89.99 | X-H torsion
[ 2472 2467 2466 2463 ] final  135.25 input  -89.97 | X-H torsion

> <Gold.Protein.ActiveResidues>
 VAL82   VAL86   LEU89   PHE106  VAL107  ASP110  VAL111  MET112  CYS114  THR115 
 CYS181  SER182  ILE183  PHE188  VAL189  ILE190  SER192  SER193  SER196  TRP342 
 PHE345  PHE346  HIS349  VAL350  TYR365  THR369  GLY372  TYR373 

> <Gold.Protein.RotatedAtoms>
    3.8872  -10.2680    4.5490 H   0  0  0  0  0  0  0  0  0  0  0  0  # atno 1303 bound_to 1298
    0.3689   -8.5642    7.3715 H   0  0  0  0  0  0  0  0  0  0  0  0  # atno 2461 bound_to 2456
   -5.4946   -5.1636    8.3534 H   0  0  0  0  0  0  0  0  0  0  0  0  # atno 2472 bound_to 2467
    2.6245   -9.2555    5.2411 H   0  0  0  0  0  0  0  0  0  0  0  0  # atno 2515 bound_to 2510
   -2.5283  -17.8565   14.4226 H   0  0  0  0  0  0  0  0  0  0  0  0  # atno 3721 bound_to 3712
   -4.8371  -23.1546   10.0874 H   0  0  0  0  0  0  0  0  0  0  0  0  # atno 3767 bound_to 3762
    1.9653  -20.7145    9.6209 H   0  0  0  0  0  0  0  0  0  0  0  0  # atno 3841 bound_to 3832
    3.5828   -8.8554    3.7887 LP  0  0  0  0  0  0  0  0  0  0  0  0  # atno 4297 bound_to 1298
    4.8923   -8.9975    4.7538 LP  0  0  0  0  0  0  0  0  0  0  0  0  # atno 4298 bound_to 1298
    1.4567   -9.2150    8.4013 LP  0  0  0  0  0  0  0  0  0  0  0  0  # atno 4299 bound_to 2456
    1.9119   -8.0289    7.3753 LP  0  0  0  0  0  0  0  0  0  0  0  0  # atno 4300 bound_to 2456
    2.0287   -7.9225    5.9718 LP  0  0  0  0  0  0  0  0  0  0  0  0  # atno 4301 bound_to 2510
    2.6435   -7.8206    4.4624 LP  0  0  0  0  0  0  0  0  0  0  0  0  # atno 4302 bound_to 2510
   -3.5095  -16.5974   14.2501 LP  0  0  0  0  0  0  0  0  0  0  0  0  # atno 4306 bound_to 3712
   -3.0993  -17.5132   12.9618 LP  0  0  0  0  0  0  0  0  0  0  0  0  # atno 4307 bound_to 3712
    1.8316  -19.6435    8.4330 LP  0  0  0  0  0  0  0  0  0  0  0  0  # atno 4314 bound_to 3832
    3.1275  -20.6335    8.5170 LP  0  0  0  0  0  0  0  0  0  0  0  0  # atno 4315 bound_to 3832
   -5.3309  -21.9503   11.0736 LP  0  0  0  0  0  0  0  0  0  0  0  0  # atno 4318 bound_to 3762
   -3.9594  -22.7704   11.4098 LP  0  0  0  0  0  0  0  0  0  0  0  0  # atno 4319 bound_to 3762
   -3.9644   -4.8284    7.8925 LP  0  0  0  0  0  0  0  0  0  0  0  0  # atno 4320 bound_to 2467
   -4.2581   -5.4015    9.3931 LP  0  0  0  0  0  0  0  0  0  0  0  0  # atno 4321 bound_to 2467

> <Gold.Score>
     Score     S(PLP)   S(hbond)     S(cho)   S(metal)  DE(clash)   DE(tors)     intcor
     38.59     -36.13       1.00       0.00       0.00      17.68       1.44      20.02

> <Gold.PLP.Fitness>
38.5909

> <Gold.PLP.PLP>
-36.1302

> <Gold.PLP.part.hbond>
-1.0000

> <Gold.PLP.part.metal>
0.0000

> <Gold.PLP.part.buried>
-4.8139

> <Gold.PLP.part.nonpolar>
-30.3752

> <Gold.PLP.part.repulsive>
0.1609

> <Gold.PLP.ligand.clash>
17.6787

> <Gold.PLP.ligand.torsion>
1.4408

> <Gold.PLP.Chemscore.Hbond>
1.0000

> <Gold.PLP.Chemscore.CHOScore>
0.0000

> <Gold.PLP.Chemscore.Metal>
0.0000

> <Gold.Chemscore.Hbonds>
donor molecule, donor type, donor heavy atom, donor atom, acceptor molecule, acceptor atom, score
      P1  H  3712  3721       L1    19  1.00

> <Gold.PLP.Chemscore.Internal.Correction>
20.0211

