#       Name:                EN300-1659128_i002
#       Creating user name   fsindt
#       Creation time:       Mon Feb 27 18:51:47 2023


#       File generated by GOLD software.
#

@<TRIPOS>MOLECULE
EN300-1659128_i002|acide_1|mol2|392|dock5
    39    39     1
SMALL
USER_CHARGES


@<TRIPOS>ATOM
      1 C1          -0.1220 -17.3244  12.3604 C.3            1 <1>                0.0000
      2 C2           0.4825 -16.0207  12.8856 C.3            1 <1>                0.0000
      3 C3           0.3758 -15.9875  14.4115 C.3            1 <1>                0.0000
      4 C4           1.9542 -15.9393  12.4753 C.3            1 <1>                0.0000
      5 O5          -0.2393 -14.8923  12.3253 O.3            1 <1>                0.0000
      6 C6          -0.1052 -14.6764  11.0032 C.2            1 <1>                0.0000
      7 O7           0.2720 -15.5739  10.2762 O.2            1 <1>                0.0000
      8 N8          -0.3893 -13.4646  10.4860 N.am           1 <1>                0.0000
      9 C9          -0.9645 -12.4072  11.3286 C.3            1 <1>                0.0000
     10 C10         -2.2429 -11.8875  10.6634 C.3            1 <1>                0.0000
     11 C11         -1.9260 -11.4480   9.2322 C.3            1 <1>                0.0000
     12 C12         -1.4171 -12.6474   8.4293 C.3            1 <1>                0.0000
     13 C13         -0.1243 -13.1739   9.0704 C.3            1 <1>                0.0000
     14 C14          0.9743 -12.1154   8.9534 C.3            1 <1>                0.0000
     15 C15          1.2843 -11.8849   7.5330 C.1            1 <1>                0.0000
     16 C16          1.5314 -11.7010   6.4001 C.1            1 <1>                0.0000
     17 C17          0.3095 -14.4358   8.3700 C.2            1 <1>                0.0000
     18 O18         -0.5260 -15.2028   7.9225 O.co2          1 <1>                0.0000
     19 O19          1.4960 -14.6897   8.2506 O.co2          1 <1>               -1.0000
     20 H20         -1.1705 -17.3823  12.6527 H              1 <1>                0.0000
     21 H21         -0.0460 -17.3481  11.2733 H              1 <1>                0.0000
     22 H22          0.4198 -18.1715  12.7810 H              1 <1>                0.0000
     23 H23          0.9178 -16.8346  14.8322 H              1 <1>                0.0000
     24 H24          0.8066 -15.0586  14.7857 H              1 <1>                0.0000
     25 H25         -0.6725 -16.0455  14.7038 H              1 <1>                0.0000
     26 H26          2.0302 -15.9629  11.3882 H              1 <1>                0.0000
     27 H27          2.3849 -15.0104  12.8495 H              1 <1>                0.0000
     28 H28          2.4961 -16.7864  12.8959 H              1 <1>                0.0000
     29 H29         -1.2032 -12.8128  12.3118 H              1 <1>                0.0000
     30 H30         -0.2486 -11.5919  11.4313 H              1 <1>                0.0000
     31 H31         -2.9908 -12.6802  10.6435 H              1 <1>                0.0000
     32 H32         -2.6274 -11.0381  11.2282 H              1 <1>                0.0000
     33 H33         -2.8289 -11.0548   8.7647 H              1 <1>                0.0000
     34 H34         -1.1602 -10.6726   9.2515 H              1 <1>                0.0000
     35 H35         -2.1728 -13.4329   8.4304 H              1 <1>                0.0000
     36 H36         -1.2138 -12.3388   7.4038 H              1 <1>                0.0000
     37 H37          0.6320 -11.1850   9.4062 H              1 <1>                0.0000
     38 H38          1.8697 -12.4626   9.4690 H              1 <1>                0.0000
     39 H39          1.7525 -11.5365   5.3869 H              1 <1>                0.0000
@<TRIPOS>BOND
    1    1    2 1     
    2    1   20 1     
    3    1   21 1     
    4    1   22 1     
    5    2    3 1     
    6    2    4 1     
    7    2    5 1     
    8    3   23 1     
    9    3   24 1     
   10    3   25 1     
   11    4   26 1     
   12    4   27 1     
   13    4   28 1     
   14    5    6 1     
   15    6    7 2     
   16    6    8 am    
   17    8    9 1     
   18    8   13 1     
   19    9   10 1     
   20    9   29 1     
   21    9   30 1     
   22   10   11 1     
   23   10   31 1     
   24   10   32 1     
   25   11   12 1     
   26   11   33 1     
   27   11   34 1     
   28   12   13 1     
   29   12   35 1     
   30   12   36 1     
   31   13   14 1     
   32   13   17 1     
   33   14   15 1     
   34   14   37 1     
   35   14   38 1     
   36   15   16 3     
   37   16   39 1     
   38   17   18 ar    
   39   17   19 ar    
@<TRIPOS>SUBSTRUCTURE
      1 ****           1
@<TRIPOS>COMMENT
> <Gold.Version>
2022.2.0

> <Gold.Id.Protein>
3pbl|protein|mol2

> <Gold.Protein.RotatedTorsions>
[ 1303 1298 1297 1294 ] final  -12.63 input  179.99 | X-H torsion
[ 2461 2456 2455 2452 ] final   64.33 input   30.03 | X-H torsion
[ 2515 2510 2509 2506 ] final  116.63 input  -89.99 | X-H torsion
[ 3721 3712 3711 3710 ] final   -6.07 input -179.91 | X-H torsion
[ 3841 3832 3831 3830 ] final  111.57 input -179.91 | X-H torsion
[ 3767 3762 3761 3758 ] final  -51.47 input  -89.99 | X-H torsion
[ 2472 2467 2466 2463 ] final  -97.66 input  -89.97 | X-H torsion

> <Gold.Protein.ActiveResidues>
 VAL82   VAL86   LEU89   PHE106  VAL107  ASP110  VAL111  MET112  CYS114  THR115 
 CYS181  SER182  ILE183  PHE188  VAL189  ILE190  SER192  SER193  SER196  TRP342 
 PHE345  PHE346  HIS349  VAL350  TYR365  THR369  GLY372  TYR373 

> <Gold.Protein.RotatedAtoms>
    3.3396   -9.6971    3.9469 H   0  0  0  0  0  0  0  0  0  0  0  0  # atno 1303 bound_to 1298
    1.9614   -8.0615    7.4252 H   0  0  0  0  0  0  0  0  0  0  0  0  # atno 2461 bound_to 2456
   -4.1512   -5.3763    9.3535 H   0  0  0  0  0  0  0  0  0  0  0  0  # atno 2472 bound_to 2467
    2.0363   -8.1130    6.0515 H   0  0  0  0  0  0  0  0  0  0  0  0  # atno 2515 bound_to 2510
   -2.5020  -17.9176   14.3240 H   0  0  0  0  0  0  0  0  0  0  0  0  # atno 3721 bound_to 3712
   -5.4952  -22.1308   10.6928 H   0  0  0  0  0  0  0  0  0  0  0  0  # atno 3767 bound_to 3762
    3.0321  -20.7956    9.0330 H   0  0  0  0  0  0  0  0  0  0  0  0  # atno 3841 bound_to 3832
    4.4019   -8.4863    4.2147 LP  0  0  0  0  0  0  0  0  0  0  0  0  # atno 4297 bound_to 1298
    4.6209   -9.9378    4.9301 LP  0  0  0  0  0  0  0  0  0  0  0  0  # atno 4298 bound_to 1298
    0.3937   -8.5081    7.3241 LP  0  0  0  0  0  0  0  0  0  0  0  0  # atno 4299 bound_to 2456
    1.3829   -9.2383    8.3988 LP  0  0  0  0  0  0  0  0  0  0  0  0  # atno 4300 bound_to 2456
    2.5635   -7.6653    4.5726 LP  0  0  0  0  0  0  0  0  0  0  0  0  # atno 4301 bound_to 2510
    2.6972   -9.2209    5.0508 LP  0  0  0  0  0  0  0  0  0  0  0  0  # atno 4302 bound_to 2510
   -3.4741  -16.6406   14.3691 LP  0  0  0  0  0  0  0  0  0  0  0  0  # atno 4306 bound_to 3712
   -3.1649  -17.3995   12.9566 LP  0  0  0  0  0  0  0  0  0  0  0  0  # atno 4307 bound_to 3712
    1.4995  -20.5096    9.4142 LP  0  0  0  0  0  0  0  0  0  0  0  0  # atno 4314 bound_to 3832
    2.2272  -19.6736    8.2150 LP  0  0  0  0  0  0  0  0  0  0  0  0  # atno 4315 bound_to 3832
   -4.1785  -22.4296   11.6114 LP  0  0  0  0  0  0  0  0  0  0  0  0  # atno 4318 bound_to 3762
   -4.4539  -23.3145   10.2669 LP  0  0  0  0  0  0  0  0  0  0  0  0  # atno 4319 bound_to 3762
   -5.5085   -5.2036    8.4622 LP  0  0  0  0  0  0  0  0  0  0  0  0  # atno 4320 bound_to 2467
   -4.0571   -4.8137    7.8235 LP  0  0  0  0  0  0  0  0  0  0  0  0  # atno 4321 bound_to 2467

> <Gold.Score>
     Score     S(PLP)   S(hbond)     S(cho)   S(metal)  DE(clash)   DE(tors)     intcor
     49.01     -49.14       0.00       0.00       0.00      17.40       1.44      20.15

> <Gold.PLP.Fitness>
49.0065

> <Gold.PLP.PLP>
-49.1402

> <Gold.PLP.part.hbond>
0.0000

> <Gold.PLP.part.metal>
0.0000

> <Gold.PLP.part.buried>
-3.6270

> <Gold.PLP.part.nonpolar>
-47.3423

> <Gold.PLP.part.repulsive>
0.4025

> <Gold.PLP.ligand.clash>
17.4018

> <Gold.PLP.ligand.torsion>
1.4389

> <Gold.PLP.Chemscore.Hbond>
0.0000

> <Gold.PLP.Chemscore.CHOScore>
0.0000

> <Gold.PLP.Chemscore.Metal>
0.0000

> <Gold.PLP.Chemscore.Internal.Correction>
20.1460

