#       Name:                EN300-1659128_i002
#       Creating user name   fsindt
#       Creation time:       Mon Feb 27 18:51:55 2023


#       File generated by GOLD software.
#

@<TRIPOS>MOLECULE
EN300-1659128_i002|acide_1|mol2|392|dock11
    39    39     1
SMALL
USER_CHARGES


@<TRIPOS>ATOM
      1 C1          -0.3600 -18.1107  12.2802 C.3            1 <1>                0.0000
      2 C2           0.5869 -18.5282  13.4071 C.3            1 <1>                0.0000
      3 C3           2.0285 -18.2078  13.0068 C.3            1 <1>                0.0000
      4 C4           0.2299 -17.7632  14.6830 C.3            1 <1>                0.0000
      5 O5           0.4564 -19.9545  13.6453 O.3            1 <1>                0.0000
      6 C6           0.5448 -20.7640  12.5731 C.2            1 <1>                0.0000
      7 O7           1.1489 -20.3986  11.5842 O.2            1 <1>                0.0000
      8 N8          -0.0368 -21.9796  12.5967 N.am           1 <1>                0.0000
      9 C9          -0.0573 -22.8232  11.3940 C.3            1 <1>                0.0000
     10 C10         -1.5041 -23.2363  11.1061 C.3            1 <1>                0.0000
     11 C11         -2.0978 -23.9010  12.3501 C.3            1 <1>                0.0000
     12 C12         -2.1022 -22.9034  13.5107 C.3            1 <1>                0.0000
     13 C13         -0.6573 -22.4888  13.8274 C.3            1 <1>                0.0000
     14 C14          0.1232 -23.7005  14.3407 C.3            1 <1>                0.0000
     15 C15         -0.6628 -24.3864  15.3793 C.1            1 <1>                0.0000
     16 C16         -1.2898 -24.9334  16.2075 C.1            1 <1>                0.0000
     17 C17         -0.6606 -21.4056  14.8751 C.2            1 <1>                0.0000
     18 O18         -1.5574 -20.5798  14.8955 O.co2          1 <1>                0.0000
     19 O19          0.2335 -21.3550  15.7024 O.co2          1 <1>               -1.0000
     20 H20         -0.1057 -18.6557  11.3712 H              1 <1>                0.0000
     21 H21         -1.3870 -18.3389  12.5654 H              1 <1>                0.0000
     22 H22         -0.2620 -17.0399  12.1013 H              1 <1>                0.0000
     23 H23          2.1265 -17.1370  12.8279 H              1 <1>                0.0000
     24 H24          2.7031 -18.5053  13.8097 H              1 <1>                0.0000
     25 H25          2.2828 -18.7528  12.0978 H              1 <1>                0.0000
     26 H26         -0.7971 -17.9915  14.9682 H              1 <1>                0.0000
     27 H27          0.9046 -18.0607  15.4859 H              1 <1>                0.0000
     28 H28          0.3279 -16.6924  14.5042 H              1 <1>                0.0000
     29 H29          0.3378 -22.2619  10.5472 H              1 <1>                0.0000
     30 H30          0.5503 -23.7125  11.5610 H              1 <1>                0.0000
     31 H31         -2.0904 -22.3538  10.8502 H              1 <1>                0.0000
     32 H32         -1.5228 -23.9399  10.2737 H              1 <1>                0.0000
     33 H33         -3.1193 -24.2182  12.1400 H              1 <1>                0.0000
     34 H34         -1.4964 -24.7693  12.6200 H              1 <1>                0.0000
     35 H35         -2.6829 -22.0241  13.2322 H              1 <1>                0.0000
     36 H36         -2.5465 -23.3701  14.3898 H              1 <1>                0.0000
     37 H37          0.3123 -24.3870  13.5155 H              1 <1>                0.0000
     38 H38          1.0721 -23.3693  14.7626 H              1 <1>                0.0000
     39 H39         -1.8505 -25.4227  16.9483 H              1 <1>                0.0000
@<TRIPOS>BOND
    1    1    2 1     
    2    1   20 1     
    3    1   21 1     
    4    1   22 1     
    5    2    3 1     
    6    2    4 1     
    7    2    5 1     
    8    3   23 1     
    9    3   24 1     
   10    3   25 1     
   11    4   26 1     
   12    4   27 1     
   13    4   28 1     
   14    5    6 1     
   15    6    7 2     
   16    6    8 am    
   17    8    9 1     
   18    8   13 1     
   19    9   10 1     
   20    9   29 1     
   21    9   30 1     
   22   10   11 1     
   23   10   31 1     
   24   10   32 1     
   25   11   12 1     
   26   11   33 1     
   27   11   34 1     
   28   12   13 1     
   29   12   35 1     
   30   12   36 1     
   31   13   14 1     
   32   13   17 1     
   33   14   15 1     
   34   14   37 1     
   35   14   38 1     
   36   15   16 3     
   37   16   39 1     
   38   17   18 ar    
   39   17   19 ar    
@<TRIPOS>SUBSTRUCTURE
      1 ****           1
@<TRIPOS>COMMENT
> <Gold.Version>
2022.2.0

> <Gold.Id.Protein>
3pbl|protein|mol2

> <Gold.Protein.RotatedTorsions>
[ 1303 1298 1297 1294 ] final -134.17 input  179.99 | X-H torsion
[ 2461 2456 2455 2452 ] final -116.17 input   30.03 | X-H torsion
[ 2515 2510 2509 2506 ] final  156.25 input  -89.99 | X-H torsion
[ 3721 3712 3711 3710 ] final  -27.75 input -179.91 | X-H torsion
[ 3841 3832 3831 3830 ] final    6.32 input -179.91 | X-H torsion
[ 3767 3762 3761 3758 ] final  126.05 input  -89.99 | X-H torsion
[ 2472 2467 2466 2463 ] final -141.61 input  -89.97 | X-H torsion

> <Gold.Protein.ActiveResidues>
 VAL82   VAL86   LEU89   PHE106  VAL107  ASP110  VAL111  MET112  CYS114  THR115 
 CYS181  SER182  ILE183  PHE188  VAL189  ILE190  SER192  SER193  SER196  TRP342 
 PHE345  PHE346  HIS349  VAL350  TYR365  THR369  GLY372  TYR373 

> <Gold.Protein.RotatedAtoms>
    4.4212   -8.4904    4.2303 H   0  0  0  0  0  0  0  0  0  0  0  0  # atno 1303 bound_to 1298
    0.5355   -9.1476    8.0124 H   0  0  0  0  0  0  0  0  0  0  0  0  # atno 2461 bound_to 2456
   -4.8508   -5.4640    9.3834 H   0  0  0  0  0  0  0  0  0  0  0  0  # atno 2472 bound_to 2467
    2.1764   -8.7361    6.0377 H   0  0  0  0  0  0  0  0  0  0  0  0  # atno 2515 bound_to 2510
   -2.5910  -17.7240   14.5704 H   0  0  0  0  0  0  0  0  0  0  0  0  # atno 3721 bound_to 3712
   -3.9302  -23.1403   10.9870 H   0  0  0  0  0  0  0  0  0  0  0  0  # atno 3767 bound_to 3762
    1.7950  -20.5573    9.5857 H   0  0  0  0  0  0  0  0  0  0  0  0  # atno 3841 bound_to 3832
    4.6042   -9.9564    4.9257 LP  0  0  0  0  0  0  0  0  0  0  0  0  # atno 4297 bound_to 1298
    3.3366   -9.6748    3.9356 LP  0  0  0  0  0  0  0  0  0  0  0  0  # atno 4298 bound_to 1298
    2.1011   -8.6913    8.1030 LP  0  0  0  0  0  0  0  0  0  0  0  0  # atno 4299 bound_to 2456
    1.1010   -7.9694    7.0328 LP  0  0  0  0  0  0  0  0  0  0  0  0  # atno 4300 bound_to 2456
    2.2899   -7.4107    5.0909 LP  0  0  0  0  0  0  0  0  0  0  0  0  # atno 4301 bound_to 2510
    2.8305   -8.8521    4.5462 LP  0  0  0  0  0  0  0  0  0  0  0  0  # atno 4302 bound_to 2510
   -3.5519  -16.5579   14.0274 LP  0  0  0  0  0  0  0  0  0  0  0  0  # atno 4306 bound_to 3712
   -2.9844  -17.7057   13.0139 LP  0  0  0  0  0  0  0  0  0  0  0  0  # atno 4307 bound_to 3712
    2.0504  -19.6395    8.2940 LP  0  0  0  0  0  0  0  0  0  0  0  0  # atno 4314 bound_to 3832
    3.1055  -20.8190    8.6968 LP  0  0  0  0  0  0  0  0  0  0  0  0  # atno 4315 bound_to 3832
   -5.2656  -22.7910   10.1143 LP  0  0  0  0  0  0  0  0  0  0  0  0  # atno 4318 bound_to 3762
   -4.9314  -21.9440   11.4699 LP  0  0  0  0  0  0  0  0  0  0  0  0  # atno 4319 bound_to 3762
   -5.2086   -4.9581    7.8726 LP  0  0  0  0  0  0  0  0  0  0  0  0  # atno 4320 bound_to 2467
   -3.6576   -4.9715    8.3833 LP  0  0  0  0  0  0  0  0  0  0  0  0  # atno 4321 bound_to 2467

> <Gold.Score>
     Score     S(PLP)   S(hbond)     S(cho)   S(metal)  DE(clash)   DE(tors)     intcor
     36.73     -36.73       0.99       0.00       0.00      19.81       1.59      20.02

> <Gold.PLP.Fitness>
36.7272

> <Gold.PLP.PLP>
-36.7287

> <Gold.PLP.part.hbond>
-0.9865

> <Gold.PLP.part.metal>
0.0000

> <Gold.PLP.part.buried>
-1.5588

> <Gold.PLP.part.nonpolar>
-33.9008

> <Gold.PLP.part.repulsive>
0.1056

> <Gold.PLP.ligand.clash>
19.8126

> <Gold.PLP.ligand.torsion>
1.5919

> <Gold.PLP.Chemscore.Hbond>
0.9913

> <Gold.PLP.Chemscore.CHOScore>
0.0000

> <Gold.PLP.Chemscore.Metal>
0.0000

> <Gold.Chemscore.Hbonds>
donor molecule, donor type, donor heavy atom, donor atom, acceptor molecule, acceptor atom, score
      P1  H  3832  3841       L1     7  0.99

> <Gold.PLP.Chemscore.Internal.Correction>
20.0211

