#       Name:                plp ligand
#       Creating user name   fsindt
#       Creation time:       Mon Feb 27 18:51:42 2023


#       File generated by GOLD software.
#

@<TRIPOS>MOLECULE
plp ligand
    39    39     1
SMALL
USER_CHARGES


@<TRIPOS>ATOM
      1 C1          -2.9766   1.5246  -0.3532 NONPOLAR       1 <1>                0.0000
      2 C2          -2.8747   0.0703   0.1108 NONPOLAR       1 <1>                0.0000
      3 C3          -3.0191   0.0093   1.6328 NONPOLAR       1 <1>                0.0000
      4 C4          -3.9883  -0.7521  -0.5405 NONPOLAR       1 <1>                0.0000
      5 O5          -1.5840  -0.4715  -0.2749 ACCEPTOR       1 <1>                0.0000
      6 C6          -0.4915   0.1426   0.2171 NONPOLAR       1 <1>                0.0000
      7 O7          -0.6133   1.1050   0.9488 ACCEPTOR       1 <1>                0.0000
      8 N8           0.7372  -0.3101  -0.1021 NONPOLAR       1 <1>                0.0000
      9 C9           0.9010  -1.5445  -0.8819 NONPOLAR       1 <1>                0.0000
     10 C10          1.8393  -2.4871  -0.1217 NONPOLAR       1 <1>                0.0000
     11 C11          3.1498  -1.7584   0.1842 NONPOLAR       1 <1>                0.0000
     12 C12          2.8650  -0.5430   1.0695 NONPOLAR       1 <1>                0.0000
     13 C13          1.9382   0.4246   0.3181 NONPOLAR       1 <1>                0.0000
     14 C14          2.6636   0.9810  -0.9088 NONPOLAR       1 <1>                0.0000
     15 C15          1.7733   1.9077  -1.6268 NONPOLAR       1 <1>                0.0000
     16 C16          1.0633   2.6468  -2.1994 NONPOLAR       1 <1>                0.0000
     17 C17          1.5424   1.5565   1.2309 NONPOLAR       1 <1>                0.0000
     18 O18          1.2293   2.6373   0.7615 ACCEPTOR       1 <1>                0.0000
     19 O19          1.5352   1.3914   2.4389 ACCEPTOR       1 <1>               -1.0000
     20 H20         -2.1832   2.1105   0.1108                1 <1>                0.0000
     21 H21         -2.8737   1.5681  -1.4375                1 <1>                0.0000
     22 H22         -3.9455   1.9314  -0.0636                1 <1>                0.0000
     23 H23         -3.9881   0.4160   1.9224                1 <1>                0.0000
     24 H24         -2.9465  -1.0269   1.9634                1 <1>                0.0000
     25 H25         -2.2258   0.5952   2.0968                1 <1>                0.0000
     26 H26         -3.8854  -0.7087  -1.6248                1 <1>                0.0000
     27 H27         -3.9157  -1.7883  -0.2099                1 <1>                0.0000
     28 H28         -4.9573  -0.3454  -0.2509                1 <1>                0.0000
     29 H29         -0.0689  -2.0238  -1.0154                1 <1>                0.0000
     30 H30          1.3308  -1.3076  -1.8551                1 <1>                0.0000
     31 H31          1.3678  -2.7951   0.8115                1 <1>                0.0000
     32 H32          2.0457  -3.3658  -0.7329                1 <1>                0.0000
     33 H33          3.8288  -2.4348   0.7035                1 <1>                0.0000
     34 H34          3.6084  -1.4290  -0.7482                1 <1>                0.0000
     35 H35          2.3839  -0.8693   1.9915                1 <1>                0.0000
     36 H36          3.8015  -0.0379   1.3062                1 <1>                0.0000
     37 H37          3.5606   1.5122  -0.5906                1 <1>                0.0000
     38 H38          2.9425   0.1600  -1.5693                1 <1>                0.0000
     39 H39          0.4283   3.3078  -2.7116                1 <1>                0.0000
@<TRIPOS>BOND
    1    1    2 1     
    2    1   20 1     
    3    1   21 1     
    4    1   22 1     
    5    2    3 1     
    6    2    4 1     
    7    2    5 1     
    8    3   23 1     
    9    3   24 1     
   10    3   25 1     
   11    4   26 1     
   12    4   27 1     
   13    4   28 1     
   14    5    6 1     
   15    6    7 2     
   16    6    8 am    
   17    8    9 1     
   18    8   13 1     
   19    9   10 1     
   20    9   29 1     
   21    9   30 1     
   22   10   11 1     
   23   10   31 1     
   24   10   32 1     
   25   11   12 1     
   26   11   33 1     
   27   11   34 1     
   28   12   13 1     
   29   12   35 1     
   30   12   36 1     
   31   13   14 1     
   32   13   17 1     
   33   14   15 1     
   34   14   37 1     
   35   14   38 1     
   36   15   16 3     
   37   16   39 1     
   38   17   18 ar    
   39   17   19 ar    
@<TRIPOS>SUBSTRUCTURE
      1 ****           1
@<TRIPOS>SET
DONOR_HYDROGENS      STATIC     ATOMS    <user>   **** ""
0
ATOM$RED        STATIC     ATOMS    COLORGROUP SYSTEM
0
