#       Name:                EN300-78391_i001
#       Creating user name   aseyller
#       Creation time:       Fri Apr 21 16:25:53 2023


#       File generated by GOLD software.
#

@<TRIPOS>MOLECULE
EN300-78391_i001|aminophenols|mol2|13|dock13
    18    18     1
SMALL
USER_CHARGES


@<TRIPOS>ATOM
      1 C1          25.4662  38.0099  38.4907 C.3            1 <1>                0.0000
      2 C2          26.6242  37.2412  39.0731 C.ar           1 <1>                0.0000
      3 C3          27.8390  37.2149  38.4120 C.ar           1 <1>                0.0000
      4 C4          28.9038  36.5115  38.9428 C.ar           1 <1>                0.0000
      5 C5          28.7601  35.8306  40.1376 C.ar           1 <1>                0.0000
      6 C6          27.5452  35.8525  40.8060 C.ar           1 <1>                0.0000
      7 N7          27.3972  35.1640  42.0155 N.pl3          1 <1>                0.0000
      8 C8          26.4736  36.5663  40.2727 C.ar           1 <1>                0.0000
      9 O9          25.2798  36.5914  40.9237 O.3            1 <1>                0.0000
     10 H10         24.8891  37.3568  37.8362 H              1 <1>                0.0000
     11 H11         24.8283  38.3721  39.2969 H              1 <1>                0.0000
     12 H12         25.8437  38.8568  37.9177 H              1 <1>                0.0000
     13 H13         27.9557  37.7451  37.4783 H              1 <1>                0.0000
     14 H14         29.8503  36.4935  38.4230 H              1 <1>                0.0000
     15 H15         29.5936  35.2815  40.5500 H              1 <1>                0.0000
     16 H16         28.1449  34.6706  42.3873 H              1 <1>                0.0000
     17 H17         26.5468  35.1802  42.4819 H              1 <1>                0.0000
     18 H18         24.5246  36.3502  40.3699 H              1 <1>                0.0000
@<TRIPOS>BOND
    1    1    2 1     
    2    1   10 1     
    3    1   11 1     
    4    1   12 1     
    5    2    3 ar    
    6    2    8 ar    
    7    3    4 ar    
    8    3   13 1     
    9    4    5 ar    
   10    4   14 1     
   11    5    6 ar    
   12    5   15 1     
   13    6    7 1     
   14    6    8 ar    
   15    7   16 1     
   16    7   17 1     
   17    8    9 1     
   18    9   18 1     
@<TRIPOS>SUBSTRUCTURE
      1 ****           1
@<TRIPOS>SET
DONOR_HYDROGENS      STATIC     ATOMS    <user>   **** ""
3 16 17 18
ATOM$RED        STATIC     ATOMS    COLORGROUP SYSTEM
3 16 17 18
@<TRIPOS>COMMENT
> <Gold.Version>
2022.2.0

> <Gold.Id.Protein>
1qkm|1qkm_protein|mol2

> <Gold.Protein.RotatedTorsions>
[  496  491  490  487 ] final  -77.46 input  -89.99 | X-H torsion

> <Gold.Protein.ActiveResidues>
 MET295  LEU298  THR299  LEU301  ALA302  GLU305  TRP335  MET336  LEU339  MET340 
 GLY342  LEU343  ARG346  PHE356  ILE373  ILE376  PHE377  LEU380  LYS471  GLY472 
 MET473  HIS475  LEU476  LEU477  ASN478  MET479  VAL484  VAL487 

> <Gold.Protein.RotatedAtoms>
   36.6432   34.7155   41.2391 H   0  0  0  0  0  0  0  0  0  0  0  0  # atno 496  bound_to 491 

> <Gold.Score>
     Score     S(PLP)   S(hbond)     S(cho)   S(metal)  DE(clash)   DE(tors)     intcor
     33.20     -28.94       1.42       0.00       0.00       0.00       0.00       0.00

> <Gold.PLP.Fitness>
33.1953

> <Gold.PLP.PLP>
-28.9365

> <Gold.PLP.part.hbond>
-1.1115

> <Gold.PLP.part.metal>
0.0000

> <Gold.PLP.part.buried>
-4.4384

> <Gold.PLP.part.nonpolar>
-23.8449

> <Gold.PLP.part.repulsive>
0.0674

> <Gold.PLP.ligand.clash>
0.0000

> <Gold.PLP.ligand.torsion>
0.0000

> <Gold.PLP.Chemscore.Hbond>
1.4196

> <Gold.PLP.Chemscore.CHOScore>
0.0000

> <Gold.PLP.Chemscore.Metal>
0.0000

> <Gold.Chemscore.Hbonds>
donor molecule, donor type, donor heavy atom, donor atom, acceptor molecule, acceptor atom, score
      L1  H     7    17       P1   582  0.64
      L1  H     9    18       P1  1131  0.78

> <Gold.PLP.Chemscore.Internal.Correction>
0.0000

