#       Name:                EN300-78391_i001
#       Creating user name   aseyller
#       Creation time:       Fri Apr 21 16:25:50 2023


#       File generated by GOLD software.
#

@<TRIPOS>MOLECULE
EN300-78391_i001|aminophenols|mol2|13|dock4
    18    18     1
SMALL
USER_CHARGES


@<TRIPOS>ATOM
      1 C1          30.3060  36.0081  39.3270 C.3            1 <1>                0.0000
      2 C2          28.8508  36.3583  39.5028 C.ar           1 <1>                0.0000
      3 C3          28.1170  36.8240  38.4267 C.ar           1 <1>                0.0000
      4 C4          26.7820  37.1460  38.5833 C.ar           1 <1>                0.0000
      5 C5          26.1733  37.0041  39.8166 C.ar           1 <1>                0.0000
      6 C6          26.9027  36.5377  40.8999 C.ar           1 <1>                0.0000
      7 N7          26.2888  36.3932  42.1494 N.pl3          1 <1>                0.0000
      8 C8          28.2474  36.2083  40.7399 C.ar           1 <1>                0.0000
      9 O9          28.9678  35.7505  41.7987 O.3            1 <1>                0.0000
     10 H10         30.9179  36.8883  39.5242 H              1 <1>                0.0000
     11 H11         30.5755  35.2146  40.0242 H              1 <1>                0.0000
     12 H12         30.4771  35.6680  38.3057 H              1 <1>                0.0000
     13 H13         28.5885  36.9368  37.4616 H              1 <1>                0.0000
     14 H14         26.2131  37.5096  37.7404 H              1 <1>                0.0000
     15 H15         25.1301  37.2567  39.9363 H              1 <1>                0.0000
     16 H16         25.3519  36.6194  42.2585 H              1 <1>                0.0000
     17 H17         26.8003  36.0669  42.9063 H              1 <1>                0.0000
     18 H18         29.9222  35.7289  41.6452 H              1 <1>                0.0000
@<TRIPOS>BOND
    1    1    2 1     
    2    1   10 1     
    3    1   11 1     
    4    1   12 1     
    5    2    3 ar    
    6    2    8 ar    
    7    3    4 ar    
    8    3   13 1     
    9    4    5 ar    
   10    4   14 1     
   11    5    6 ar    
   12    5   15 1     
   13    6    7 1     
   14    6    8 ar    
   15    7   16 1     
   16    7   17 1     
   17    8    9 1     
   18    9   18 1     
@<TRIPOS>SUBSTRUCTURE
      1 ****           1
@<TRIPOS>SET
DONOR_HYDROGENS      STATIC     ATOMS    <user>   **** ""
3 16 17 18
ATOM$RED        STATIC     ATOMS    COLORGROUP SYSTEM
3 16 17 18
@<TRIPOS>COMMENT
> <Gold.Version>
2022.2.0

> <Gold.Id.Protein>
1qkm|1qkm_protein|mol2

> <Gold.Protein.RotatedTorsions>
[  496  491  490  487 ] final  171.67 input  -89.99 | X-H torsion

> <Gold.Protein.ActiveResidues>
 MET295  LEU298  THR299  LEU301  ALA302  GLU305  TRP335  MET336  LEU339  MET340 
 GLY342  LEU343  ARG346  PHE356  ILE373  ILE376  PHE377  LEU380  LYS471  GLY472 
 MET473  HIS475  LEU476  LEU477  ASN478  MET479  VAL484  VAL487 

> <Gold.Protein.RotatedAtoms>
   37.3168   33.3474   40.9431 H   0  0  0  0  0  0  0  0  0  0  0  0  # atno 496  bound_to 491 

> <Gold.Score>
     Score     S(PLP)   S(hbond)     S(cho)   S(metal)  DE(clash)   DE(tors)     intcor
     37.75     -33.82       1.31       0.00       0.00       0.00       0.00       0.00

> <Gold.PLP.Fitness>
37.7496

> <Gold.PLP.PLP>
-33.8158

> <Gold.PLP.part.hbond>
-1.8430

> <Gold.PLP.part.metal>
0.0000

> <Gold.PLP.part.buried>
-3.7482

> <Gold.PLP.part.nonpolar>
-28.8456

> <Gold.PLP.part.repulsive>
0.0768

> <Gold.PLP.ligand.clash>
0.0000

> <Gold.PLP.ligand.torsion>
0.0000

> <Gold.PLP.Chemscore.Hbond>
1.3113

> <Gold.PLP.Chemscore.CHOScore>
0.0000

> <Gold.PLP.Chemscore.Metal>
0.0000

> <Gold.Chemscore.Hbonds>
donor molecule, donor type, donor heavy atom, donor atom, acceptor molecule, acceptor atom, score
      L1  H     7    17       P1   582  0.32
      L1  H     9    18       P1   470  0.99

> <Gold.PLP.Chemscore.Internal.Correction>
0.0000

