#       Name:                EN300-78391_i001
#       Creating user name   aseyller
#       Creation time:       Fri Apr 21 16:25:53 2023


#       File generated by GOLD software.
#

@<TRIPOS>MOLECULE
EN300-78391_i001|aminophenols|mol2|13|dock14
    18    18     1
SMALL
USER_CHARGES


@<TRIPOS>ATOM
      1 C1          31.8044  33.4098  38.7172 C.3            1 <1>                0.0000
      2 C2          31.7319  34.7690  38.0705 C.ar           1 <1>                0.0000
      3 C3          32.4918  35.0416  36.9472 C.ar           1 <1>                0.0000
      4 C4          32.4281  36.2867  36.3506 C.ar           1 <1>                0.0000
      5 C5          31.6042  37.2662  36.8736 C.ar           1 <1>                0.0000
      6 C6          30.8395  37.0002  37.9994 C.ar           1 <1>                0.0000
      7 N7          30.0048  37.9901  38.5308 N.pl3          1 <1>                0.0000
      8 C8          30.9004  35.7428  38.5973 C.ar           1 <1>                0.0000
      9 O9          30.1528  35.4761  39.7016 O.3            1 <1>                0.0000
     10 H10         32.5905  33.4082  39.4723 H              1 <1>                0.0000
     11 H11         30.8483  33.1798  39.1875 H              1 <1>                0.0000
     12 H12         32.0268  32.6583  37.9597 H              1 <1>                0.0000
     13 H13         33.1370  34.2795  36.5355 H              1 <1>                0.0000
     14 H14         33.0235  36.4951  35.4739 H              1 <1>                0.0000
     15 H15         31.5566  38.2384  36.4056 H              1 <1>                0.0000
     16 H16         29.9607  38.8636  38.1115 H              1 <1>                0.0000
     17 H17         29.4705  37.8026  39.3184 H              1 <1>                0.0000
     18 H18         30.6182  35.6225  40.5365 H              1 <1>                0.0000
@<TRIPOS>BOND
    1    1    2 1     
    2    1   10 1     
    3    1   11 1     
    4    1   12 1     
    5    2    3 ar    
    6    2    8 ar    
    7    3    4 ar    
    8    3   13 1     
    9    4    5 ar    
   10    4   14 1     
   11    5    6 ar    
   12    5   15 1     
   13    6    7 1     
   14    6    8 ar    
   15    7   16 1     
   16    7   17 1     
   17    8    9 1     
   18    9   18 1     
@<TRIPOS>SUBSTRUCTURE
      1 ****           1
@<TRIPOS>SET
DONOR_HYDROGENS      STATIC     ATOMS    <user>   **** ""
3 16 17 18
ATOM$RED        STATIC     ATOMS    COLORGROUP SYSTEM
3 16 17 18
@<TRIPOS>COMMENT
> <Gold.Version>
2022.2.0

> <Gold.Id.Protein>
1qkm|1qkm_protein|mol2

> <Gold.Protein.RotatedTorsions>
[  496  491  490  487 ] final -102.29 input  -89.99 | X-H torsion

> <Gold.Protein.ActiveResidues>
 MET295  LEU298  THR299  LEU301  ALA302  GLU305  TRP335  MET336  LEU339  MET340 
 GLY342  LEU343  ARG346  PHE356  ILE373  ILE376  PHE377  LEU380  LYS471  GLY472 
 MET473  HIS475  LEU476  LEU477  ASN478  MET479  VAL484  VAL487 

> <Gold.Protein.RotatedAtoms>
   36.8706   34.5546   40.9444 H   0  0  0  0  0  0  0  0  0  0  0  0  # atno 496  bound_to 491 

> <Gold.Score>
     Score     S(PLP)   S(hbond)     S(cho)   S(metal)  DE(clash)   DE(tors)     intcor
     32.46     -29.46       1.00       0.00       0.00       0.00       0.00       0.00

> <Gold.PLP.Fitness>
32.4554

> <Gold.PLP.PLP>
-29.4554

> <Gold.PLP.part.hbond>
-1.0000

> <Gold.PLP.part.metal>
0.0000

> <Gold.PLP.part.buried>
-2.6978

> <Gold.PLP.part.nonpolar>
-26.1579

> <Gold.PLP.part.repulsive>
0.0000

> <Gold.PLP.ligand.clash>
0.0000

> <Gold.PLP.ligand.torsion>
0.0000

> <Gold.PLP.Chemscore.Hbond>
1.0000

> <Gold.PLP.Chemscore.CHOScore>
0.0000

> <Gold.PLP.Chemscore.Metal>
0.0000

> <Gold.Chemscore.Hbonds>
donor molecule, donor type, donor heavy atom, donor atom, acceptor molecule, acceptor atom, score
      L1  H     9    18       P1   470  1.00

> <Gold.PLP.Chemscore.Internal.Correction>
0.0000

