#       Name:                EN300-78391_i001
#       Creating user name   aseyller
#       Creation time:       Fri Apr 21 16:25:51 2023


#       File generated by GOLD software.
#

@<TRIPOS>MOLECULE
EN300-78391_i001|aminophenols|mol2|13|dock6
    18    18     1
SMALL
USER_CHARGES


@<TRIPOS>ATOM
      1 C1          25.0603  36.8652  41.3554 C.3            1 <1>                0.0000
      2 C2          26.2154  36.9148  40.3888 C.ar           1 <1>                0.0000
      3 C3          26.0174  37.3703  39.0978 C.ar           1 <1>                0.0000
      4 C4          27.0741  37.4179  38.2081 C.ar           1 <1>                0.0000
      5 C5          28.3346  37.0105  38.6043 C.ar           1 <1>                0.0000
      6 C6          28.5406  36.5527  39.8970 C.ar           1 <1>                0.0000
      7 N7          29.8156  36.1396  40.3004 N.pl3          1 <1>                0.0000
      8 C8          27.4757  36.5099  40.7950 C.ar           1 <1>                0.0000
      9 O9          27.6717  36.0619  42.0640 O.3            1 <1>                0.0000
     10 H10         24.5678  35.8955  41.2835 H              1 <1>                0.0000
     11 H11         25.4296  37.0107  42.3706 H              1 <1>                0.0000
     12 H12         24.3482  37.6534  41.1114 H              1 <1>                0.0000
     13 H13         25.0345  37.6892  38.7839 H              1 <1>                0.0000
     14 H14         26.9148  37.7739  37.2010 H              1 <1>                0.0000
     15 H15         29.1585  37.0484  37.9069 H              1 <1>                0.0000
     16 H16         30.5566  36.1734  39.6754 H              1 <1>                0.0000
     17 H17         29.9582  35.8196  41.2049 H              1 <1>                0.0000
     18 H18         26.9917  35.4481  42.3739 H              1 <1>                0.0000
@<TRIPOS>BOND
    1    1    2 1     
    2    1   10 1     
    3    1   11 1     
    4    1   12 1     
    5    2    3 ar    
    6    2    8 ar    
    7    3    4 ar    
    8    3   13 1     
    9    4    5 ar    
   10    4   14 1     
   11    5    6 ar    
   12    5   15 1     
   13    6    7 1     
   14    6    8 ar    
   15    7   16 1     
   16    7   17 1     
   17    8    9 1     
   18    9   18 1     
@<TRIPOS>SUBSTRUCTURE
      1 ****           1
@<TRIPOS>SET
DONOR_HYDROGENS      STATIC     ATOMS    <user>   **** ""
3 16 17 18
ATOM$RED        STATIC     ATOMS    COLORGROUP SYSTEM
3 16 17 18
@<TRIPOS>COMMENT
> <Gold.Version>
2022.2.0

> <Gold.Id.Protein>
1qkm|1qkm_protein|mol2

> <Gold.Protein.RotatedTorsions>
[  496  491  490  487 ] final   80.80 input  -89.99 | X-H torsion

> <Gold.Protein.ActiveResidues>
 MET295  LEU298  THR299  LEU301  ALA302  GLU305  TRP335  MET336  LEU339  MET340 
 GLY342  LEU343  ARG346  PHE356  ILE373  ILE376  PHE377  LEU380  LYS471  GLY472 
 MET473  HIS475  LEU476  LEU477  ASN478  MET479  VAL484  VAL487 

> <Gold.Protein.RotatedAtoms>
   36.7353   33.0925   42.1275 H   0  0  0  0  0  0  0  0  0  0  0  0  # atno 496  bound_to 491 

> <Gold.Score>
     Score     S(PLP)   S(hbond)     S(cho)   S(metal)  DE(clash)   DE(tors)     intcor
     36.86     -32.77       1.36       0.00       0.00       0.00       0.00       0.00

> <Gold.PLP.Fitness>
36.8647

> <Gold.PLP.PLP>
-32.7727

> <Gold.PLP.part.hbond>
-2.0000

> <Gold.PLP.part.metal>
0.0000

> <Gold.PLP.part.buried>
-0.3751

> <Gold.PLP.part.nonpolar>
-30.7191

> <Gold.PLP.part.repulsive>
0.0523

> <Gold.PLP.ligand.clash>
0.0000

> <Gold.PLP.ligand.torsion>
0.0000

> <Gold.PLP.Chemscore.Hbond>
1.3640

> <Gold.PLP.Chemscore.CHOScore>
0.0000

> <Gold.PLP.Chemscore.Metal>
0.0000

> <Gold.Chemscore.Hbonds>
donor molecule, donor type, donor heavy atom, donor atom, acceptor molecule, acceptor atom, score
      L1  H     7    17       P1   470  0.36
      L1  H     9    18       P1   582  1.00

> <Gold.PLP.Chemscore.Internal.Correction>
0.0000

