#       Name:                EN300-78391_i001
#       Creating user name   aseyller
#       Creation time:       Fri Apr 21 16:25:52 2023


#       File generated by GOLD software.
#

@<TRIPOS>MOLECULE
EN300-78391_i001|aminophenols|mol2|13|dock12
    18    18     1
SMALL
USER_CHARGES


@<TRIPOS>ATOM
      1 C1          29.8637  36.9865  36.9925 C.3            1 <1>                0.0000
      2 C2          28.9024  36.8401  38.1439 C.ar           1 <1>                0.0000
      3 C3          27.5686  37.1664  37.9767 C.ar           1 <1>                0.0000
      4 C4          26.6835  37.0332  39.0299 C.ar           1 <1>                0.0000
      5 C5          27.1268  36.5730  40.2560 C.ar           1 <1>                0.0000
      6 C6          28.4626  36.2439  40.4309 C.ar           1 <1>                0.0000
      7 N7          28.9138  35.7778  41.6711 N.pl3          1 <1>                0.0000
      8 C8          29.3534  36.3735  39.3670 C.ar           1 <1>                0.0000
      9 O9          30.6645  36.0523  39.5327 O.3            1 <1>                0.0000
     10 H10         30.2954  37.9872  37.0048 H              1 <1>                0.0000
     11 H11         30.6587  36.2467  37.0867 H              1 <1>                0.0000
     12 H12         29.3323  36.8314  36.0536 H              1 <1>                0.0000
     13 H13         27.2180  37.5267  37.0208 H              1 <1>                0.0000
     14 H14         25.6431  37.2896  38.8948 H              1 <1>                0.0000
     15 H15         26.4331  36.4702  41.0773 H              1 <1>                0.0000
     16 H16         28.2920  35.6846  42.4097 H              1 <1>                0.0000
     17 H17         29.8485  35.5480  41.7921 H              1 <1>                0.0000
     18 H18         30.8554  35.5943  40.3628 H              1 <1>                0.0000
@<TRIPOS>BOND
    1    1    2 1     
    2    1   10 1     
    3    1   11 1     
    4    1   12 1     
    5    2    3 ar    
    6    2    8 ar    
    7    3    4 ar    
    8    3   13 1     
    9    4    5 ar    
   10    4   14 1     
   11    5    6 ar    
   12    5   15 1     
   13    6    7 1     
   14    6    8 ar    
   15    7   16 1     
   16    7   17 1     
   17    8    9 1     
   18    9   18 1     
@<TRIPOS>SUBSTRUCTURE
      1 ****           1
@<TRIPOS>SET
DONOR_HYDROGENS      STATIC     ATOMS    <user>   **** ""
3 16 17 18
ATOM$RED        STATIC     ATOMS    COLORGROUP SYSTEM
3 16 17 18
@<TRIPOS>COMMENT
> <Gold.Version>
2022.2.0

> <Gold.Id.Protein>
1qkm|1qkm_protein|mol2

> <Gold.Protein.RotatedTorsions>
[  496  491  490  487 ] final  164.51 input  -89.99 | X-H torsion

> <Gold.Protein.ActiveResidues>
 MET295  LEU298  THR299  LEU301  ALA302  GLU305  TRP335  MET336  LEU339  MET340 
 GLY342  LEU343  ARG346  PHE356  ILE373  ILE376  PHE377  LEU380  LYS471  GLY472 
 MET473  HIS475  LEU476  LEU477  ASN478  MET479  VAL484  VAL487 

> <Gold.Protein.RotatedAtoms>
   37.3070   33.2575   41.0184 H   0  0  0  0  0  0  0  0  0  0  0  0  # atno 496  bound_to 491 

> <Gold.Score>
     Score     S(PLP)   S(hbond)     S(cho)   S(metal)  DE(clash)   DE(tors)     intcor
     34.64     -28.64       2.00       0.00       0.00       0.00       0.00       0.00

> <Gold.PLP.Fitness>
34.6389

> <Gold.PLP.PLP>
-28.6389

> <Gold.PLP.part.hbond>
-2.0000

> <Gold.PLP.part.metal>
0.0000

> <Gold.PLP.part.buried>
-1.5423

> <Gold.PLP.part.nonpolar>
-25.6103

> <Gold.PLP.part.repulsive>
0.0838

> <Gold.PLP.ligand.clash>
0.0000

> <Gold.PLP.ligand.torsion>
0.0000

> <Gold.PLP.Chemscore.Hbond>
2.0000

> <Gold.PLP.Chemscore.CHOScore>
0.0000

> <Gold.PLP.Chemscore.Metal>
0.0000

> <Gold.Chemscore.Hbonds>
donor molecule, donor type, donor heavy atom, donor atom, acceptor molecule, acceptor atom, score
      L1  H     7    17       P1   470  1.00
      L1  H     9    18       P1   470  1.00

> <Gold.PLP.Chemscore.Internal.Correction>
0.0000

