#       Name:                EN300-78391_i001
#       Creating user name   aseyller
#       Creation time:       Fri Apr 21 16:25:54 2023


#       File generated by GOLD software.
#

@<TRIPOS>MOLECULE
EN300-78391_i001|aminophenols|mol2|13|dock17
    18    18     1
SMALL
USER_CHARGES


@<TRIPOS>ATOM
      1 C1          25.2941  36.9966  41.5142 C.3            1 <1>                0.0000
      2 C2          26.6104  36.8150  40.8031 C.ar           1 <1>                0.0000
      3 C3          27.7070  36.3288  41.4920 C.ar           1 <1>                0.0000
      4 C4          28.9160  36.1603  40.8437 C.ar           1 <1>                0.0000
      5 C5          29.0353  36.4766  39.5030 C.ar           1 <1>                0.0000
      6 C6          27.9401  36.9644  38.8059 C.ar           1 <1>                0.0000
      7 N7          28.0584  37.2855  37.4488 N.pl3          1 <1>                0.0000
      8 C8          26.7202  37.1292  39.4591 C.ar           1 <1>                0.0000
      9 O9          25.6427  37.6072  38.7806 O.3            1 <1>                0.0000
     10 H10         25.2448  38.0003  41.9363 H              1 <1>                0.0000
     11 H11         24.4768  36.8596  40.8062 H              1 <1>                0.0000
     12 H12         25.2089  36.2614  42.3143 H              1 <1>                0.0000
     13 H13         27.6184  36.0808  42.5394 H              1 <1>                0.0000
     14 H14         29.7695  35.7808  41.3857 H              1 <1>                0.0000
     15 H15         29.9812  36.3443  38.9989 H              1 <1>                0.0000
     16 H16         28.9072  37.1669  36.9945 H              1 <1>                0.0000
     17 H17         27.2915  37.6266  36.9624 H              1 <1>                0.0000
     18 H18         25.7721  37.6597  37.8238 H              1 <1>                0.0000
@<TRIPOS>BOND
    1    1    2 1     
    2    1   10 1     
    3    1   11 1     
    4    1   12 1     
    5    2    3 ar    
    6    2    8 ar    
    7    3    4 ar    
    8    3   13 1     
    9    4    5 ar    
   10    4   14 1     
   11    5    6 ar    
   12    5   15 1     
   13    6    7 1     
   14    6    8 ar    
   15    7   16 1     
   16    7   17 1     
   17    8    9 1     
   18    9   18 1     
@<TRIPOS>SUBSTRUCTURE
      1 ****           1
@<TRIPOS>SET
DONOR_HYDROGENS      STATIC     ATOMS    <user>   **** ""
3 16 17 18
ATOM$RED        STATIC     ATOMS    COLORGROUP SYSTEM
3 16 17 18
@<TRIPOS>COMMENT
> <Gold.Version>
2022.2.0

> <Gold.Id.Protein>
1qkm|1qkm_protein|mol2

> <Gold.Protein.RotatedTorsions>
[  496  491  490  487 ] final   40.46 input  -89.99 | X-H torsion

> <Gold.Protein.ActiveResidues>
 MET295  LEU298  THR299  LEU301  ALA302  GLU305  TRP335  MET336  LEU339  MET340 
 GLY342  LEU343  ARG346  PHE356  ILE373  ILE376  PHE377  LEU380  LYS471  GLY472 
 MET473  HIS475  LEU476  LEU477  ASN478  MET479  VAL484  VAL487 

> <Gold.Protein.RotatedAtoms>
   36.4066   33.5945   42.3790 H   0  0  0  0  0  0  0  0  0  0  0  0  # atno 496  bound_to 491 

> <Gold.Score>
     Score     S(PLP)   S(hbond)     S(cho)   S(metal)  DE(clash)   DE(tors)     intcor
     30.73     -30.73       0.00       0.00       0.00       0.00       0.00       0.00

> <Gold.PLP.Fitness>
30.7334

> <Gold.PLP.PLP>
-30.7334

> <Gold.PLP.part.hbond>
0.0000

> <Gold.PLP.part.metal>
0.0000

> <Gold.PLP.part.buried>
-0.8023

> <Gold.PLP.part.nonpolar>
-30.5427

> <Gold.PLP.part.repulsive>
0.0000

> <Gold.PLP.ligand.clash>
0.0000

> <Gold.PLP.ligand.torsion>
0.0000

> <Gold.PLP.Chemscore.Hbond>
0.0000

> <Gold.PLP.Chemscore.CHOScore>
0.0000

> <Gold.PLP.Chemscore.Metal>
0.0000

> <Gold.PLP.Chemscore.Internal.Correction>
0.0000

