#       Name:                EN300-78391_i001
#       Creating user name   aseyller
#       Creation time:       Fri Apr 21 16:25:54 2023


#       File generated by GOLD software.
#

@<TRIPOS>MOLECULE
EN300-78391_i001|aminophenols|mol2|13|dock15
    18    18     1
SMALL
USER_CHARGES


@<TRIPOS>ATOM
      1 C1          28.5098  35.9664  42.0995 C.3            1 <1>                0.0000
      2 C2          28.0339  36.3432  40.7201 C.ar           1 <1>                0.0000
      3 C3          26.6880  36.5642  40.4895 C.ar           1 <1>                0.0000
      4 C4          26.2472  36.9104  39.2260 C.ar           1 <1>                0.0000
      5 C5          27.1496  37.0377  38.1862 C.ar           1 <1>                0.0000
      6 C6          28.5004  36.8177  38.4100 C.ar           1 <1>                0.0000
      7 N7          29.4158  36.9459  37.3590 N.pl3          1 <1>                0.0000
      8 C8          28.9446  36.4738  39.6853 C.ar           1 <1>                0.0000
      9 O9          30.2681  36.2569  39.9108 O.3            1 <1>                0.0000
     10 H10         28.5006  34.8815  42.2031 H              1 <1>                0.0000
     11 H11         29.5241  36.3370  42.2476 H              1 <1>                0.0000
     12 H12         27.8489  36.4083  42.8451 H              1 <1>                0.0000
     13 H13         25.9795  36.4655  41.2987 H              1 <1>                0.0000
     14 H14         25.1954  37.0816  39.0506 H              1 <1>                0.0000
     15 H15         26.8024  37.3079  37.1998 H              1 <1>                0.0000
     16 H16         29.1056  37.1889  36.4726 H              1 <1>                0.0000
     17 H17         30.3603  36.7917  37.5170 H              1 <1>                0.0000
     18 H18         30.4509  35.7194  40.6936 H              1 <1>                0.0000
@<TRIPOS>BOND
    1    1    2 1     
    2    1   10 1     
    3    1   11 1     
    4    1   12 1     
    5    2    3 ar    
    6    2    8 ar    
    7    3    4 ar    
    8    3   13 1     
    9    4    5 ar    
   10    4   14 1     
   11    5    6 ar    
   12    5   15 1     
   13    6    7 1     
   14    6    8 ar    
   15    7   16 1     
   16    7   17 1     
   17    8    9 1     
   18    9   18 1     
@<TRIPOS>SUBSTRUCTURE
      1 ****           1
@<TRIPOS>SET
DONOR_HYDROGENS      STATIC     ATOMS    <user>   **** ""
3 16 17 18
ATOM$RED        STATIC     ATOMS    COLORGROUP SYSTEM
3 16 17 18
@<TRIPOS>COMMENT
> <Gold.Version>
2022.2.0

> <Gold.Id.Protein>
1qkm|1qkm_protein|mol2

> <Gold.Protein.RotatedTorsions>
[  496  491  490  487 ] final   65.06 input  -89.99 | X-H torsion

> <Gold.Protein.ActiveResidues>
 MET295  LEU298  THR299  LEU301  ALA302  GLU305  TRP335  MET336  LEU339  MET340 
 GLY342  LEU343  ARG346  PHE356  ILE373  ILE376  PHE377  LEU380  LYS471  GLY472 
 MET473  HIS475  LEU476  LEU477  ASN478  MET479  VAL484  VAL487 

> <Gold.Protein.RotatedAtoms>
   36.5942   33.2566   42.2687 H   0  0  0  0  0  0  0  0  0  0  0  0  # atno 496  bound_to 491 

> <Gold.Score>
     Score     S(PLP)   S(hbond)     S(cho)   S(metal)  DE(clash)   DE(tors)     intcor
     34.84     -32.03       0.94       0.00       0.00       0.00       0.00       0.00

> <Gold.PLP.Fitness>
34.8365

> <Gold.PLP.PLP>
-32.0293

> <Gold.PLP.part.hbond>
-1.0000

> <Gold.PLP.part.metal>
0.0000

> <Gold.PLP.part.buried>
-1.4400

> <Gold.PLP.part.nonpolar>
-28.9468

> <Gold.PLP.part.repulsive>
0.0000

> <Gold.PLP.ligand.clash>
0.0000

> <Gold.PLP.ligand.torsion>
0.0000

> <Gold.PLP.Chemscore.Hbond>
0.9357

> <Gold.PLP.Chemscore.CHOScore>
0.0000

> <Gold.PLP.Chemscore.Metal>
0.0000

> <Gold.Chemscore.Hbonds>
donor molecule, donor type, donor heavy atom, donor atom, acceptor molecule, acceptor atom, score
      L1  H     9    18       P1   470  0.94

> <Gold.PLP.Chemscore.Internal.Correction>
0.0000

