#       Name:                EN300-78391_i001
#       Creating user name   aseyller
#       Creation time:       Fri Apr 21 16:25:55 2023


#       File generated by GOLD software.
#

@<TRIPOS>MOLECULE
EN300-78391_i001|aminophenols|mol2|13|dock19
    18    18     1
SMALL
USER_CHARGES


@<TRIPOS>ATOM
      1 C1          25.5133  37.4442  38.8045 C.3            1 <1>                0.0000
      2 C2          27.0128  37.2930  38.7988 C.ar           1 <1>                0.0000
      3 C3          27.7572  37.8249  37.7613 C.ar           1 <1>                0.0000
      4 C4          29.1327  37.6889  37.7522 C.ar           1 <1>                0.0000
      5 C5          29.7714  37.0206  38.7803 C.ar           1 <1>                0.0000
      6 C6          29.0316  36.4848  39.8237 C.ar           1 <1>                0.0000
      7 N7          29.6759  35.8078  40.8656 N.pl3          1 <1>                0.0000
      8 C8          27.6453  36.6269  39.8348 C.ar           1 <1>                0.0000
      9 O9          26.9144  36.1035  40.8554 O.3            1 <1>                0.0000
     10 H10         25.0609  36.5977  38.2881 H              1 <1>                0.0000
     11 H11         25.1553  37.4755  39.8336 H              1 <1>                0.0000
     12 H12         25.2394  38.3686  38.2962 H              1 <1>                0.0000
     13 H13         27.2624  38.3474  36.9559 H              1 <1>                0.0000
     14 H14         29.7097  38.1055  36.9400 H              1 <1>                0.0000
     15 H15         30.8463  36.9156  38.7706 H              1 <1>                0.0000
     16 H16         30.6412  35.7128  40.8585 H              1 <1>                0.0000
     17 H17         29.1571  35.4335  41.5948 H              1 <1>                0.0000
     18 H18         25.9890  36.3839  40.8606 H              1 <1>                0.0000
@<TRIPOS>BOND
    1    1    2 1     
    2    1   10 1     
    3    1   11 1     
    4    1   12 1     
    5    2    3 ar    
    6    2    8 ar    
    7    3    4 ar    
    8    3   13 1     
    9    4    5 ar    
   10    4   14 1     
   11    5    6 ar    
   12    5   15 1     
   13    6    7 1     
   14    6    8 ar    
   15    7   16 1     
   16    7   17 1     
   17    8    9 1     
   18    9   18 1     
@<TRIPOS>SUBSTRUCTURE
      1 ****           1
@<TRIPOS>SET
DONOR_HYDROGENS      STATIC     ATOMS    <user>   **** ""
3 16 17 18
ATOM$RED        STATIC     ATOMS    COLORGROUP SYSTEM
3 16 17 18
@<TRIPOS>COMMENT
> <Gold.Version>
2022.2.0

> <Gold.Id.Protein>
1qkm|1qkm_protein|mol2

> <Gold.Protein.RotatedTorsions>
[  496  491  490  487 ] final -142.03 input  -89.99 | X-H torsion

> <Gold.Protein.ActiveResidues>
 MET295  LEU298  THR299  LEU301  ALA302  GLU305  TRP335  MET336  LEU339  MET340 
 GLY342  LEU343  ARG346  PHE356  ILE373  ILE376  PHE377  LEU380  LYS471  GLY472 
 MET473  HIS475  LEU476  LEU477  ASN478  MET479  VAL484  VAL487 

> <Gold.Protein.RotatedAtoms>
   37.1865   34.0430   40.7216 H   0  0  0  0  0  0  0  0  0  0  0  0  # atno 496  bound_to 491 

> <Gold.Score>
     Score     S(PLP)   S(hbond)     S(cho)   S(metal)  DE(clash)   DE(tors)     intcor
     31.46     -29.45       0.67       0.00       0.00       0.00       0.00       0.00

> <Gold.PLP.Fitness>
31.4645

> <Gold.PLP.PLP>
-29.4485

> <Gold.PLP.part.hbond>
-1.0000

> <Gold.PLP.part.metal>
0.0000

> <Gold.PLP.part.buried>
-3.1507

> <Gold.PLP.part.nonpolar>
-25.8247

> <Gold.PLP.part.repulsive>
0.0903

> <Gold.PLP.ligand.clash>
0.0000

> <Gold.PLP.ligand.torsion>
0.0000

> <Gold.PLP.Chemscore.Hbond>
0.6720

> <Gold.PLP.Chemscore.CHOScore>
0.0000

> <Gold.PLP.Chemscore.Metal>
0.0000

> <Gold.Chemscore.Hbonds>
donor molecule, donor type, donor heavy atom, donor atom, acceptor molecule, acceptor atom, score
      L1  H     7    16       P1   470  0.67

> <Gold.PLP.Chemscore.Internal.Correction>
0.0000

