#       Name:                EN300-78391_i001
#       Creating user name   aseyller
#       Creation time:       Fri Apr 21 16:25:51 2023


#       File generated by GOLD software.
#

@<TRIPOS>MOLECULE
EN300-78391_i001|aminophenols|mol2|13|dock9
    18    18     1
SMALL
USER_CHARGES


@<TRIPOS>ATOM
      1 C1          29.5210  36.6860  41.2222 C.3            1 <1>                0.0000
      2 C2          28.2096  36.7008  40.4799 C.ar           1 <1>                0.0000
      3 C3          28.1982  36.7245  39.0969 C.ar           1 <1>                0.0000
      4 C4          26.9977  36.7378  38.4120 C.ar           1 <1>                0.0000
      5 C5          25.8019  36.7272  39.1061 C.ar           1 <1>                0.0000
      6 C6          25.8056  36.7034  40.4926 C.ar           1 <1>                0.0000
      7 N7          24.5964  36.6927  41.1975 N.pl3          1 <1>                0.0000
      8 C8          27.0164  36.6848  41.1823 C.ar           1 <1>                0.0000
      9 O9          27.0262  36.6615  42.5421 O.3            1 <1>                0.0000
     10 H10         29.8387  37.7100  41.4189 H              1 <1>                0.0000
     11 H11         29.3979  36.1561  42.1668 H              1 <1>                0.0000
     12 H12         30.2749  36.1814  40.6181 H              1 <1>                0.0000
     13 H13         29.1299  36.7332  38.5507 H              1 <1>                0.0000
     14 H14         26.9938  36.7566  37.3322 H              1 <1>                0.0000
     15 H15         24.8653  36.7379  38.5685 H              1 <1>                0.0000
     16 H16         23.7544  36.7019  40.7161 H              1 <1>                0.0000
     17 H17         24.6005  36.6761  42.1674 H              1 <1>                0.0000
     18 H18         26.7341  35.8221  42.9231 H              1 <1>                0.0000
@<TRIPOS>BOND
    1    1    2 1     
    2    1   10 1     
    3    1   11 1     
    4    1   12 1     
    5    2    3 ar    
    6    2    8 ar    
    7    3    4 ar    
    8    3   13 1     
    9    4    5 ar    
   10    4   14 1     
   11    5    6 ar    
   12    5   15 1     
   13    6    7 1     
   14    6    8 ar    
   15    7   16 1     
   16    7   17 1     
   17    8    9 1     
   18    9   18 1     
@<TRIPOS>SUBSTRUCTURE
      1 ****           1
@<TRIPOS>SET
DONOR_HYDROGENS      STATIC     ATOMS    <user>   **** ""
3 16 17 18
ATOM$RED        STATIC     ATOMS    COLORGROUP SYSTEM
3 16 17 18
@<TRIPOS>COMMENT
> <Gold.Version>
2022.2.0

> <Gold.Id.Protein>
1qkm|1qkm_protein|mol2

> <Gold.Protein.RotatedTorsions>
[  496  491  490  487 ] final  134.04 input  -89.99 | X-H torsion

> <Gold.Protein.ActiveResidues>
 MET295  LEU298  THR299  LEU301  ALA302  GLU305  TRP335  MET336  LEU339  MET340 
 GLY342  LEU343  ARG346  PHE356  ILE373  ILE376  PHE377  LEU380  LYS471  GLY472 
 MET473  HIS475  LEU476  LEU477  ASN478  MET479  VAL484  VAL487 

> <Gold.Protein.RotatedAtoms>
   37.1792   32.9899   41.4156 H   0  0  0  0  0  0  0  0  0  0  0  0  # atno 496  bound_to 491 

> <Gold.Score>
     Score     S(PLP)   S(hbond)     S(cho)   S(metal)  DE(clash)   DE(tors)     intcor
     36.84     -30.84       2.00       0.00       0.00       0.00       0.00       0.00

> <Gold.PLP.Fitness>
36.8406

> <Gold.PLP.PLP>
-30.8406

> <Gold.PLP.part.hbond>
-2.0000

> <Gold.PLP.part.metal>
0.0000

> <Gold.PLP.part.buried>
0.7462

> <Gold.PLP.part.nonpolar>
-30.7373

> <Gold.PLP.part.repulsive>
1.6047

> <Gold.PLP.ligand.clash>
0.0000

> <Gold.PLP.ligand.torsion>
0.0000

> <Gold.PLP.Chemscore.Hbond>
2.0000

> <Gold.PLP.Chemscore.CHOScore>
0.0000

> <Gold.PLP.Chemscore.Metal>
0.0000

> <Gold.Chemscore.Hbonds>
donor molecule, donor type, donor heavy atom, donor atom, acceptor molecule, acceptor atom, score
      L1  H     7    16       P1  1131  1.00
      L1  H     9    18       P1   582  1.00

> <Gold.PLP.Chemscore.Internal.Correction>
0.0000

