#       Name:                EN300-78391_i001
#       Creating user name   aseyller
#       Creation time:       Fri Apr 21 16:25:49 2023


#       File generated by GOLD software.
#

@<TRIPOS>MOLECULE
EN300-78391_i001|aminophenols|mol2|13|dock2
    18    18     1
SMALL
USER_CHARGES


@<TRIPOS>ATOM
      1 C1          25.5042  37.3004  39.1053 C.3            1 <1>                0.0000
      2 C2          26.9523  36.9635  39.3520 C.ar           1 <1>                0.0000
      3 C3          27.8729  37.0765  38.3258 C.ar           1 <1>                0.0000
      4 C4          29.2020  36.7689  38.5478 C.ar           1 <1>                0.0000
      5 C5          29.6181  36.3468  39.7970 C.ar           1 <1>                0.0000
      6 C6          28.7007  36.2312  40.8305 C.ar           1 <1>                0.0000
      7 N7          29.1194  35.8040  42.0959 N.pl3          1 <1>                0.0000
      8 C8          27.3617  36.5465  40.6072 C.ar           1 <1>                0.0000
      9 O9          26.4575  36.4350  41.6170 O.3            1 <1>                0.0000
     10 H10         24.9743  36.4066  38.7762 H              1 <1>                0.0000
     11 H11         25.0552  37.6704  40.0270 H              1 <1>                0.0000
     12 H12         25.4360  38.0678  38.3343 H              1 <1>                0.0000
     13 H13         27.5523  37.4055  37.3483 H              1 <1>                0.0000
     14 H14         29.9172  36.8583  37.7435 H              1 <1>                0.0000
     15 H15         30.6572  36.1068  39.9676 H              1 <1>                0.0000
     16 H16         30.0523  35.5884  42.2509 H              1 <1>                0.0000
     17 H17         28.4766  35.7236  42.8179 H              1 <1>                0.0000
     18 H18         26.5999  35.6688  42.1896 H              1 <1>                0.0000
@<TRIPOS>BOND
    1    1    2 1     
    2    1   10 1     
    3    1   11 1     
    4    1   12 1     
    5    2    3 ar    
    6    2    8 ar    
    7    3    4 ar    
    8    3   13 1     
    9    4    5 ar    
   10    4   14 1     
   11    5    6 ar    
   12    5   15 1     
   13    6    7 1     
   14    6    8 ar    
   15    7   16 1     
   16    7   17 1     
   17    8    9 1     
   18    9   18 1     
@<TRIPOS>SUBSTRUCTURE
      1 ****           1
@<TRIPOS>SET
DONOR_HYDROGENS      STATIC     ATOMS    <user>   **** ""
3 16 17 18
ATOM$RED        STATIC     ATOMS    COLORGROUP SYSTEM
3 16 17 18
@<TRIPOS>COMMENT
> <Gold.Version>
2022.2.0

> <Gold.Id.Protein>
1qkm|1qkm_protein|mol2

> <Gold.Protein.RotatedTorsions>
[  496  491  490  487 ] final  -28.85 input  -89.99 | X-H torsion

> <Gold.Protein.ActiveResidues>
 MET295  LEU298  THR299  LEU301  ALA302  GLU305  TRP335  MET336  LEU339  MET340 
 GLY342  LEU343  ARG346  PHE356  ILE373  ILE376  PHE377  LEU380  LYS471  GLY472 
 MET473  HIS475  LEU476  LEU477  ASN478  MET479  VAL484  VAL487 

> <Gold.Protein.RotatedAtoms>
   36.3102   34.5605   41.9231 H   0  0  0  0  0  0  0  0  0  0  0  0  # atno 496  bound_to 491 

> <Gold.Score>
     Score     S(PLP)   S(hbond)     S(cho)   S(metal)  DE(clash)   DE(tors)     intcor
     39.42     -33.42       2.00       0.00       0.00       0.00       0.00       0.00

> <Gold.PLP.Fitness>
39.4151

> <Gold.PLP.PLP>
-33.4151

> <Gold.PLP.part.hbond>
-2.0000

> <Gold.PLP.part.metal>
0.0000

> <Gold.PLP.part.buried>
-3.7154

> <Gold.PLP.part.nonpolar>
-28.4616

> <Gold.PLP.part.repulsive>
0.1069

> <Gold.PLP.ligand.clash>
0.0000

> <Gold.PLP.ligand.torsion>
0.0000

> <Gold.PLP.Chemscore.Hbond>
2.0000

> <Gold.PLP.Chemscore.CHOScore>
0.0000

> <Gold.PLP.Chemscore.Metal>
0.0000

> <Gold.Chemscore.Hbonds>
donor molecule, donor type, donor heavy atom, donor atom, acceptor molecule, acceptor atom, score
      L1  H     7    16       P1   470  1.00
      L1  H     9    18       P1   582  1.00

> <Gold.PLP.Chemscore.Internal.Correction>
0.0000

