#       Name:                EN300-78391_i001
#       Creating user name   aseyller
#       Creation time:       Fri Apr 21 16:25:52 2023


#       File generated by GOLD software.
#

@<TRIPOS>MOLECULE
EN300-78391_i001|aminophenols|mol2|13|dock11
    18    18     1
SMALL
USER_CHARGES


@<TRIPOS>ATOM
      1 C1          25.9886  36.5443  40.9489 C.3            1 <1>                0.0000
      2 C2          27.0594  36.6716  39.8961 C.ar           1 <1>                0.0000
      3 C3          26.7496  37.1986  38.6552 C.ar           1 <1>                0.0000
      4 C4          27.7287  37.3175  37.6868 C.ar           1 <1>                0.0000
      5 C5          29.0228  36.9103  37.9537 C.ar           1 <1>                0.0000
      6 C6          29.3406  36.3811  39.1955 C.ar           1 <1>                0.0000
      7 N7          30.6499  35.9681  39.4681 N.pl3          1 <1>                0.0000
      8 C8          28.3540  36.2664  40.1731 C.ar           1 <1>                0.0000
      9 O9          28.6598  35.7481  41.3928 O.3            1 <1>                0.0000
     10 H10         25.5046  35.5718  40.8591 H              1 <1>                0.0000
     11 H11         26.4384  36.6365  41.9375 H              1 <1>                0.0000
     12 H12         25.2484  37.3325  40.8115 H              1 <1>                0.0000
     13 H13         25.7400  37.5176  38.4422 H              1 <1>                0.0000
     14 H14         27.4822  37.7292  36.7193 H              1 <1>                0.0000
     15 H15         29.7858  37.0041  37.1952 H              1 <1>                0.0000
     16 H16         31.3364  36.0519  38.7880 H              1 <1>                0.0000
     17 H17         30.8707  35.5981  40.3372 H              1 <1>                0.0000
     18 H18         29.5944  35.5254  41.5024 H              1 <1>                0.0000
@<TRIPOS>BOND
    1    1    2 1     
    2    1   10 1     
    3    1   11 1     
    4    1   12 1     
    5    2    3 ar    
    6    2    8 ar    
    7    3    4 ar    
    8    3   13 1     
    9    4    5 ar    
   10    4   14 1     
   11    5    6 ar    
   12    5   15 1     
   13    6    7 1     
   14    6    8 ar    
   15    7   16 1     
   16    7   17 1     
   17    8    9 1     
   18    9   18 1     
@<TRIPOS>SUBSTRUCTURE
      1 ****           1
@<TRIPOS>SET
DONOR_HYDROGENS      STATIC     ATOMS    <user>   **** ""
3 16 17 18
ATOM$RED        STATIC     ATOMS    COLORGROUP SYSTEM
3 16 17 18
@<TRIPOS>COMMENT
> <Gold.Version>
2022.2.0

> <Gold.Id.Protein>
1qkm|1qkm_protein|mol2

> <Gold.Protein.RotatedTorsions>
[  496  491  490  487 ] final  -77.57 input  -89.99 | X-H torsion

> <Gold.Protein.ActiveResidues>
 MET295  LEU298  THR299  LEU301  ALA302  GLU305  TRP335  MET336  LEU339  MET340 
 GLY342  LEU343  ARG346  PHE356  ILE373  ILE376  PHE377  LEU380  LYS471  GLY472 
 MET473  HIS475  LEU476  LEU477  ASN478  MET479  VAL484  VAL487 

> <Gold.Protein.RotatedAtoms>
   36.6442   34.7151   41.2376 H   0  0  0  0  0  0  0  0  0  0  0  0  # atno 496  bound_to 491 

> <Gold.Score>
     Score     S(PLP)   S(hbond)     S(cho)   S(metal)  DE(clash)   DE(tors)     intcor
     34.63     -30.87       1.25       0.00       0.00       0.00       0.00       0.00

> <Gold.PLP.Fitness>
34.6253

> <Gold.PLP.PLP>
-30.8715

> <Gold.PLP.part.hbond>
-1.1414

> <Gold.PLP.part.metal>
0.0000

> <Gold.PLP.part.buried>
-2.6328

> <Gold.PLP.part.nonpolar>
-28.0029

> <Gold.PLP.part.repulsive>
0.0453

> <Gold.PLP.ligand.clash>
0.0000

> <Gold.PLP.ligand.torsion>
0.0000

> <Gold.PLP.Chemscore.Hbond>
1.2513

> <Gold.PLP.Chemscore.CHOScore>
0.0000

> <Gold.PLP.Chemscore.Metal>
0.0000

> <Gold.Chemscore.Hbonds>
donor molecule, donor type, donor heavy atom, donor atom, acceptor molecule, acceptor atom, score
      L1  H     7    17       P1   470  0.99
      L1  H     9    18       P1   470  0.26

> <Gold.PLP.Chemscore.Internal.Correction>
0.0000

