#       Name:                EN300-78391_i001
#       Creating user name   aseyller
#       Creation time:       Fri Apr 21 16:25:54 2023


#       File generated by GOLD software.
#

@<TRIPOS>MOLECULE
EN300-78391_i001|aminophenols|mol2|13|dock16
    18    18     1
SMALL
USER_CHARGES


@<TRIPOS>ATOM
      1 C1          28.5398  37.4335  37.5339 C.3            1 <1>                0.0000
      2 C2          28.4528  37.0540  38.9898 C.ar           1 <1>                0.0000
      3 C3          29.6010  36.9963  39.7590 C.ar           1 <1>                0.0000
      4 C4          29.5258  36.6491  41.0948 C.ar           1 <1>                0.0000
      5 C5          28.3021  36.3580  41.6689 C.ar           1 <1>                0.0000
      6 C6          27.1468  36.4138  40.9039 C.ar           1 <1>                0.0000
      7 N7          25.9070  36.1194  41.4828 N.pl3          1 <1>                0.0000
      8 C8          27.2230  36.7690  39.5585 C.ar           1 <1>                0.0000
      9 O9          26.0933  36.8254  38.8033 O.3            1 <1>                0.0000
     10 H10         28.6790  36.5354  36.9322 H              1 <1>                0.0000
     11 H11         27.6191  37.9334  37.2331 H              1 <1>                0.0000
     12 H12         29.3842  38.1060  37.3836 H              1 <1>                0.0000
     13 H13         30.5590  37.2226  39.3146 H              1 <1>                0.0000
     14 H14         30.4250  36.6050  41.6913 H              1 <1>                0.0000
     15 H15         28.2462  36.0867  42.7128 H              1 <1>                0.0000
     16 H16         25.8550  35.8759  42.4203 H              1 <1>                0.0000
     17 H17         25.0996  36.1589  40.9465 H              1 <1>                0.0000
     18 H18         26.2583  36.8749  37.8518 H              1 <1>                0.0000
@<TRIPOS>BOND
    1    1    2 1     
    2    1   10 1     
    3    1   11 1     
    4    1   12 1     
    5    2    3 ar    
    6    2    8 ar    
    7    3    4 ar    
    8    3   13 1     
    9    4    5 ar    
   10    4   14 1     
   11    5    6 ar    
   12    5   15 1     
   13    6    7 1     
   14    6    8 ar    
   15    7   16 1     
   16    7   17 1     
   17    8    9 1     
   18    9   18 1     
@<TRIPOS>SUBSTRUCTURE
      1 ****           1
@<TRIPOS>SET
DONOR_HYDROGENS      STATIC     ATOMS    <user>   **** ""
3 16 17 18
ATOM$RED        STATIC     ATOMS    COLORGROUP SYSTEM
3 16 17 18
@<TRIPOS>COMMENT
> <Gold.Version>
2022.2.0

> <Gold.Id.Protein>
1qkm|1qkm_protein|mol2

> <Gold.Protein.RotatedTorsions>
[  496  491  490  487 ] final  -57.27 input  -89.99 | X-H torsion

> <Gold.Protein.ActiveResidues>
 MET295  LEU298  THR299  LEU301  ALA302  GLU305  TRP335  MET336  LEU339  MET340 
 GLY342  LEU343  ARG346  PHE356  ILE373  ILE376  PHE377  LEU380  LYS471  GLY472 
 MET473  HIS475  LEU476  LEU477  ASN478  MET479  VAL484  VAL487 

> <Gold.Protein.RotatedAtoms>
   36.4763   34.7271   41.5242 H   0  0  0  0  0  0  0  0  0  0  0  0  # atno 496  bound_to 491 

> <Gold.Score>
     Score     S(PLP)   S(hbond)     S(cho)   S(metal)  DE(clash)   DE(tors)     intcor
     32.66     -29.69       0.99       0.00       0.00       0.00       0.00       0.00

> <Gold.PLP.Fitness>
32.6630

> <Gold.PLP.PLP>
-29.6870

> <Gold.PLP.part.hbond>
-1.0000

> <Gold.PLP.part.metal>
0.0000

> <Gold.PLP.part.buried>
-1.4201

> <Gold.PLP.part.nonpolar>
-28.1593

> <Gold.PLP.part.repulsive>
0.0678

> <Gold.PLP.ligand.clash>
0.0000

> <Gold.PLP.ligand.torsion>
0.0000

> <Gold.PLP.Chemscore.Hbond>
0.9920

> <Gold.PLP.Chemscore.CHOScore>
0.0000

> <Gold.PLP.Chemscore.Metal>
0.0000

> <Gold.Chemscore.Hbonds>
donor molecule, donor type, donor heavy atom, donor atom, acceptor molecule, acceptor atom, score
      L1  H     7    16       P1   582  0.99

> <Gold.PLP.Chemscore.Internal.Correction>
0.0000

