#       Name:                EN300-78391_i001
#       Creating user name   aseyller
#       Creation time:       Fri Apr 21 16:25:50 2023


#       File generated by GOLD software.
#

@<TRIPOS>MOLECULE
EN300-78391_i001|aminophenols|mol2|13|dock5
    18    18     1
SMALL
USER_CHARGES


@<TRIPOS>ATOM
      1 C1          26.2911  36.9429  42.1979 C.3            1 <1>                0.0000
      2 C2          27.0108  36.6921  40.8978 C.ar           1 <1>                0.0000
      3 C3          26.3612  36.9065  39.6955 C.ar           1 <1>                0.0000
      4 C4          27.0176  36.6782  38.5008 C.ar           1 <1>                0.0000
      5 C5          28.3271  36.2344  38.5014 C.ar           1 <1>                0.0000
      6 C6          28.9847  36.0173  39.7029 C.ar           1 <1>                0.0000
      7 N7          30.3102  35.5681  39.7062 N.pl3          1 <1>                0.0000
      8 C8          28.3238  36.2528  40.9071 C.ar           1 <1>                0.0000
      9 O9          28.9636  36.0417  42.0885 O.3            1 <1>                0.0000
     10 H10         25.7875  36.0302  42.5163 H              1 <1>                0.0000
     11 H11         27.0105  37.2453  42.9589 H              1 <1>                0.0000
     12 H12         25.5549  37.7345  42.0589 H              1 <1>                0.0000
     13 H13         25.3382  37.2527  39.6903 H              1 <1>                0.0000
     14 H14         26.5063  36.8466  37.5645 H              1 <1>                0.0000
     15 H15         28.8376  36.0565  37.5665 H              1 <1>                0.0000
     16 H16         30.7702  35.4081  38.8674 H              1 <1>                0.0000
     17 H17         30.7690  35.4167  40.5474 H              1 <1>                0.0000
     18 H18         29.8874  35.7724  41.9928 H              1 <1>                0.0000
@<TRIPOS>BOND
    1    1    2 1     
    2    1   10 1     
    3    1   11 1     
    4    1   12 1     
    5    2    3 ar    
    6    2    8 ar    
    7    3    4 ar    
    8    3   13 1     
    9    4    5 ar    
   10    4   14 1     
   11    5    6 ar    
   12    5   15 1     
   13    6    7 1     
   14    6    8 ar    
   15    7   16 1     
   16    7   17 1     
   17    8    9 1     
   18    9   18 1     
@<TRIPOS>SUBSTRUCTURE
      1 ****           1
@<TRIPOS>SET
DONOR_HYDROGENS      STATIC     ATOMS    <user>   **** ""
3 16 17 18
ATOM$RED        STATIC     ATOMS    COLORGROUP SYSTEM
3 16 17 18
@<TRIPOS>COMMENT
> <Gold.Version>
2022.2.0

> <Gold.Id.Protein>
1qkm|1qkm_protein|mol2

> <Gold.Protein.RotatedTorsions>
[  496  491  490  487 ] final  153.91 input  -89.99 | X-H torsion

> <Gold.Protein.ActiveResidues>
 MET295  LEU298  THR299  LEU301  ALA302  GLU305  TRP335  MET336  LEU339  MET340 
 GLY342  LEU343  ARG346  PHE356  ILE373  ILE376  PHE377  LEU380  LYS471  GLY472 
 MET473  HIS475  LEU476  LEU477  ASN478  MET479  VAL484  VAL487 

> <Gold.Protein.RotatedAtoms>
   37.2778   33.1413   41.1449 H   0  0  0  0  0  0  0  0  0  0  0  0  # atno 496  bound_to 491 

> <Gold.Score>
     Score     S(PLP)   S(hbond)     S(cho)   S(metal)  DE(clash)   DE(tors)     intcor
     37.87     -31.87       2.00       0.00       0.00       0.00       0.00       0.00

> <Gold.PLP.Fitness>
37.8730

> <Gold.PLP.PLP>
-31.8730

> <Gold.PLP.part.hbond>
-2.0000

> <Gold.PLP.part.metal>
0.0000

> <Gold.PLP.part.buried>
-0.7097

> <Gold.PLP.part.nonpolar>
-29.3856

> <Gold.PLP.part.repulsive>
0.0634

> <Gold.PLP.ligand.clash>
0.0000

> <Gold.PLP.ligand.torsion>
0.0000

> <Gold.PLP.Chemscore.Hbond>
2.0000

> <Gold.PLP.Chemscore.CHOScore>
0.0000

> <Gold.PLP.Chemscore.Metal>
0.0000

> <Gold.Chemscore.Hbonds>
donor molecule, donor type, donor heavy atom, donor atom, acceptor molecule, acceptor atom, score
      L1  H     7    17       P1   470  1.00
      L1  H     9    18       P1   470  1.00

> <Gold.PLP.Chemscore.Internal.Correction>
0.0000

