#       Name:                EN300-78391_i001
#       Creating user name   aseyller
#       Creation time:       Fri Apr 21 16:25:51 2023


#       File generated by GOLD software.
#

@<TRIPOS>MOLECULE
EN300-78391_i001|aminophenols|mol2|13|dock7
    18    18     1
SMALL
USER_CHARGES


@<TRIPOS>ATOM
      1 C1          24.9238  37.3785  40.5311 C.3            1 <1>                0.0000
      2 C2          26.3148  36.9120  40.1863 C.ar           1 <1>                0.0000
      3 C3          26.7056  36.8227  38.8624 C.ar           1 <1>                0.0000
      4 C4          27.9804  36.3957  38.5416 C.ar           1 <1>                0.0000
      5 C5          28.8716  36.0560  39.5426 C.ar           1 <1>                0.0000
      6 C6          28.4868  36.1431  40.8721 C.ar           1 <1>                0.0000
      7 N7          29.3871  35.7996  41.8872 N.pl3          1 <1>                0.0000
      8 C8          27.2029  36.5786  41.1948 C.ar           1 <1>                0.0000
      9 O9          26.8199  36.6661  42.4969 O.3            1 <1>                0.0000
     10 H10         24.2547  36.5196  40.5814 H              1 <1>                0.0000
     11 H11         24.9392  37.8841  41.4967 H              1 <1>                0.0000
     12 H12         24.5718  38.0691  39.7649 H              1 <1>                0.0000
     13 H13         26.0126  37.0867  38.0772 H              1 <1>                0.0000
     14 H14         28.2810  36.3272  37.5066 H              1 <1>                0.0000
     15 H15         29.8671  35.7224  39.2892 H              1 <1>                0.0000
     16 H16         30.2816  35.5001  41.6612 H              1 <1>                0.0000
     17 H17         29.1165  35.8611  42.8167 H              1 <1>                0.0000
     18 H18         26.5862  35.8169  42.8960 H              1 <1>                0.0000
@<TRIPOS>BOND
    1    1    2 1     
    2    1   10 1     
    3    1   11 1     
    4    1   12 1     
    5    2    3 ar    
    6    2    8 ar    
    7    3    4 ar    
    8    3   13 1     
    9    4    5 ar    
   10    4   14 1     
   11    5    6 ar    
   12    5   15 1     
   13    6    7 1     
   14    6    8 ar    
   15    7   16 1     
   16    7   17 1     
   17    8    9 1     
   18    9   18 1     
@<TRIPOS>SUBSTRUCTURE
      1 ****           1
@<TRIPOS>SET
DONOR_HYDROGENS      STATIC     ATOMS    <user>   **** ""
3 16 17 18
ATOM$RED        STATIC     ATOMS    COLORGROUP SYSTEM
3 16 17 18
@<TRIPOS>COMMENT
> <Gold.Version>
2022.2.0

> <Gold.Id.Protein>
1qkm|1qkm_protein|mol2

> <Gold.Protein.RotatedTorsions>
[  496  491  490  487 ] final -109.27 input  -89.99 | X-H torsion

> <Gold.Protein.ActiveResidues>
 MET295  LEU298  THR299  LEU301  ALA302  GLU305  TRP335  MET336  LEU339  MET340 
 GLY342  LEU343  ARG346  PHE356  ILE373  ILE376  PHE377  LEU380  LYS471  GLY472 
 MET473  HIS475  LEU476  LEU477  ASN478  MET479  VAL484  VAL487 

> <Gold.Protein.RotatedAtoms>
   36.9337   34.4836   40.8799 H   0  0  0  0  0  0  0  0  0  0  0  0  # atno 496  bound_to 491 

> <Gold.Score>
     Score     S(PLP)   S(hbond)     S(cho)   S(metal)  DE(clash)   DE(tors)     intcor
     35.48     -29.48       2.00       0.00       0.00       0.00       0.00       0.00

> <Gold.PLP.Fitness>
35.4813

> <Gold.PLP.PLP>
-29.4813

> <Gold.PLP.part.hbond>
-1.9722

> <Gold.PLP.part.metal>
0.0000

> <Gold.PLP.part.buried>
-0.2980

> <Gold.PLP.part.nonpolar>
-27.6992

> <Gold.PLP.part.repulsive>
0.1205

> <Gold.PLP.ligand.clash>
0.0000

> <Gold.PLP.ligand.torsion>
0.0000

> <Gold.PLP.Chemscore.Hbond>
2.0000

> <Gold.PLP.Chemscore.CHOScore>
0.0000

> <Gold.PLP.Chemscore.Metal>
0.0000

> <Gold.Chemscore.Hbonds>
donor molecule, donor type, donor heavy atom, donor atom, acceptor molecule, acceptor atom, score
      L1  H     7    16       P1   470  1.00
      L1  H     9    18       P1   582  1.00

> <Gold.PLP.Chemscore.Internal.Correction>
0.0000

