#       Name:                EN300-78391_i001
#       Creating user name   aseyller
#       Creation time:       Fri Apr 21 16:25:49 2023


#       File generated by GOLD software.
#

@<TRIPOS>MOLECULE
EN300-78391_i001|aminophenols|mol2|13|dock1
    18    18     1
SMALL
USER_CHARGES


@<TRIPOS>ATOM
      1 C1          29.0712  37.3632  37.7223 C.3            1 <1>                0.0000
      2 C2          28.1428  36.9518  38.8358 C.ar           1 <1>                0.0000
      3 C3          26.7760  37.1063  38.6890 C.ar           1 <1>                0.0000
      4 C4          25.9208  36.7300  39.7075 C.ar           1 <1>                0.0000
      5 C5          26.4273  36.1969  40.8784 C.ar           1 <1>                0.0000
      6 C6          27.7964  36.0390  41.0327 C.ar           1 <1>                0.0000
      7 N7          28.3115  35.4996  42.2170 N.pl3          1 <1>                0.0000
      8 C8          28.6576  36.4139  40.0032 C.ar           1 <1>                0.0000
      9 O9          30.0012  36.2613  40.1488 O.3            1 <1>                0.0000
     10 H10         29.3587  38.4060  37.8557 H              1 <1>                0.0000
     11 H11         29.9621  36.7354  37.7416 H              1 <1>                0.0000
     12 H12         28.5645  37.2456  36.7645 H              1 <1>                0.0000
     13 H13         26.3761  37.5226  37.7762 H              1 <1>                0.0000
     14 H14         24.8545  36.8528  39.5885 H              1 <1>                0.0000
     15 H15         25.7569  35.9039  41.6728 H              1 <1>                0.0000
     16 H16         27.7107  35.2357  42.9313 H              1 <1>                0.0000
     17 H17         29.2694  35.3898  42.3236 H              1 <1>                0.0000
     18 H18         30.2594  35.8035  40.9605 H              1 <1>                0.0000
@<TRIPOS>BOND
    1    1    2 1     
    2    1   10 1     
    3    1   11 1     
    4    1   12 1     
    5    2    3 ar    
    6    2    8 ar    
    7    3    4 ar    
    8    3   13 1     
    9    4    5 ar    
   10    4   14 1     
   11    5    6 ar    
   12    5   15 1     
   13    6    7 1     
   14    6    8 ar    
   15    7   16 1     
   16    7   17 1     
   17    8    9 1     
   18    9   18 1     
@<TRIPOS>SUBSTRUCTURE
      1 ****           1
@<TRIPOS>SET
DONOR_HYDROGENS      STATIC     ATOMS    <user>   **** ""
3 16 17 18
ATOM$RED        STATIC     ATOMS    COLORGROUP SYSTEM
3 16 17 18
@<TRIPOS>COMMENT
> <Gold.Version>
2022.2.0

> <Gold.Id.Protein>
1qkm|1qkm_protein|mol2

> <Gold.Protein.RotatedTorsions>
[  496  491  490  487 ] final  -21.34 input  -89.99 | X-H torsion

> <Gold.Protein.ActiveResidues>
 MET295  LEU298  THR299  LEU301  ALA302  GLU305  TRP335  MET336  LEU339  MET340 
 GLY342  LEU343  ARG346  PHE356  ILE373  ILE376  PHE377  LEU380  LYS471  GLY472 
 MET473  HIS475  LEU476  LEU477  ASN478  MET479  VAL484  VAL487 

> <Gold.Protein.RotatedAtoms>
   36.2845   34.4846   42.0172 H   0  0  0  0  0  0  0  0  0  0  0  0  # atno 496  bound_to 491 

> <Gold.Score>
     Score     S(PLP)   S(hbond)     S(cho)   S(metal)  DE(clash)   DE(tors)     intcor
     38.92     -33.21       1.90       0.00       0.00       0.00       0.00       0.00

> <Gold.PLP.Fitness>
38.9207

> <Gold.PLP.PLP>
-33.2086

> <Gold.PLP.part.hbond>
-2.0000

> <Gold.PLP.part.metal>
0.0000

> <Gold.PLP.part.buried>
-3.1555

> <Gold.PLP.part.nonpolar>
-28.8554

> <Gold.PLP.part.repulsive>
0.0937

> <Gold.PLP.ligand.clash>
0.0000

> <Gold.PLP.ligand.torsion>
0.0000

> <Gold.PLP.Chemscore.Hbond>
1.9040

> <Gold.PLP.Chemscore.CHOScore>
0.0000

> <Gold.PLP.Chemscore.Metal>
0.0000

> <Gold.Chemscore.Hbonds>
donor molecule, donor type, donor heavy atom, donor atom, acceptor molecule, acceptor atom, score
      L1  H     7    16       P1   582  1.00
      L1  H     9    18       P1   470  0.90

> <Gold.PLP.Chemscore.Internal.Correction>
0.0000

