#       Name:                EN300-78391_i001
#       Creating user name   aseyller
#       Creation time:       Fri Apr 21 16:25:50 2023


#       File generated by GOLD software.
#

@<TRIPOS>MOLECULE
EN300-78391_i001|aminophenols|mol2|13|dock3
    18    18     1
SMALL
USER_CHARGES


@<TRIPOS>ATOM
      1 C1          29.5358  35.8134  39.8625 C.3            1 <1>                0.0000
      2 C2          28.1177  36.3031  39.7191 C.ar           1 <1>                0.0000
      3 C3          27.7614  37.0804  38.6318 C.ar           1 <1>                0.0000
      4 C4          26.4619  37.5314  38.4962 C.ar           1 <1>                0.0000
      5 C5          25.5115  37.2076  39.4467 C.ar           1 <1>                0.0000
      6 C6          25.8615  36.4287  40.5394 C.ar           1 <1>                0.0000
      7 N7          24.9012  36.0996  41.5031 N.pl3          1 <1>                0.0000
      8 C8          27.1707  35.9701  40.6727 C.ar           1 <1>                0.0000
      9 O9          27.5198  35.2059  41.7422 O.3            1 <1>                0.0000
     10 H10         30.1172  36.5437  40.4251 H              1 <1>                0.0000
     11 H11         29.5392  34.8605  40.3918 H              1 <1>                0.0000
     12 H12         29.9763  35.6817  38.8743 H              1 <1>                0.0000
     13 H13         28.5006  37.3360  37.8870 H              1 <1>                0.0000
     14 H14         26.1884  38.1383  37.6458 H              1 <1>                0.0000
     15 H15         24.4969  37.5615  39.3385 H              1 <1>                0.0000
     16 H16         23.9895  36.4165  41.4071 H              1 <1>                0.0000
     17 H17         25.1475  35.5547  42.2669 H              1 <1>                0.0000
     18 H18         26.7694  34.9085  42.2748 H              1 <1>                0.0000
@<TRIPOS>BOND
    1    1    2 1     
    2    1   10 1     
    3    1   11 1     
    4    1   12 1     
    5    2    3 ar    
    6    2    8 ar    
    7    3    4 ar    
    8    3   13 1     
    9    4    5 ar    
   10    4   14 1     
   11    5    6 ar    
   12    5   15 1     
   13    6    7 1     
   14    6    8 ar    
   15    7   16 1     
   16    7   17 1     
   17    8    9 1     
   18    9   18 1     
@<TRIPOS>SUBSTRUCTURE
      1 ****           1
@<TRIPOS>SET
DONOR_HYDROGENS      STATIC     ATOMS    <user>   **** ""
3 16 17 18
ATOM$RED        STATIC     ATOMS    COLORGROUP SYSTEM
3 16 17 18
@<TRIPOS>COMMENT
> <Gold.Version>
2022.2.0

> <Gold.Id.Protein>
1qkm|1qkm_protein|mol2

> <Gold.Protein.RotatedTorsions>
[  496  491  490  487 ] final -133.97 input  -89.99 | X-H torsion

> <Gold.Protein.ActiveResidues>
 MET295  LEU298  THR299  LEU301  ALA302  GLU305  TRP335  MET336  LEU339  MET340 
 GLY342  LEU343  ARG346  PHE356  ILE373  ILE376  PHE377  LEU380  LYS471  GLY472 
 MET473  HIS475  LEU476  LEU477  ASN478  MET479  VAL484  VAL487 

> <Gold.Protein.RotatedAtoms>
   37.1335   34.1636   40.7366 H   0  0  0  0  0  0  0  0  0  0  0  0  # atno 496  bound_to 491 

> <Gold.Score>
     Score     S(PLP)   S(hbond)     S(cho)   S(metal)  DE(clash)   DE(tors)     intcor
     41.52     -34.73       2.27       0.00       0.00       0.00       0.00       0.00

> <Gold.PLP.Fitness>
41.5246

> <Gold.PLP.PLP>
-34.7290

> <Gold.PLP.part.hbond>
-3.0000

> <Gold.PLP.part.metal>
0.0000

> <Gold.PLP.part.buried>
-3.4045

> <Gold.PLP.part.nonpolar>
-29.3267

> <Gold.PLP.part.repulsive>
0.2718

> <Gold.PLP.ligand.clash>
0.0000

> <Gold.PLP.ligand.torsion>
0.0000

> <Gold.PLP.Chemscore.Hbond>
2.2652

> <Gold.PLP.Chemscore.CHOScore>
0.0000

> <Gold.PLP.Chemscore.Metal>
0.0000

> <Gold.Chemscore.Hbonds>
donor molecule, donor type, donor heavy atom, donor atom, acceptor molecule, acceptor atom, score
      L1  H     7    16       P1  1131  0.27
      L1  H     7    17       P1   582  1.00
      L1  H     9    18       P1   582  1.00

> <Gold.PLP.Chemscore.Internal.Correction>
0.0000

