#       Name:                EN300-78391_i001
#       Creating user name   aseyller
#       Creation time:       Fri Apr 21 16:25:54 2023


#       File generated by GOLD software.
#

@<TRIPOS>MOLECULE
EN300-78391_i001|aminophenols|mol2|13|dock18
    18    18     1
SMALL
USER_CHARGES


@<TRIPOS>ATOM
      1 C1          32.3632  35.8477  36.7062 C.3            1 <1>                0.0000
      2 C2          31.1716  36.3591  37.4740 C.ar           1 <1>                0.0000
      3 C3          30.3647  37.3397  36.9255 C.ar           1 <1>                0.0000
      4 C4          29.2705  37.8114  37.6260 C.ar           1 <1>                0.0000
      5 C5          28.9768  37.3051  38.8787 C.ar           1 <1>                0.0000
      6 C6          29.7812  36.3219  39.4349 C.ar           1 <1>                0.0000
      7 N7          29.4860  35.8079  40.7028 N.pl3          1 <1>                0.0000
      8 C8          30.8813  35.8432  38.7257 C.ar           1 <1>                0.0000
      9 O9          31.6737  34.8790  39.2661 O.3            1 <1>                0.0000
     10 H10         33.2387  36.4489  36.9515 H              1 <1>                0.0000
     11 H11         32.5496  34.8079  36.9751 H              1 <1>                0.0000
     12 H12         32.1633  35.9163  35.6370 H              1 <1>                0.0000
     13 H13         30.5906  37.7383  35.9474 H              1 <1>                0.0000
     14 H14         28.6437  38.5773  37.1939 H              1 <1>                0.0000
     15 H15         28.1214  37.6757  39.4240 H              1 <1>                0.0000
     16 H16         28.7180  36.1394  41.1937 H              1 <1>                0.0000
     17 H17         30.0496  35.1202  41.0906 H              1 <1>                0.0000
     18 H18         31.5097  34.7157  40.2050 H              1 <1>                0.0000
@<TRIPOS>BOND
    1    1    2 1     
    2    1   10 1     
    3    1   11 1     
    4    1   12 1     
    5    2    3 ar    
    6    2    8 ar    
    7    3    4 ar    
    8    3   13 1     
    9    4    5 ar    
   10    4   14 1     
   11    5    6 ar    
   12    5   15 1     
   13    6    7 1     
   14    6    8 ar    
   15    7   16 1     
   16    7   17 1     
   17    8    9 1     
   18    9   18 1     
@<TRIPOS>SUBSTRUCTURE
      1 ****           1
@<TRIPOS>SET
DONOR_HYDROGENS      STATIC     ATOMS    <user>   **** ""
3 16 17 18
ATOM$RED        STATIC     ATOMS    COLORGROUP SYSTEM
3 16 17 18
@<TRIPOS>COMMENT
> <Gold.Version>
2022.2.0

> <Gold.Id.Protein>
1qkm|1qkm_protein|mol2

> <Gold.Protein.RotatedTorsions>
[  496  491  490  487 ] final  -63.42 input  -89.99 | X-H torsion

> <Gold.Protein.ActiveResidues>
 MET295  LEU298  THR299  LEU301  ALA302  GLU305  TRP335  MET336  LEU339  MET340 
 GLY342  LEU343  ARG346  PHE356  ILE373  ILE376  PHE377  LEU380  LYS471  GLY472 
 MET473  HIS475  LEU476  LEU477  ASN478  MET479  VAL484  VAL487 

> <Gold.Protein.RotatedAtoms>
   36.5239   34.7353   41.4354 H   0  0  0  0  0  0  0  0  0  0  0  0  # atno 496  bound_to 491 

> <Gold.Score>
     Score     S(PLP)   S(hbond)     S(cho)   S(metal)  DE(clash)   DE(tors)     intcor
     31.64     -26.53       1.70       0.00       0.00       0.00       0.00       0.00

> <Gold.PLP.Fitness>
31.6386

> <Gold.PLP.PLP>
-26.5266

> <Gold.PLP.part.hbond>
-2.0000

> <Gold.PLP.part.metal>
0.0000

> <Gold.PLP.part.buried>
-1.2787

> <Gold.PLP.part.nonpolar>
-23.0818

> <Gold.PLP.part.repulsive>
0.0701

> <Gold.PLP.ligand.clash>
0.0000

> <Gold.PLP.ligand.torsion>
0.0000

> <Gold.PLP.Chemscore.Hbond>
1.7040

> <Gold.PLP.Chemscore.CHOScore>
0.0000

> <Gold.PLP.Chemscore.Metal>
0.0000

> <Gold.Chemscore.Hbonds>
donor molecule, donor type, donor heavy atom, donor atom, acceptor molecule, acceptor atom, score
      L1  H     7    17       P1   470  0.70
      L1  H     9    18       P1   470  1.00

> <Gold.PLP.Chemscore.Internal.Correction>
0.0000

