#       Name:                EN300-78391_i001
#       Creating user name   aseyller
#       Creation time:       Fri Apr 21 16:25:55 2023


#       File generated by GOLD software.
#

@<TRIPOS>MOLECULE
EN300-78391_i001|aminophenols|mol2|13|dock20
    18    18     1
SMALL
USER_CHARGES


@<TRIPOS>ATOM
      1 C1          29.0959  36.0929  42.1004 C.3            1 <1>                0.0000
      2 C2          28.3544  36.3976  40.8243 C.ar           1 <1>                0.0000
      3 C3          29.0225  36.3710  39.6133 C.ar           1 <1>                0.0000
      4 C4          28.3463  36.6494  38.4405 C.ar           1 <1>                0.0000
      5 C5          26.9984  36.9559  38.4718 C.ar           1 <1>                0.0000
      6 C6          26.3221  36.9844  39.6821 C.ar           1 <1>                0.0000
      7 N7          24.9577  37.2944  39.7164 N.pl3          1 <1>                0.0000
      8 C8          27.0035  36.6985  40.8637 C.ar           1 <1>                0.0000
      9 O9          26.3455  36.7250  42.0536 O.3            1 <1>                0.0000
     10 H10         29.5039  37.0157  42.5127 H              1 <1>                0.0000
     11 H11         28.4110  35.6449  42.8204 H              1 <1>                0.0000
     12 H12         29.9089  35.3978  41.8912 H              1 <1>                0.0000
     13 H13         30.0755  36.1324  39.5843 H              1 <1>                0.0000
     14 H14         28.8722  36.6278  37.4974 H              1 <1>                0.0000
     15 H15         26.4725  37.1733  37.5539 H              1 <1>                0.0000
     16 H16         24.4838  37.4897  38.8928 H              1 <1>                0.0000
     17 H17         24.4859  37.3141  40.5637 H              1 <1>                0.0000
     18 H18         26.1653  35.8496  42.4230 H              1 <1>                0.0000
@<TRIPOS>BOND
    1    1    2 1     
    2    1   10 1     
    3    1   11 1     
    4    1   12 1     
    5    2    3 ar    
    6    2    8 ar    
    7    3    4 ar    
    8    3   13 1     
    9    4    5 ar    
   10    4   14 1     
   11    5    6 ar    
   12    5   15 1     
   13    6    7 1     
   14    6    8 ar    
   15    7   16 1     
   16    7   17 1     
   17    8    9 1     
   18    9   18 1     
@<TRIPOS>SUBSTRUCTURE
      1 ****           1
@<TRIPOS>SET
DONOR_HYDROGENS      STATIC     ATOMS    <user>   **** ""
3 16 17 18
ATOM$RED        STATIC     ATOMS    COLORGROUP SYSTEM
3 16 17 18
@<TRIPOS>COMMENT
> <Gold.Version>
2022.2.0

> <Gold.Id.Protein>
1qkm|1qkm_protein|mol2

> <Gold.Protein.RotatedTorsions>
[  496  491  490  487 ] final   53.00 input  -89.99 | X-H torsion

> <Gold.Protein.ActiveResidues>
 MET295  LEU298  THR299  LEU301  ALA302  GLU305  TRP335  MET336  LEU339  MET340 
 GLY342  LEU343  ARG346  PHE356  ILE373  ILE376  PHE377  LEU380  LYS471  GLY472 
 MET473  HIS475  LEU476  LEU477  ASN478  MET479  VAL484  VAL487 

> <Gold.Protein.RotatedAtoms>
   36.4955   33.4124   42.3409 H   0  0  0  0  0  0  0  0  0  0  0  0  # atno 496  bound_to 491 

> <Gold.Score>
     Score     S(PLP)   S(hbond)     S(cho)   S(metal)  DE(clash)   DE(tors)     intcor
     33.28     -30.28       1.00       0.00       0.00       0.00       0.00       0.00

> <Gold.PLP.Fitness>
33.2759

> <Gold.PLP.PLP>
-30.2759

> <Gold.PLP.part.hbond>
-2.0000

> <Gold.PLP.part.metal>
0.0000

> <Gold.PLP.part.buried>
1.2424

> <Gold.PLP.part.nonpolar>
-29.2735

> <Gold.PLP.part.repulsive>
0.1568

> <Gold.PLP.ligand.clash>
0.0000

> <Gold.PLP.ligand.torsion>
0.0000

> <Gold.PLP.Chemscore.Hbond>
1.0000

> <Gold.PLP.Chemscore.CHOScore>
0.0000

> <Gold.PLP.Chemscore.Metal>
0.0000

> <Gold.Chemscore.Hbonds>
donor molecule, donor type, donor heavy atom, donor atom, acceptor molecule, acceptor atom, score
      L1  H     9    18       P1   582  1.00

> <Gold.PLP.Chemscore.Internal.Correction>
0.0000

