#       Name:                EN300-78391_i001
#       Creating user name   aseyller
#       Creation time:       Fri Apr 21 16:25:52 2023


#       File generated by GOLD software.
#

@<TRIPOS>MOLECULE
EN300-78391_i001|aminophenols|mol2|13|dock10
    18    18     1
SMALL
USER_CHARGES


@<TRIPOS>ATOM
      1 C1          25.7124  37.5103  38.8091 C.3            1 <1>                0.0000
      2 C2          26.6958  36.9978  39.8296 C.ar           1 <1>                0.0000
      3 C3          26.3242  36.8979  41.1583 C.ar           1 <1>                0.0000
      4 C4          27.2228  36.4280  42.0975 C.ar           1 <1>                0.0000
      5 C5          28.4977  36.0552  41.7136 C.ar           1 <1>                0.0000
      6 C6          28.8772  36.1526  40.3833 C.ar           1 <1>                0.0000
      7 N7          30.1672  35.7760  39.9922 N.pl3          1 <1>                0.0000
      8 C8          27.9689  36.6216  39.4361 C.ar           1 <1>                0.0000
      9 O9          28.3354  36.7193  38.1300 O.3            1 <1>                0.0000
     10 H10         25.8050  38.5933  38.7273 H              1 <1>                0.0000
     11 H11         25.9217  37.0537  37.8417 H              1 <1>                0.0000
     12 H12         24.6996  37.2547  39.1201 H              1 <1>                0.0000
     13 H13         25.3295  37.1883  41.4627 H              1 <1>                0.0000
     14 H14         26.9284  36.3520  43.1338 H              1 <1>                0.0000
     15 H15         29.1979  35.6886  42.4496 H              1 <1>                0.0000
     16 H16         30.7971  35.4462  40.6519 H              1 <1>                0.0000
     17 H17         30.4312  35.8447  39.0613 H              1 <1>                0.0000
     18 H18         29.2562  36.4772  37.9607 H              1 <1>                0.0000
@<TRIPOS>BOND
    1    1    2 1     
    2    1   10 1     
    3    1   11 1     
    4    1   12 1     
    5    2    3 ar    
    6    2    8 ar    
    7    3    4 ar    
    8    3   13 1     
    9    4    5 ar    
   10    4   14 1     
   11    5    6 ar    
   12    5   15 1     
   13    6    7 1     
   14    6    8 ar    
   15    7   16 1     
   16    7   17 1     
   17    8    9 1     
   18    9   18 1     
@<TRIPOS>SUBSTRUCTURE
      1 ****           1
@<TRIPOS>SET
DONOR_HYDROGENS      STATIC     ATOMS    <user>   **** ""
3 16 17 18
ATOM$RED        STATIC     ATOMS    COLORGROUP SYSTEM
3 16 17 18
@<TRIPOS>COMMENT
> <Gold.Version>
2022.2.0

> <Gold.Id.Protein>
1qkm|1qkm_protein|mol2

> <Gold.Protein.RotatedTorsions>
[  496  491  490  487 ] final   61.47 input  -89.99 | X-H torsion

> <Gold.Protein.ActiveResidues>
 MET295  LEU298  THR299  LEU301  ALA302  GLU305  TRP335  MET336  LEU339  MET340 
 GLY342  LEU343  ARG346  PHE356  ILE373  ILE376  PHE377  LEU380  LYS471  GLY472 
 MET473  HIS475  LEU476  LEU477  ASN478  MET479  VAL484  VAL487 

> <Gold.Protein.RotatedAtoms>
   36.5637   33.3006   42.2937 H   0  0  0  0  0  0  0  0  0  0  0  0  # atno 496  bound_to 491 

> <Gold.Score>
     Score     S(PLP)   S(hbond)     S(cho)   S(metal)  DE(clash)   DE(tors)     intcor
     34.68     -31.68       1.00       0.00       0.00       0.00       0.00       0.00

> <Gold.PLP.Fitness>
34.6810

> <Gold.PLP.PLP>
-31.6810

> <Gold.PLP.part.hbond>
-1.0000

> <Gold.PLP.part.metal>
0.0000

> <Gold.PLP.part.buried>
-0.4694

> <Gold.PLP.part.nonpolar>
-30.8337

> <Gold.PLP.part.repulsive>
0.0685

> <Gold.PLP.ligand.clash>
0.0000

> <Gold.PLP.ligand.torsion>
0.0000

> <Gold.PLP.Chemscore.Hbond>
1.0000

> <Gold.PLP.Chemscore.CHOScore>
0.0000

> <Gold.PLP.Chemscore.Metal>
0.0000

> <Gold.Chemscore.Hbonds>
donor molecule, donor type, donor heavy atom, donor atom, acceptor molecule, acceptor atom, score
      L1  H     7    16       P1   470  1.00

> <Gold.PLP.Chemscore.Internal.Correction>
0.0000

