#       Name:                EN300-78391_i001
#       Creating user name   aseyller
#       Creation time:       Fri Apr 21 16:25:51 2023


#       File generated by GOLD software.
#

@<TRIPOS>MOLECULE
EN300-78391_i001|aminophenols|mol2|13|dock8
    18    18     1
SMALL
USER_CHARGES


@<TRIPOS>ATOM
      1 C1          27.4904  37.8341  37.6767 C.3            1 <1>                0.0000
      2 C2          27.4781  37.1372  39.0128 C.ar           1 <1>                0.0000
      3 C3          28.6679  36.7419  39.5973 C.ar           1 <1>                0.0000
      4 C4          28.6613  36.1028  40.8228 C.ar           1 <1>                0.0000
      5 C5          27.4651  35.8555  41.4708 C.ar           1 <1>                0.0000
      6 C6          26.2685  36.2489  40.8909 C.ar           1 <1>                0.0000
      7 N7          25.0564  35.9996  41.5448 N.pl3          1 <1>                0.0000
      8 C8          26.2764  36.8979  39.6576 C.ar           1 <1>                0.0000
      9 O9          25.1059  37.2861  39.0840 O.3            1 <1>                0.0000
     10 H10         27.4245  37.0933  36.8799 H              1 <1>                0.0000
     11 H11         26.6397  38.5127  37.6131 H              1 <1>                0.0000
     12 H12         28.4156  38.4004  37.5707 H              1 <1>                0.0000
     13 H13         29.6045  36.9328  39.0945 H              1 <1>                0.0000
     14 H14         29.5926  35.7957  41.2752 H              1 <1>                0.0000
     15 H15         27.4628  35.3556  42.4282 H              1 <1>                0.0000
     16 H16         25.0526  35.5510  42.4049 H              1 <1>                0.0000
     17 H17         24.2201  36.2754  41.1380 H              1 <1>                0.0000
     18 H18         24.3186  36.9238  39.5129 H              1 <1>                0.0000
@<TRIPOS>BOND
    1    1    2 1     
    2    1   10 1     
    3    1   11 1     
    4    1   12 1     
    5    2    3 ar    
    6    2    8 ar    
    7    3    4 ar    
    8    3   13 1     
    9    4    5 ar    
   10    4   14 1     
   11    5    6 ar    
   12    5   15 1     
   13    6    7 1     
   14    6    8 ar    
   15    7   16 1     
   16    7   17 1     
   17    8    9 1     
   18    9   18 1     
@<TRIPOS>SUBSTRUCTURE
      1 ****           1
@<TRIPOS>SET
DONOR_HYDROGENS      STATIC     ATOMS    <user>   **** ""
3 16 17 18
ATOM$RED        STATIC     ATOMS    COLORGROUP SYSTEM
3 16 17 18
@<TRIPOS>COMMENT
> <Gold.Version>
2022.2.0

> <Gold.Id.Protein>
1qkm|1qkm_protein|mol2

> <Gold.Protein.RotatedTorsions>
[  496  491  490  487 ] final  -20.13 input  -89.99 | X-H torsion

> <Gold.Protein.ActiveResidues>
 MET295  LEU298  THR299  LEU301  ALA302  GLU305  TRP335  MET336  LEU339  MET340 
 GLY342  LEU343  ARG346  PHE356  ILE373  ILE376  PHE377  LEU380  LYS471  GLY472 
 MET473  HIS475  LEU476  LEU477  ASN478  MET479  VAL484  VAL487 

> <Gold.Protein.RotatedAtoms>
   36.2812   34.4713   42.0317 H   0  0  0  0  0  0  0  0  0  0  0  0  # atno 496  bound_to 491 

> <Gold.Score>
     Score     S(PLP)   S(hbond)     S(cho)   S(metal)  DE(clash)   DE(tors)     intcor
     37.46     -30.36       2.37       0.00       0.00       0.00       0.00       0.00

> <Gold.PLP.Fitness>
37.4581

> <Gold.PLP.PLP>
-30.3578

> <Gold.PLP.part.hbond>
-2.8621

> <Gold.PLP.part.metal>
0.0000

> <Gold.PLP.part.buried>
0.3754

> <Gold.PLP.part.nonpolar>
-28.7155

> <Gold.PLP.part.repulsive>
0.1446

> <Gold.PLP.ligand.clash>
0.0000

> <Gold.PLP.ligand.torsion>
0.0000

> <Gold.PLP.Chemscore.Hbond>
2.3668

> <Gold.PLP.Chemscore.CHOScore>
0.0000

> <Gold.PLP.Chemscore.Metal>
0.0000

> <Gold.Chemscore.Hbonds>
donor molecule, donor type, donor heavy atom, donor atom, acceptor molecule, acceptor atom, score
      L1  H     7    16       P1   582  0.99
      L1  H     7    17       P1  1131  0.60
      L1  H     9    18       P1  1131  0.77

> <Gold.PLP.Chemscore.Internal.Correction>
0.0000

