#       Name:                plp ligand
#       Creating user name   aseyller
#       Creation time:       Fri Apr 21 16:25:49 2023


#       File generated by GOLD software.
#

@<TRIPOS>MOLECULE
plp ligand
    18    18     1
SMALL
USER_CHARGES


@<TRIPOS>ATOM
      1 C1           2.3690  -0.7096   0.0584 NONPOLAR       1 <1>                0.0000
      2 C2           1.0402   0.0013   0.0504 NONPOLAR       1 <1>                0.0000
      3 C3           0.9959   1.3838   0.0347 NONPOLAR       1 <1>                0.0000
      4 C4          -0.2206   2.0399   0.0269 NONPOLAR       1 <1>                0.0000
      5 C5          -1.3995   1.3175   0.0346 NONPOLAR       1 <1>                0.0000
      6 C6          -1.3628  -0.0687   0.0503 NONPOLAR       1 <1>                0.0000
      7 N7          -2.5548  -0.8022   0.0582 DONOR          1 <1>                0.0000
      8 C8          -0.1358  -0.7295   0.0529 NONPOLAR       1 <1>                0.0000
      9 O9          -0.0936  -2.0888   0.0683 DONACC         1 <1>                0.0000
     10 H10          2.6893  -0.8694   1.0879                1 <1>                0.0000
     11 H11          2.2694  -1.6715  -0.4446                1 <1>                0.0000
     12 H12          3.1092  -0.1022  -0.4623                1 <1>                0.0000
     13 H13          1.9143   1.9521   0.0290                1 <1>                0.0000
     14 H14         -0.2503   3.1194   0.0150                1 <1>                0.0000
     15 H15         -2.3487   1.8327   0.0288                1 <1>                0.0000
     16 H16         -3.4081  -0.3410   0.0527                1 <1>                0.0000
     17 H17         -2.5276  -1.7718   0.0692                1 <1>                0.0000
     18 H18         -0.0850  -2.4920  -0.8106                1 <1>                0.0000
@<TRIPOS>BOND
    1    1    2 1     
    2    1   10 1     
    3    1   11 1     
    4    1   12 1     
    5    2    3 ar    
    6    2    8 ar    
    7    3    4 ar    
    8    3   13 1     
    9    4    5 ar    
   10    4   14 1     
   11    5    6 ar    
   12    5   15 1     
   13    6    7 1     
   14    6    8 ar    
   15    7   16 1     
   16    7   17 1     
   17    8    9 1     
   18    9   18 1     
@<TRIPOS>SUBSTRUCTURE
      1 ****           1
@<TRIPOS>SET
DONOR_HYDROGENS      STATIC     ATOMS    <user>   **** ""
3 16 17 18
ATOM$RED        STATIC     ATOMS    COLORGROUP SYSTEM
3 16 17 18
