#       Name:                EN300-01211_i001
#       Creating user name   aseyller
#       Creation time:       Fri Apr 21 16:23:01 2023


#       File generated by GOLD software.
#

@<TRIPOS>MOLECULE
EN300-01211_i001|aminophenols|mol2|1|dock15
    20    20     1
SMALL
USER_CHARGES


@<TRIPOS>ATOM
      1 N1          25.0193  37.1116  39.3688 N.pl3          1 <1>                0.0000
      2 C2          26.3664  36.9456  39.7102 C.ar           1 <1>                0.0000
      3 C3          27.3586  37.2209  38.7806 C.ar           1 <1>                0.0000
      4 C4          28.6883  37.0561  39.1201 C.ar           1 <1>                0.0000
      5 C5          29.0330  36.6171  40.3850 C.ar           1 <1>                0.0000
      6 C6          28.0494  36.3407  41.3169 C.ar           1 <1>                0.0000
      7 C7          26.7149  36.5087  40.9865 C.ar           1 <1>                0.0000
      8 O8          25.7464  36.2374  41.9021 O.3            1 <1>                0.0000
      9 S9          29.9471  37.4057  37.9378 S.o2           1 <1>                0.0000
     10 O10         30.0296  38.8214  37.8461 O.2            1 <1>                0.0000
     11 O11         31.0552  36.5831  38.2764 O.2            1 <1>                0.0000
     12 N12         29.4009  36.8730  36.4681 N.pl3          1 <1>                0.0000
     13 H13         27.0921  37.5636  37.7916 H              1 <1>                0.0000
     14 H14         30.0732  36.4894  40.6458 H              1 <1>                0.0000
     15 H15         28.3221  35.9979  42.3041 H              1 <1>                0.0000
     16 H16         24.7783  37.4196  38.4811 H              1 <1>                0.0000
     17 H17         24.3265  36.9149  40.0187 H              1 <1>                0.0000
     18 H18         26.0669  35.7740  42.6880 H              1 <1>                0.0000
     19 H19         28.9266  37.4795  35.8780 H              1 <1>                0.0000
     20 H20         29.5552  35.9544  36.1973 H              1 <1>                0.0000
@<TRIPOS>BOND
    1    1    2 1     
    2    1   16 1     
    3    1   17 1     
    4    2    3 ar    
    5    2    7 ar    
    6    3    4 ar    
    7    3   13 1     
    8    4    5 ar    
    9    4    9 1     
   10    5    6 ar    
   11    5   14 1     
   12    6    7 ar    
   13    6   15 1     
   14    7    8 1     
   15    8   18 1     
   16    9   10 2     
   17    9   11 2     
   18    9   12 1     
   19   12   19 1     
   20   12   20 1     
@<TRIPOS>SUBSTRUCTURE
      1 ****           1
@<TRIPOS>SET
DONOR_HYDROGENS      STATIC     ATOMS    <user>   **** ""
5 16 17 18 19 20
ATOM$RED        STATIC     ATOMS    COLORGROUP SYSTEM
5 16 17 18 19 20
@<TRIPOS>COMMENT
> <Gold.Version>
2022.2.0

> <Gold.Id.Protein>
1qkm|1qkm_protein|mol2

> <Gold.Protein.RotatedTorsions>
[  496  491  490  487 ] final  164.05 input  -89.99 | X-H torsion

> <Gold.Protein.ActiveResidues>
 MET295  LEU298  THR299  LEU301  ALA302  GLU305  TRP335  MET336  LEU339  MET340 
 GLY342  LEU343  ARG346  PHE356  ILE373  ILE376  PHE377  LEU380  LYS471  GLY472 
 MET473  HIS475  LEU476  LEU477  ASN478  MET479  VAL484  VAL487 

> <Gold.Protein.RotatedAtoms>
   37.3061   33.2520   41.0236 H   0  0  0  0  0  0  0  0  0  0  0  0  # atno 496  bound_to 491 

> <Gold.Score>
     Score     S(PLP)   S(hbond)     S(cho)   S(metal)  DE(clash)   DE(tors)     intcor
     34.58     -30.37       1.51       0.00       0.00       0.00       1.15       1.98

> <Gold.PLP.Fitness>
34.5830

> <Gold.PLP.PLP>
-30.3671

> <Gold.PLP.part.hbond>
-2.0443

> <Gold.PLP.part.metal>
0.0000

> <Gold.PLP.part.buried>
-1.8001

> <Gold.PLP.part.nonpolar>
-27.9527

> <Gold.PLP.part.repulsive>
0.1835

> <Gold.PLP.ligand.clash>
0.0000

> <Gold.PLP.ligand.torsion>
1.1536

> <Gold.PLP.Chemscore.Hbond>
1.5148

> <Gold.PLP.Chemscore.CHOScore>
0.0000

> <Gold.PLP.Chemscore.Metal>
0.0000

> <Gold.Chemscore.Hbonds>
donor molecule, donor type, donor heavy atom, donor atom, acceptor molecule, acceptor atom, score
      L1  H     1    17       P1  1131  0.51
      L1  H     8    18       P1   582  1.00

> <Gold.PLP.Chemscore.Internal.Correction>
1.9786

