#       Name:                EN300-01211_i001
#       Creating user name   aseyller
#       Creation time:       Fri Apr 21 16:22:59 2023


#       File generated by GOLD software.
#

@<TRIPOS>MOLECULE
EN300-01211_i001|aminophenols|mol2|1|dock12
    20    20     1
SMALL
USER_CHARGES


@<TRIPOS>ATOM
      1 N1          28.1561  37.2290  38.7904 N.pl3          1 <1>                0.0000
      2 C2          29.4383  36.8361  38.3899 C.ar           1 <1>                0.0000
      3 C3          29.9573  37.2819  37.1831 C.ar           1 <1>                0.0000
      4 C4          31.2238  36.8923  36.7898 C.ar           1 <1>                0.0000
      5 C5          31.9759  36.0585  37.5964 C.ar           1 <1>                0.0000
      6 C6          31.4652  35.6102  38.8007 C.ar           1 <1>                0.0000
      7 C7          30.1992  36.0005  39.2048 C.ar           1 <1>                0.0000
      8 O8          29.6956  35.5603  40.3891 O.3            1 <1>                0.0000
      9 S9          31.8811  37.4591  35.2564 S.o2           1 <1>                0.0000
     10 O10         30.7882  37.9999  34.5267 O.2            1 <1>                0.0000
     11 O11         33.0496  38.2038  35.5715 O.2            1 <1>                0.0000
     12 N12         32.3889  36.1247  34.4176 N.pl3          1 <1>                0.0000
     13 H13         29.3717  37.9330  36.5509 H              1 <1>                0.0000
     14 H14         32.9649  35.7564  37.2849 H              1 <1>                0.0000
     15 H15         32.0553  34.9589  39.4284 H              1 <1>                0.0000
     16 H16         27.6290  37.8140  38.2239 H              1 <1>                0.0000
     17 H17         27.7930  36.9133  39.6327 H              1 <1>                0.0000
     18 H18         30.3667  35.3989  41.0662 H              1 <1>                0.0000
     19 H19         32.8619  35.4137  34.8775 H              1 <1>                0.0000
     20 H20         32.2135  36.0542  33.4662 H              1 <1>                0.0000
@<TRIPOS>BOND
    1    1    2 1     
    2    1   16 1     
    3    1   17 1     
    4    2    3 ar    
    5    2    7 ar    
    6    3    4 ar    
    7    3   13 1     
    8    4    5 ar    
    9    4    9 1     
   10    5    6 ar    
   11    5   14 1     
   12    6    7 ar    
   13    6   15 1     
   14    7    8 1     
   15    8   18 1     
   16    9   10 2     
   17    9   11 2     
   18    9   12 1     
   19   12   19 1     
   20   12   20 1     
@<TRIPOS>SUBSTRUCTURE
      1 ****           1
@<TRIPOS>SET
DONOR_HYDROGENS      STATIC     ATOMS    <user>   **** ""
5 16 17 18 19 20
ATOM$RED        STATIC     ATOMS    COLORGROUP SYSTEM
5 16 17 18 19 20
@<TRIPOS>COMMENT
> <Gold.Version>
2022.2.0

> <Gold.Id.Protein>
1qkm|1qkm_protein|mol2

> <Gold.Protein.RotatedTorsions>
[  496  491  490  487 ] final -116.47 input  -89.99 | X-H torsion

> <Gold.Protein.ActiveResidues>
 MET295  LEU298  THR299  LEU301  ALA302  GLU305  TRP335  MET336  LEU339  MET340 
 GLY342  LEU343  ARG346  PHE356  ILE373  ILE376  PHE377  LEU380  LYS471  GLY472 
 MET473  HIS475  LEU476  LEU477  ASN478  MET479  VAL484  VAL487 

> <Gold.Protein.RotatedAtoms>
   36.9965   34.4002   40.8237 H   0  0  0  0  0  0  0  0  0  0  0  0  # atno 496  bound_to 491 

> <Gold.Score>
     Score     S(PLP)   S(hbond)     S(cho)   S(metal)  DE(clash)   DE(tors)     intcor
     32.92     -27.12       2.00       0.00       0.00       0.00       1.09       1.98

> <Gold.PLP.Fitness>
32.9162

> <Gold.PLP.PLP>
-27.1184

> <Gold.PLP.part.hbond>
-2.0000

> <Gold.PLP.part.metal>
0.0000

> <Gold.PLP.part.buried>
-2.4107

> <Gold.PLP.part.nonpolar>
-23.1533

> <Gold.PLP.part.repulsive>
0.2160

> <Gold.PLP.ligand.clash>
0.0000

> <Gold.PLP.ligand.torsion>
1.0904

> <Gold.PLP.Chemscore.Hbond>
2.0000

> <Gold.PLP.Chemscore.CHOScore>
0.0000

> <Gold.PLP.Chemscore.Metal>
0.0000

> <Gold.Chemscore.Hbonds>
donor molecule, donor type, donor heavy atom, donor atom, acceptor molecule, acceptor atom, score
      L1  H     8    18       P1   470  1.00
      L1  H    12    20       P1  3187  1.00

> <Gold.PLP.Chemscore.Internal.Correction>
1.9786

