#       Name:                EN300-01211_i001
#       Creating user name   aseyller
#       Creation time:       Fri Apr 21 16:22:50 2023


#       File generated by GOLD software.
#

@<TRIPOS>MOLECULE
EN300-01211_i001|aminophenols|mol2|1|dock2
    20    20     1
SMALL
USER_CHARGES


@<TRIPOS>ATOM
      1 N1          28.2382  35.6860  42.1072 N.pl3          1 <1>                0.0000
      2 C2          27.9608  36.2149  40.8414 C.ar           1 <1>                0.0000
      3 C3          28.9993  36.5879  40.0005 C.ar           1 <1>                0.0000
      4 C4          28.7227  37.1100  38.7510 C.ar           1 <1>                0.0000
      5 C5          27.4127  37.2620  38.3360 C.ar           1 <1>                0.0000
      6 C6          26.3724  36.8924  39.1687 C.ar           1 <1>                0.0000
      7 C7          26.6411  36.3630  40.4202 C.ar           1 <1>                0.0000
      8 O8          25.6189  35.9990  41.2402 O.3            1 <1>                0.0000
      9 S9          30.0430  37.5838  37.6846 S.o2           1 <1>                0.0000
     10 O10         29.9926  39.0006  37.5885 O.2            1 <1>                0.0000
     11 O11         31.1918  36.8754  38.1292 O.2            1 <1>                0.0000
     12 N12         29.6883  36.9999  36.1761 N.pl3          1 <1>                0.0000
     13 H13         30.0236  36.4706  40.3224 H              1 <1>                0.0000
     14 H14         27.2013  37.6708  37.3590 H              1 <1>                0.0000
     15 H15         25.3502  37.0124  38.8415 H              1 <1>                0.0000
     16 H16         29.1576  35.5798  42.3976 H              1 <1>                0.0000
     17 H17         27.5110  35.4293  42.6955 H              1 <1>                0.0000
     18 H18         25.9014  35.7282  42.1245 H              1 <1>                0.0000
     19 H19         29.8912  37.5312  35.3903 H              1 <1>                0.0000
     20 H20         29.2775  36.1266  36.0783 H              1 <1>                0.0000
@<TRIPOS>BOND
    1    1    2 1     
    2    1   16 1     
    3    1   17 1     
    4    2    3 ar    
    5    2    7 ar    
    6    3    4 ar    
    7    3   13 1     
    8    4    5 ar    
    9    4    9 1     
   10    5    6 ar    
   11    5   14 1     
   12    6    7 ar    
   13    6   15 1     
   14    7    8 1     
   15    8   18 1     
   16    9   10 2     
   17    9   11 2     
   18    9   12 1     
   19   12   19 1     
   20   12   20 1     
@<TRIPOS>SUBSTRUCTURE
      1 ****           1
@<TRIPOS>SET
DONOR_HYDROGENS      STATIC     ATOMS    <user>   **** ""
5 16 17 18 19 20
ATOM$RED        STATIC     ATOMS    COLORGROUP SYSTEM
5 16 17 18 19 20
@<TRIPOS>COMMENT
> <Gold.Version>
2022.2.0

> <Gold.Id.Protein>
1qkm|1qkm_protein|mol2

> <Gold.Protein.RotatedTorsions>
[  496  491  490  487 ] final -130.22 input  -89.99 | X-H torsion

> <Gold.Protein.ActiveResidues>
 MET295  LEU298  THR299  LEU301  ALA302  GLU305  TRP335  MET336  LEU339  MET340 
 GLY342  LEU343  ARG346  PHE356  ILE373  ILE376  PHE377  LEU380  LYS471  GLY472 
 MET473  HIS475  LEU476  LEU477  ASN478  MET479  VAL484  VAL487 

> <Gold.Protein.RotatedAtoms>
   37.1064   34.2177   40.7491 H   0  0  0  0  0  0  0  0  0  0  0  0  # atno 496  bound_to 491 

> <Gold.Score>
     Score     S(PLP)   S(hbond)     S(cho)   S(metal)  DE(clash)   DE(tors)     intcor
     40.17     -34.46       1.99       0.00       0.00       0.00       1.12       1.98

> <Gold.PLP.Fitness>
40.1656

> <Gold.PLP.PLP>
-34.4631

> <Gold.PLP.part.hbond>
-2.0000

> <Gold.PLP.part.metal>
0.0000

> <Gold.PLP.part.buried>
-4.8389

> <Gold.PLP.part.nonpolar>
-27.5721

> <Gold.PLP.part.repulsive>
0.1138

> <Gold.PLP.ligand.clash>
0.0000

> <Gold.PLP.ligand.torsion>
1.1249

> <Gold.PLP.Chemscore.Hbond>
1.9913

> <Gold.PLP.Chemscore.CHOScore>
0.0000

> <Gold.PLP.Chemscore.Metal>
0.0000

> <Gold.Chemscore.Hbonds>
donor molecule, donor type, donor heavy atom, donor atom, acceptor molecule, acceptor atom, score
      L1  H     1    17       P1   582  1.00
      L1  H     8    18       P1   582  0.99

> <Gold.PLP.Chemscore.Internal.Correction>
1.9786

