#       Name:                EN300-01211_i001
#       Creating user name   aseyller
#       Creation time:       Fri Apr 21 16:23:00 2023


#       File generated by GOLD software.
#

@<TRIPOS>MOLECULE
EN300-01211_i001|aminophenols|mol2|1|dock13
    20    20     1
SMALL
USER_CHARGES


@<TRIPOS>ATOM
      1 N1          27.0892  35.1727  42.1053 N.pl3          1 <1>                0.0000
      2 C2          27.0960  35.8798  40.8975 C.ar           1 <1>                0.0000
      3 C3          28.2525  35.9412  40.1339 C.ar           1 <1>                0.0000
      4 C4          28.2567  36.6401  38.9415 C.ar           1 <1>                0.0000
      5 C5          27.1103  37.2792  38.5069 C.ar           1 <1>                0.0000
      6 C6          25.9537  37.2223  39.2627 C.ar           1 <1>                0.0000
      7 C7          25.9396  36.5192  40.4560 C.ar           1 <1>                0.0000
      8 O8          24.8027  36.4624  41.2004 O.3            1 <1>                0.0000
      9 S9          29.7268  36.7175  37.9732 S.o2           1 <1>                0.0000
     10 O10         30.4318  37.8731  38.4056 O.2            1 <1>                0.0000
     11 O11         30.2885  35.4123  37.9916 O.2            1 <1>                0.0000
     12 N12         29.2686  37.0075  36.4086 N.pl3          1 <1>                0.0000
     13 H13         29.1496  35.4432  40.4713 H              1 <1>                0.0000
     14 H14         27.1183  37.8245  37.5747 H              1 <1>                0.0000
     15 H15         25.0600  37.7227  38.9203 H              1 <1>                0.0000
     16 H16         27.8939  34.7247  42.4096 H              1 <1>                0.0000
     17 H17         26.2808  35.1340  42.6401 H              1 <1>                0.0000
     18 H18         24.0164  36.2075  40.6986 H              1 <1>                0.0000
     19 H19         29.1227  37.9177  36.1067 H              1 <1>                0.0000
     20 H20         29.1459  36.2671  35.7940 H              1 <1>                0.0000
@<TRIPOS>BOND
    1    1    2 1     
    2    1   16 1     
    3    1   17 1     
    4    2    3 ar    
    5    2    7 ar    
    6    3    4 ar    
    7    3   13 1     
    8    4    5 ar    
    9    4    9 1     
   10    5    6 ar    
   11    5   14 1     
   12    6    7 ar    
   13    6   15 1     
   14    7    8 1     
   15    8   18 1     
   16    9   10 2     
   17    9   11 2     
   18    9   12 1     
   19   12   19 1     
   20   12   20 1     
@<TRIPOS>SUBSTRUCTURE
      1 ****           1
@<TRIPOS>SET
DONOR_HYDROGENS      STATIC     ATOMS    <user>   **** ""
5 16 17 18 19 20
ATOM$RED        STATIC     ATOMS    COLORGROUP SYSTEM
5 16 17 18 19 20
@<TRIPOS>COMMENT
> <Gold.Version>
2022.2.0

> <Gold.Id.Protein>
1qkm|1qkm_protein|mol2

> <Gold.Protein.RotatedTorsions>
[  496  491  490  487 ] final  168.58 input  -89.99 | X-H torsion

> <Gold.Protein.ActiveResidues>
 MET295  LEU298  THR299  LEU301  ALA302  GLU305  TRP335  MET336  LEU339  MET340 
 GLY342  LEU343  ARG346  PHE356  ILE373  ILE376  PHE377  LEU380  LYS471  GLY472 
 MET473  HIS475  LEU476  LEU477  ASN478  MET479  VAL484  VAL487 

> <Gold.Protein.RotatedAtoms>
   37.3136   33.3077   40.9745 H   0  0  0  0  0  0  0  0  0  0  0  0  # atno 496  bound_to 491 

> <Gold.Score>
     Score     S(PLP)   S(hbond)     S(cho)   S(metal)  DE(clash)   DE(tors)     intcor
     34.28     -30.47       1.42       0.00       0.00       0.00       1.22       1.98

> <Gold.PLP.Fitness>
34.2769

> <Gold.PLP.PLP>
-30.4721

> <Gold.PLP.part.hbond>
-0.2334

> <Gold.PLP.part.metal>
0.0000

> <Gold.PLP.part.buried>
-3.8551

> <Gold.PLP.part.nonpolar>
-28.1742

> <Gold.PLP.part.repulsive>
0.1027

> <Gold.PLP.ligand.clash>
0.0000

> <Gold.PLP.ligand.torsion>
1.2150

> <Gold.PLP.Chemscore.Hbond>
1.4188

> <Gold.PLP.Chemscore.CHOScore>
0.0000

> <Gold.PLP.Chemscore.Metal>
0.0000

> <Gold.Chemscore.Hbonds>
donor molecule, donor type, donor heavy atom, donor atom, acceptor molecule, acceptor atom, score
      L1  H     1    17       P1   582  0.25
      L1  H     8    18       P1  1131  1.00
      P1  H  1258  1270       L1     8  0.17

> <Gold.PLP.Chemscore.Internal.Correction>
1.9786

