#       Name:                EN300-01211_i001
#       Creating user name   aseyller
#       Creation time:       Fri Apr 21 16:22:51 2023


#       File generated by GOLD software.
#

@<TRIPOS>MOLECULE
EN300-01211_i001|aminophenols|mol2|1|dock3
    20    20     1
SMALL
USER_CHARGES


@<TRIPOS>ATOM
      1 N1          27.8789  35.5297  42.0898 N.pl3          1 <1>                0.0000
      2 C2          27.6072  36.1416  40.8607 C.ar           1 <1>                0.0000
      3 C3          28.6462  36.4673  40.0011 C.ar           1 <1>                0.0000
      4 C4          28.3752  37.0717  38.7879 C.ar           1 <1>                0.0000
      5 C5          27.0703  37.3529  38.4280 C.ar           1 <1>                0.0000
      6 C6          26.0296  37.0310  39.2797 C.ar           1 <1>                0.0000
      7 C7          26.2921  36.4201  40.4947 C.ar           1 <1>                0.0000
      8 O8          25.2694  36.1029  41.3334 O.3            1 <1>                0.0000
      9 S9          29.6962  37.4852  37.6976 S.o2           1 <1>                0.0000
     10 O10         29.3555  36.9412  36.4299 O.2            1 <1>                0.0000
     11 O11         29.9695  38.8644  37.9034 O.2            1 <1>                0.0000
     12 N12         31.0357  36.6607  38.2156 N.pl3          1 <1>                0.0000
     13 H13         29.6665  36.2491  40.2800 H              1 <1>                0.0000
     14 H14         26.8634  37.8255  37.4792 H              1 <1>                0.0000
     15 H15         25.0114  37.2521  38.9955 H              1 <1>                0.0000
     16 H16         28.7947  35.3328  42.3416 H              1 <1>                0.0000
     17 H17         27.1517  35.3060  42.6915 H              1 <1>                0.0000
     18 H18         25.5421  35.6026  42.1147 H              1 <1>                0.0000
     19 H19         31.9000  36.8372  37.8121 H              1 <1>                0.0000
     20 H20         30.9560  36.0012  38.9224 H              1 <1>                0.0000
@<TRIPOS>BOND
    1    1    2 1     
    2    1   16 1     
    3    1   17 1     
    4    2    3 ar    
    5    2    7 ar    
    6    3    4 ar    
    7    3   13 1     
    8    4    5 ar    
    9    4    9 1     
   10    5    6 ar    
   11    5   14 1     
   12    6    7 ar    
   13    6   15 1     
   14    7    8 1     
   15    8   18 1     
   16    9   10 2     
   17    9   11 2     
   18    9   12 1     
   19   12   19 1     
   20   12   20 1     
@<TRIPOS>SUBSTRUCTURE
      1 ****           1
@<TRIPOS>SET
DONOR_HYDROGENS      STATIC     ATOMS    <user>   **** ""
5 16 17 18 19 20
ATOM$RED        STATIC     ATOMS    COLORGROUP SYSTEM
5 16 17 18 19 20
@<TRIPOS>COMMENT
> <Gold.Version>
2022.2.0

> <Gold.Id.Protein>
1qkm|1qkm_protein|mol2

> <Gold.Protein.RotatedTorsions>
[  496  491  490  487 ] final   26.55 input  -89.99 | X-H torsion

> <Gold.Protein.ActiveResidues>
 MET295  LEU298  THR299  LEU301  ALA302  GLU305  TRP335  MET336  LEU339  MET340 
 GLY342  LEU343  ARG346  PHE356  ILE373  ILE376  PHE377  LEU380  LYS471  GLY472 
 MET473  HIS475  LEU476  LEU477  ASN478  MET479  VAL484  VAL487 

> <Gold.Protein.RotatedAtoms>
   36.3296   33.8094   42.3751 H   0  0  0  0  0  0  0  0  0  0  0  0  # atno 496  bound_to 491 

> <Gold.Score>
     Score     S(PLP)   S(hbond)     S(cho)   S(metal)  DE(clash)   DE(tors)     intcor
     39.66     -34.16       2.00       0.00       0.00       0.00       1.24       1.98

> <Gold.PLP.Fitness>
39.6600

> <Gold.PLP.PLP>
-34.1650

> <Gold.PLP.part.hbond>
-2.6162

> <Gold.PLP.part.metal>
0.0000

> <Gold.PLP.part.buried>
-4.2414

> <Gold.PLP.part.nonpolar>
-27.9320

> <Gold.PLP.part.repulsive>
0.0808

> <Gold.PLP.ligand.clash>
0.0000

> <Gold.PLP.ligand.torsion>
1.2418

> <Gold.PLP.Chemscore.Hbond>
2.0000

> <Gold.PLP.Chemscore.CHOScore>
0.0000

> <Gold.PLP.Chemscore.Metal>
0.0000

> <Gold.Chemscore.Hbonds>
donor molecule, donor type, donor heavy atom, donor atom, acceptor molecule, acceptor atom, score
      L1  H     1    17       P1   582  1.00
      L1  H     8    18       P1   582  1.00

> <Gold.PLP.Chemscore.Internal.Correction>
1.9786

