#       Name:                EN300-01211_i001
#       Creating user name   aseyller
#       Creation time:       Fri Apr 21 16:22:58 2023


#       File generated by GOLD software.
#

@<TRIPOS>MOLECULE
EN300-01211_i001|aminophenols|mol2|1|dock11
    20    20     1
SMALL
USER_CHARGES


@<TRIPOS>ATOM
      1 N1          25.2408  36.8957  39.4771 N.pl3          1 <1>                0.0000
      2 C2          26.6211  36.8156  39.6946 C.ar           1 <1>                0.0000
      3 C3          27.5056  37.1412  38.6767 C.ar           1 <1>                0.0000
      4 C4          28.8683  37.0611  38.8939 C.ar           1 <1>                0.0000
      5 C5          29.3531  36.6571  40.1240 C.ar           1 <1>                0.0000
      6 C6          28.4774  36.3311  41.1434 C.ar           1 <1>                0.0000
      7 C7          27.1105  36.4141  40.9356 C.ar           1 <1>                0.0000
      8 O8          26.2480  36.0937  41.9373 O.3            1 <1>                0.0000
      9 S9          29.9903  37.4745  37.5997 S.o2           1 <1>                0.0000
     10 O10         31.2786  37.0677  38.0403 O.2            1 <1>                0.0000
     11 O11         29.3995  37.0113  36.3932 O.2            1 <1>                0.0000
     12 N12         30.0317  39.1267  37.4959 N.pl3          1 <1>                0.0000
     13 H13         27.1296  37.4567  37.7146 H              1 <1>                0.0000
     14 H14         30.4186  36.5958  40.2892 H              1 <1>                0.0000
     15 H15         28.8594  36.0158  42.1031 H              1 <1>                0.0000
     16 H16         24.9015  37.1791  38.6137 H              1 <1>                0.0000
     17 H17         24.6234  36.6639  40.1886 H              1 <1>                0.0000
     18 H18         26.1590  36.7788  42.6139 H              1 <1>                0.0000
     19 H19         29.2214  39.6418  37.6335 H              1 <1>                0.0000
     20 H20         30.8663  39.5794  37.2975 H              1 <1>                0.0000
@<TRIPOS>BOND
    1    1    2 1     
    2    1   16 1     
    3    1   17 1     
    4    2    3 ar    
    5    2    7 ar    
    6    3    4 ar    
    7    3   13 1     
    8    4    5 ar    
    9    4    9 1     
   10    5    6 ar    
   11    5   14 1     
   12    6    7 ar    
   13    6   15 1     
   14    7    8 1     
   15    8   18 1     
   16    9   10 2     
   17    9   11 2     
   18    9   12 1     
   19   12   19 1     
   20   12   20 1     
@<TRIPOS>SUBSTRUCTURE
      1 ****           1
@<TRIPOS>SET
DONOR_HYDROGENS      STATIC     ATOMS    <user>   **** ""
5 16 17 18 19 20
ATOM$RED        STATIC     ATOMS    COLORGROUP SYSTEM
5 16 17 18 19 20
@<TRIPOS>COMMENT
> <Gold.Version>
2022.2.0

> <Gold.Id.Protein>
1qkm|1qkm_protein|mol2

> <Gold.Protein.RotatedTorsions>
[  496  491  490  487 ] final   73.81 input  -89.99 | X-H torsion

> <Gold.Protein.ActiveResidues>
 MET295  LEU298  THR299  LEU301  ALA302  GLU305  TRP335  MET336  LEU339  MET340 
 GLY342  LEU343  ARG346  PHE356  ILE373  ILE376  PHE377  LEU380  LYS471  GLY472 
 MET473  HIS475  LEU476  LEU477  ASN478  MET479  VAL484  VAL487 

> <Gold.Protein.RotatedAtoms>
   36.6715   33.1591   42.1963 H   0  0  0  0  0  0  0  0  0  0  0  0  # atno 496  bound_to 491 

> <Gold.Score>
     Score     S(PLP)   S(hbond)     S(cho)   S(metal)  DE(clash)   DE(tors)     intcor
     32.63     -32.09       0.19       0.00       0.00       0.00       1.00       1.98

> <Gold.PLP.Fitness>
32.6320

> <Gold.PLP.PLP>
-32.0933

> <Gold.PLP.part.hbond>
-1.5951

> <Gold.PLP.part.metal>
0.0000

> <Gold.PLP.part.buried>
-3.6817

> <Gold.PLP.part.nonpolar>
-27.8863

> <Gold.PLP.part.repulsive>
0.1438

> <Gold.PLP.ligand.clash>
0.0000

> <Gold.PLP.ligand.torsion>
1.0039

> <Gold.PLP.Chemscore.Hbond>
0.1893

> <Gold.PLP.Chemscore.CHOScore>
0.0000

> <Gold.PLP.Chemscore.Metal>
0.0000

> <Gold.Chemscore.Hbonds>
donor molecule, donor type, donor heavy atom, donor atom, acceptor molecule, acceptor atom, score
      L1  H     1    17       P1  1131  0.19

> <Gold.PLP.Chemscore.Internal.Correction>
1.9786

