#       Name:                EN300-01211_i001
#       Creating user name   aseyller
#       Creation time:       Fri Apr 21 16:23:05 2023


#       File generated by GOLD software.
#

@<TRIPOS>MOLECULE
EN300-01211_i001|aminophenols|mol2|1|dock19
    20    20     1
SMALL
USER_CHARGES


@<TRIPOS>ATOM
      1 N1          31.7305  38.1001  35.2666 N.pl3          1 <1>                0.0000
      2 C2          31.6259  37.1292  36.2693 C.ar           1 <1>                0.0000
      3 C3          30.5567  37.1542  37.1529 C.ar           1 <1>                0.0000
      4 C4          30.4558  36.1944  38.1424 C.ar           1 <1>                0.0000
      5 C5          31.4183  35.2082  38.2544 C.ar           1 <1>                0.0000
      6 C6          32.4868  35.1769  37.3771 C.ar           1 <1>                0.0000
      7 C7          32.5923  36.1317  36.3793 C.ar           1 <1>                0.0000
      8 O8          33.6427  36.1022  35.5157 O.3            1 <1>                0.0000
      9 S9          29.0974  36.2281  39.2642 S.o2           1 <1>                0.0000
     10 O10         28.2602  37.2985  38.8486 O.2            1 <1>                0.0000
     11 O11         28.6426  34.8872  39.3839 O.2            1 <1>                0.0000
     12 N12         29.6975  36.6528  40.7480 N.pl3          1 <1>                0.0000
     13 H13         29.8037  37.9238  37.0680 H              1 <1>                0.0000
     14 H14         31.3355  34.4605  39.0292 H              1 <1>                0.0000
     15 H15         33.2369  34.4052  37.4674 H              1 <1>                0.0000
     16 H16         31.0548  38.7917  35.1888 H              1 <1>                0.0000
     17 H17         32.4807  38.0836  34.6519 H              1 <1>                0.0000
     18 H18         34.1564  35.2836  35.5491 H              1 <1>                0.0000
     19 H19         30.5237  36.2581  41.0681 H              1 <1>                0.0000
     20 H20         29.2227  37.2961  41.2971 H              1 <1>                0.0000
@<TRIPOS>BOND
    1    1    2 1     
    2    1   16 1     
    3    1   17 1     
    4    2    3 ar    
    5    2    7 ar    
    6    3    4 ar    
    7    3   13 1     
    8    4    5 ar    
    9    4    9 1     
   10    5    6 ar    
   11    5   14 1     
   12    6    7 ar    
   13    6   15 1     
   14    7    8 1     
   15    8   18 1     
   16    9   10 2     
   17    9   11 2     
   18    9   12 1     
   19   12   19 1     
   20   12   20 1     
@<TRIPOS>SUBSTRUCTURE
      1 ****           1
@<TRIPOS>SET
DONOR_HYDROGENS      STATIC     ATOMS    <user>   **** ""
5 16 17 18 19 20
ATOM$RED        STATIC     ATOMS    COLORGROUP SYSTEM
5 16 17 18 19 20
@<TRIPOS>COMMENT
> <Gold.Version>
2022.2.0

> <Gold.Id.Protein>
1qkm|1qkm_protein|mol2

> <Gold.Protein.RotatedTorsions>
[  496  491  490  487 ] final  119.72 input  -89.99 | X-H torsion

> <Gold.Protein.ActiveResidues>
 MET295  LEU298  THR299  LEU301  ALA302  GLU305  TRP335  MET336  LEU339  MET340 
 GLY342  LEU343  ARG346  PHE356  ILE373  ILE376  PHE377  LEU380  LYS471  GLY472 
 MET473  HIS475  LEU476  LEU477  ASN478  MET479  VAL484  VAL487 

> <Gold.Protein.RotatedAtoms>
   37.0784   32.9429   41.6228 H   0  0  0  0  0  0  0  0  0  0  0  0  # atno 496  bound_to 491 

> <Gold.Score>
     Score     S(PLP)   S(hbond)     S(cho)   S(metal)  DE(clash)   DE(tors)     intcor
     31.10     -28.17       1.00       0.00       0.00       0.00       1.02       1.98

> <Gold.PLP.Fitness>
31.1026

> <Gold.PLP.PLP>
-28.1693

> <Gold.PLP.part.hbond>
-1.0000

> <Gold.PLP.part.metal>
0.0000

> <Gold.PLP.part.buried>
-4.0011

> <Gold.PLP.part.nonpolar>
-23.5179

> <Gold.PLP.part.repulsive>
0.0824

> <Gold.PLP.ligand.clash>
0.0000

> <Gold.PLP.ligand.torsion>
1.0227

> <Gold.PLP.Chemscore.Hbond>
1.0000

> <Gold.PLP.Chemscore.CHOScore>
0.0000

> <Gold.PLP.Chemscore.Metal>
0.0000

> <Gold.Chemscore.Hbonds>
donor molecule, donor type, donor heavy atom, donor atom, acceptor molecule, acceptor atom, score
      L1  H    12    19       P1   470  1.00

> <Gold.PLP.Chemscore.Internal.Correction>
1.9786

