#       Name:                EN300-01211_i001
#       Creating user name   aseyller
#       Creation time:       Fri Apr 21 16:22:49 2023


#       File generated by GOLD software.
#

@<TRIPOS>MOLECULE
EN300-01211_i001|aminophenols|mol2|1|dock1
    20    20     1
SMALL
USER_CHARGES


@<TRIPOS>ATOM
      1 N1          27.8502  35.4982  42.1615 N.pl3          1 <1>                0.0000
      2 C2          27.5821  36.1028  40.9280 C.ar           1 <1>                0.0000
      3 C3          28.6222  36.4087  40.0625 C.ar           1 <1>                0.0000
      4 C4          28.3548  37.0057  38.8450 C.ar           1 <1>                0.0000
      5 C5          27.0522  37.2995  38.4866 C.ar           1 <1>                0.0000
      6 C6          26.0103  36.9974  39.3441 C.ar           1 <1>                0.0000
      7 C7          26.2693  36.3939  40.5636 C.ar           1 <1>                0.0000
      8 O8          25.2454  36.0962  41.4080 O.3            1 <1>                0.0000
      9 S9          29.6772  37.3941  37.7473 S.o2           1 <1>                0.0000
     10 O10         30.8700  36.9613  38.3870 O.2            1 <1>                0.0000
     11 O11         29.2771  36.9415  36.4611 O.2            1 <1>                0.0000
     12 N12         29.7687  39.0449  37.6547 N.pl3          1 <1>                0.0000
     13 H13         29.6407  36.1806  40.3403 H              1 <1>                0.0000
     14 H14         26.8479  37.7663  37.5344 H              1 <1>                0.0000
     15 H15         24.9939  37.2282  39.0610 H              1 <1>                0.0000
     16 H16         28.7644  35.2926  42.4123 H              1 <1>                0.0000
     17 H17         27.1222  35.2885  42.7673 H              1 <1>                0.0000
     18 H18         25.4813  35.4711  42.1071 H              1 <1>                0.0000
     19 H19         29.1579  39.5331  37.0806 H              1 <1>                0.0000
     20 H20         30.4332  39.5237  38.1744 H              1 <1>                0.0000
@<TRIPOS>BOND
    1    1    2 1     
    2    1   16 1     
    3    1   17 1     
    4    2    3 ar    
    5    2    7 ar    
    6    3    4 ar    
    7    3   13 1     
    8    4    5 ar    
    9    4    9 1     
   10    5    6 ar    
   11    5   14 1     
   12    6    7 ar    
   13    6   15 1     
   14    7    8 1     
   15    8   18 1     
   16    9   10 2     
   17    9   11 2     
   18    9   12 1     
   19   12   19 1     
   20   12   20 1     
@<TRIPOS>SUBSTRUCTURE
      1 ****           1
@<TRIPOS>SET
DONOR_HYDROGENS      STATIC     ATOMS    <user>   **** ""
5 16 17 18 19 20
ATOM$RED        STATIC     ATOMS    COLORGROUP SYSTEM
5 16 17 18 19 20
@<TRIPOS>COMMENT
> <Gold.Version>
2022.2.0

> <Gold.Id.Protein>
1qkm|1qkm_protein|mol2

> <Gold.Protein.RotatedTorsions>
[  496  491  490  487 ] final -176.17 input  -89.99 | X-H torsion

> <Gold.Protein.ActiveResidues>
 MET295  LEU298  THR299  LEU301  ALA302  GLU305  TRP335  MET336  LEU339  MET340 
 GLY342  LEU343  ARG346  PHE356  ILE373  ILE376  PHE377  LEU380  LYS471  GLY472 
 MET473  HIS475  LEU476  LEU477  ASN478  MET479  VAL484  VAL487 

> <Gold.Protein.RotatedAtoms>
   37.3146   33.5170   40.8374 H   0  0  0  0  0  0  0  0  0  0  0  0  # atno 496  bound_to 491 

> <Gold.Score>
     Score     S(PLP)   S(hbond)     S(cho)   S(metal)  DE(clash)   DE(tors)     intcor
     40.32     -34.40       2.00       0.00       0.00       0.00       1.03       1.98

> <Gold.PLP.Fitness>
40.3177

> <Gold.PLP.PLP>
-34.4000

> <Gold.PLP.part.hbond>
-2.5618

> <Gold.PLP.part.metal>
0.0000

> <Gold.PLP.part.buried>
-4.5607

> <Gold.PLP.part.nonpolar>
-28.1468

> <Gold.PLP.part.repulsive>
0.1165

> <Gold.PLP.ligand.clash>
0.0000

> <Gold.PLP.ligand.torsion>
1.0305

> <Gold.PLP.Chemscore.Hbond>
2.0000

> <Gold.PLP.Chemscore.CHOScore>
0.0000

> <Gold.PLP.Chemscore.Metal>
0.0000

> <Gold.Chemscore.Hbonds>
donor molecule, donor type, donor heavy atom, donor atom, acceptor molecule, acceptor atom, score
      L1  H     1    17       P1   582  1.00
      L1  H     8    18       P1   582  1.00

> <Gold.PLP.Chemscore.Internal.Correction>
1.9786

