#       Name:                EN300-01211_i001
#       Creating user name   aseyller
#       Creation time:       Fri Apr 21 16:22:48 2023


#       File generated by GOLD software.
#

@<TRIPOS>MOLECULE
EN300-01211_i001
    20    20     1
SMALL
USER_CHARGES


@<TRIPOS>ATOM
      1 N1          -2.2528   1.8516  -0.2304 N.pl3          1 <1>                0.0000
      2 C2          -1.4076   0.7361  -0.2452 C.ar           1 <1>                0.0000
      3 C3          -0.0312   0.9066  -0.2760 C.ar           1 <1>                0.0000
      4 C4           0.8013  -0.1966  -0.2907 C.ar           1 <1>                0.0000
      5 C5           0.2659  -1.4712  -0.2748 C.ar           1 <1>                0.0000
      6 C6          -1.1051  -1.6489  -0.2440 C.ar           1 <1>                0.0000
      7 C7          -1.9462  -0.5486  -0.2234 C.ar           1 <1>                0.0000
      8 O8          -3.2949  -0.7219  -0.1931 O.3            1 <1>                0.0000
      9 S9           2.5493   0.0219  -0.3304 S.o2           1 <1>                0.0000
     10 O10          3.0903  -1.1703  -0.8829 O.2            1 <1>                0.0000
     11 O11          2.7802   1.3098  -0.8847 O.2            1 <1>                0.0000
     12 N12          3.0708   0.0882   1.2399 N.pl3          1 <1>                0.0000
     13 H13          0.3897   1.9012  -0.2889 H              1 <1>                0.0000
     14 H14          0.9202  -2.3303  -0.2867 H              1 <1>                0.0000
     15 H15         -1.5201  -2.6459  -0.2317 H              1 <1>                0.0000
     16 H16         -1.8763   2.7455  -0.2417 H              1 <1>                0.0000
     17 H17         -3.2151   1.7308  -0.2129 H              1 <1>                0.0000
     18 H18         -3.6649  -0.7734   0.6988 H              1 <1>                0.0000
     19 H19          2.4331   0.0090   1.9665 H              1 <1>                0.0000
     20 H20          4.0140   0.2063   1.4331 H              1 <1>                0.0000
@<TRIPOS>BOND
    1    1    2 1     
    2    1   16 1     
    3    1   17 1     
    4    2    3 ar    
    5    2    7 ar    
    6    3    4 ar    
    7    3   13 1     
    8    4    5 ar    
    9    4    9 1     
   10    5    6 ar    
   11    5   14 1     
   12    6    7 ar    
   13    6   15 1     
   14    7    8 1     
   15    8   18 1     
   16    9   10 2     
   17    9   11 2     
   18    9   12 1     
   19   12   19 1     
   20   12   20 1     
@<TRIPOS>SUBSTRUCTURE
      1 ****           1
@<TRIPOS>SET
DONOR_HYDROGENS      STATIC     ATOMS    <user>   **** ""
5 16 17 18 19 20
ATOM$RED        STATIC     ATOMS    COLORGROUP SYSTEM
5 16 17 18 19 20
