#       Name:                EN300-01211_i001
#       Creating user name   aseyller
#       Creation time:       Fri Apr 21 16:22:57 2023


#       File generated by GOLD software.
#

@<TRIPOS>MOLECULE
EN300-01211_i001|aminophenols|mol2|1|dock10
    20    20     1
SMALL
USER_CHARGES


@<TRIPOS>ATOM
      1 N1          29.6825  35.8860  40.6572 N.pl3          1 <1>                0.0000
      2 C2          29.6035  36.3676  39.3454 C.ar           1 <1>                0.0000
      3 C3          30.7069  36.2898  38.5082 C.ar           1 <1>                0.0000
      4 C4          30.6264  36.7662  37.2133 C.ar           1 <1>                0.0000
      5 C5          29.4481  37.3208  36.7491 C.ar           1 <1>                0.0000
      6 C6          28.3441  37.4016  37.5779 C.ar           1 <1>                0.0000
      7 C7          28.4147  36.9214  38.8751 C.ar           1 <1>                0.0000
      8 O8          27.3296  37.0002  39.6914 O.3            1 <1>                0.0000
      9 S9          32.0291  36.6670  36.1515 S.o2           1 <1>                0.0000
     10 O10         32.6990  37.9160  36.2539 O.2            1 <1>                0.0000
     11 O11         32.6569  35.4233  36.4312 O.2            1 <1>                0.0000
     12 N12         31.4624  36.5662  34.5988 N.pl3          1 <1>                0.0000
     13 H13         31.6288  35.8574  38.8684 H              1 <1>                0.0000
     14 H14         29.3898  37.6921  35.7367 H              1 <1>                0.0000
     15 H15         27.4251  37.8355  37.2122 H              1 <1>                0.0000
     16 H16         30.5096  35.4971  40.9821 H              1 <1>                0.0000
     17 H17         28.9113  35.9446  41.2427 H              1 <1>                0.0000
     18 H18         27.5419  37.2273  40.6070 H              1 <1>                0.0000
     19 H19         31.8817  35.9604  33.9679 H              1 <1>                0.0000
     20 H20         30.7113  37.1131  34.3202 H              1 <1>                0.0000
@<TRIPOS>BOND
    1    1    2 1     
    2    1   16 1     
    3    1   17 1     
    4    2    3 ar    
    5    2    7 ar    
    6    3    4 ar    
    7    3   13 1     
    8    4    5 ar    
    9    4    9 1     
   10    5    6 ar    
   11    5   14 1     
   12    6    7 ar    
   13    6   15 1     
   14    7    8 1     
   15    8   18 1     
   16    9   10 2     
   17    9   11 2     
   18    9   12 1     
   19   12   19 1     
   20   12   20 1     
@<TRIPOS>SUBSTRUCTURE
      1 ****           1
@<TRIPOS>SET
DONOR_HYDROGENS      STATIC     ATOMS    <user>   **** ""
5 16 17 18 19 20
ATOM$RED        STATIC     ATOMS    COLORGROUP SYSTEM
5 16 17 18 19 20
@<TRIPOS>COMMENT
> <Gold.Version>
2022.2.0

> <Gold.Id.Protein>
1qkm|1qkm_protein|mol2

> <Gold.Protein.RotatedTorsions>
[  496  491  490  487 ] final   76.93 input  -89.99 | X-H torsion

> <Gold.Protein.ActiveResidues>
 MET295  LEU298  THR299  LEU301  ALA302  GLU305  TRP335  MET336  LEU339  MET340 
 GLY342  LEU343  ARG346  PHE356  ILE373  ILE376  PHE377  LEU380  LYS471  GLY472 
 MET473  HIS475  LEU476  LEU477  ASN478  MET479  VAL484  VAL487 

> <Gold.Protein.RotatedAtoms>
   36.6998   33.1281   42.1667 H   0  0  0  0  0  0  0  0  0  0  0  0  # atno 496  bound_to 491 

> <Gold.Score>
     Score     S(PLP)   S(hbond)     S(cho)   S(metal)  DE(clash)   DE(tors)     intcor
     31.74     -27.04       1.71       0.00       0.00       0.00       1.20       1.98

> <Gold.PLP.Fitness>
31.7388

> <Gold.PLP.PLP>
-27.0432

> <Gold.PLP.part.hbond>
-2.0000

> <Gold.PLP.part.metal>
0.0000

> <Gold.PLP.part.buried>
-3.7255

> <Gold.PLP.part.nonpolar>
-21.4311

> <Gold.PLP.part.repulsive>
0.1677

> <Gold.PLP.ligand.clash>
0.0000

> <Gold.PLP.ligand.torsion>
1.2000

> <Gold.PLP.Chemscore.Hbond>
1.7056

> <Gold.PLP.Chemscore.CHOScore>
0.0000

> <Gold.PLP.Chemscore.Metal>
0.0000

> <Gold.Chemscore.Hbonds>
donor molecule, donor type, donor heavy atom, donor atom, acceptor molecule, acceptor atom, score
      L1  H     1    16       P1   470  1.00
      L1  H    12    19       P1  3187  0.71

> <Gold.PLP.Chemscore.Internal.Correction>
1.9786

