#       Name:                EN300-01211_i001
#       Creating user name   aseyller
#       Creation time:       Fri Apr 21 16:22:53 2023


#       File generated by GOLD software.
#

@<TRIPOS>MOLECULE
EN300-01211_i001|aminophenols|mol2|1|dock6
    20    20     1
SMALL
USER_CHARGES


@<TRIPOS>ATOM
      1 N1          27.6735  35.5539  42.1483 N.pl3          1 <1>                0.0000
      2 C2          27.2412  36.2711  41.0269 C.ar           1 <1>                0.0000
      3 C3          28.1580  36.6927  40.0749 C.ar           1 <1>                0.0000
      4 C4          27.7286  37.4010  38.9685 C.ar           1 <1>                0.0000
      5 C5          26.3865  37.6911  38.8073 C.ar           1 <1>                0.0000
      6 C6          25.4668  37.2741  39.7521 C.ar           1 <1>                0.0000
      7 C7          25.8882  36.5590  40.8609 C.ar           1 <1>                0.0000
      8 O8          24.9848  36.1482  41.7910 O.3            1 <1>                0.0000
      9 S9          28.8946  37.9360  37.7606 S.o2           1 <1>                0.0000
     10 O10         28.2548  38.9597  37.0110 O.2            1 <1>                0.0000
     11 O11         30.1239  38.1283  38.4471 O.2            1 <1>                0.0000
     12 N12         29.1342  36.6726  36.7172 N.pl3          1 <1>                0.0000
     13 H13         29.2072  36.4677  40.1986 H              1 <1>                0.0000
     14 H14         26.0555  38.2451  37.9414 H              1 <1>                0.0000
     15 H15         24.4192  37.5025  39.6232 H              1 <1>                0.0000
     16 H16         28.6154  35.3508  42.2607 H              1 <1>                0.0000
     17 H17         27.0318  35.2632  42.8151 H              1 <1>                0.0000
     18 H18         25.3324  35.4981  42.4167 H              1 <1>                0.0000
     19 H19         29.1790  35.7651  37.0566 H              1 <1>                0.0000
     20 H20         29.2299  36.8402  35.7666 H              1 <1>                0.0000
@<TRIPOS>BOND
    1    1    2 1     
    2    1   16 1     
    3    1   17 1     
    4    2    3 ar    
    5    2    7 ar    
    6    3    4 ar    
    7    3   13 1     
    8    4    5 ar    
    9    4    9 1     
   10    5    6 ar    
   11    5   14 1     
   12    6    7 ar    
   13    6   15 1     
   14    7    8 1     
   15    8   18 1     
   16    9   10 2     
   17    9   11 2     
   18    9   12 1     
   19   12   19 1     
   20   12   20 1     
@<TRIPOS>SUBSTRUCTURE
      1 ****           1
@<TRIPOS>SET
DONOR_HYDROGENS      STATIC     ATOMS    <user>   **** ""
5 16 17 18 19 20
ATOM$RED        STATIC     ATOMS    COLORGROUP SYSTEM
5 16 17 18 19 20
@<TRIPOS>COMMENT
> <Gold.Version>
2022.2.0

> <Gold.Id.Protein>
1qkm|1qkm_protein|mol2

> <Gold.Protein.RotatedTorsions>
[  496  491  490  487 ] final   35.54 input  -89.99 | X-H torsion

> <Gold.Protein.ActiveResidues>
 MET295  LEU298  THR299  LEU301  ALA302  GLU305  TRP335  MET336  LEU339  MET340 
 GLY342  LEU343  ARG346  PHE356  ILE373  ILE376  PHE377  LEU380  LYS471  GLY472 
 MET473  HIS475  LEU476  LEU477  ASN478  MET479  VAL484  VAL487 

> <Gold.Protein.RotatedAtoms>
   36.3766   33.6694   42.3832 H   0  0  0  0  0  0  0  0  0  0  0  0  # atno 496  bound_to 491 

> <Gold.Score>
     Score     S(PLP)   S(hbond)     S(cho)   S(metal)  DE(clash)   DE(tors)     intcor
     40.77     -32.71       2.69       0.00       0.00       0.00       0.99       1.98

> <Gold.PLP.Fitness>
40.7716

> <Gold.PLP.PLP>
-32.7080

> <Gold.PLP.part.hbond>
-3.3992

> <Gold.PLP.part.metal>
0.0000

> <Gold.PLP.part.buried>
-3.2688

> <Gold.PLP.part.nonpolar>
-25.5914

> <Gold.PLP.part.repulsive>
0.0681

> <Gold.PLP.ligand.clash>
0.0000

> <Gold.PLP.ligand.torsion>
0.9918

> <Gold.PLP.Chemscore.Hbond>
2.6895

> <Gold.PLP.Chemscore.CHOScore>
0.0000

> <Gold.PLP.Chemscore.Metal>
0.0000

> <Gold.Chemscore.Hbonds>
donor molecule, donor type, donor heavy atom, donor atom, acceptor molecule, acceptor atom, score
      L1  H     1    17       P1   582  1.00
      L1  H     8    18       P1   582  1.00
      P1  H  1258  1270       L1     8  0.69

> <Gold.PLP.Chemscore.Internal.Correction>
1.9786

