#       Name:                EN300-01211_i001
#       Creating user name   aseyller
#       Creation time:       Fri Apr 21 16:23:03 2023


#       File generated by GOLD software.
#

@<TRIPOS>MOLECULE
EN300-01211_i001|aminophenols|mol2|1|dock17
    20    20     1
SMALL
USER_CHARGES


@<TRIPOS>ATOM
      1 N1          29.5674  35.9025  40.5852 N.pl3          1 <1>                0.0000
      2 C2          29.0036  36.6464  39.5423 C.ar           1 <1>                0.0000
      3 C3          29.8215  37.3237  38.6498 C.ar           1 <1>                0.0000
      4 C4          29.2623  38.0578  37.6208 C.ar           1 <1>                0.0000
      5 C5          27.8885  38.1191  37.4781 C.ar           1 <1>                0.0000
      6 C6          27.0669  37.4465  38.3639 C.ar           1 <1>                0.0000
      7 C7          27.6194  36.7040  39.3944 C.ar           1 <1>                0.0000
      8 O8          26.8125  36.0419  40.2664 O.3            1 <1>                0.0000
      9 S9          30.3028  38.9180  36.4884 S.o2           1 <1>                0.0000
     10 O10         29.9454  38.4635  35.1904 O.2            1 <1>                0.0000
     11 O11         30.2664  40.2863  36.8701 O.2            1 <1>                0.0000
     12 N12         31.8525  38.3990  36.7554 N.pl3          1 <1>                0.0000
     13 H13         30.8950  37.2778  38.7592 H              1 <1>                0.0000
     14 H14         27.4559  38.6942  36.6728 H              1 <1>                0.0000
     15 H15         25.9941  37.4965  38.2496 H              1 <1>                0.0000
     16 H16         30.5313  35.8600  40.6847 H              1 <1>                0.0000
     17 H17         28.9941  35.4325  41.2109 H              1 <1>                0.0000
     18 H18         26.7453  35.0923  40.0966 H              1 <1>                0.0000
     19 H19         32.5825  39.0375  36.7674 H              1 <1>                0.0000
     20 H20         32.0302  37.4564  36.8997 H              1 <1>                0.0000
@<TRIPOS>BOND
    1    1    2 1     
    2    1   16 1     
    3    1   17 1     
    4    2    3 ar    
    5    2    7 ar    
    6    3    4 ar    
    7    3   13 1     
    8    4    5 ar    
    9    4    9 1     
   10    5    6 ar    
   11    5   14 1     
   12    6    7 ar    
   13    6   15 1     
   14    7    8 1     
   15    8   18 1     
   16    9   10 2     
   17    9   11 2     
   18    9   12 1     
   19   12   19 1     
   20   12   20 1     
@<TRIPOS>SUBSTRUCTURE
      1 ****           1
@<TRIPOS>SET
DONOR_HYDROGENS      STATIC     ATOMS    <user>   **** ""
5 16 17 18 19 20
ATOM$RED        STATIC     ATOMS    COLORGROUP SYSTEM
5 16 17 18 19 20
@<TRIPOS>COMMENT
> <Gold.Version>
2022.2.0

> <Gold.Id.Protein>
1qkm|1qkm_protein|mol2

> <Gold.Protein.RotatedTorsions>
[  496  491  490  487 ] final -102.59 input  -89.99 | X-H torsion

> <Gold.Protein.ActiveResidues>
 MET295  LEU298  THR299  LEU301  ALA302  GLU305  TRP335  MET336  LEU339  MET340 
 GLY342  LEU343  ARG346  PHE356  ILE373  ILE376  PHE377  LEU380  LYS471  GLY472 
 MET473  HIS475  LEU476  LEU477  ASN478  MET479  VAL484  VAL487 

> <Gold.Protein.RotatedAtoms>
   36.8734   34.5517   40.9414 H   0  0  0  0  0  0  0  0  0  0  0  0  # atno 496  bound_to 491 

> <Gold.Score>
     Score     S(PLP)   S(hbond)     S(cho)   S(metal)  DE(clash)   DE(tors)     intcor
     31.26     -29.64       0.71       0.00       0.00       0.00       1.25       1.98

> <Gold.PLP.Fitness>
31.2585

> <Gold.PLP.PLP>
-29.6408

> <Gold.PLP.part.hbond>
-1.0000

> <Gold.PLP.part.metal>
0.0000

> <Gold.PLP.part.buried>
-3.3170

> <Gold.PLP.part.nonpolar>
-25.0541

> <Gold.PLP.part.repulsive>
0.0648

> <Gold.PLP.ligand.clash>
0.0000

> <Gold.PLP.ligand.torsion>
1.2510

> <Gold.PLP.Chemscore.Hbond>
0.7137

> <Gold.PLP.Chemscore.CHOScore>
0.0000

> <Gold.PLP.Chemscore.Metal>
0.0000

> <Gold.Chemscore.Hbonds>
donor molecule, donor type, donor heavy atom, donor atom, acceptor molecule, acceptor atom, score
      L1  H     1    16       P1   470  0.71

> <Gold.PLP.Chemscore.Internal.Correction>
1.9786

