#       Name:                EN300-01211_i001
#       Creating user name   aseyller
#       Creation time:       Fri Apr 21 16:23:01 2023


#       File generated by GOLD software.
#

@<TRIPOS>MOLECULE
EN300-01211_i001|aminophenols|mol2|1|dock14
    20    20     1
SMALL
USER_CHARGES


@<TRIPOS>ATOM
      1 N1          29.2257  35.8028  41.1363 N.pl3          1 <1>                0.0000
      2 C2          28.9134  36.3654  39.8934 C.ar           1 <1>                0.0000
      3 C3          29.9268  36.7021  39.0079 C.ar           1 <1>                0.0000
      4 C4          29.6158  37.2577  37.7811 C.ar           1 <1>                0.0000
      5 C5          28.2962  37.4792  37.4333 C.ar           1 <1>                0.0000
      6 C6          27.2807  37.1460  38.3108 C.ar           1 <1>                0.0000
      7 C7          27.5836  36.5836  39.5398 C.ar           1 <1>                0.0000
      8 O8          26.5858  36.2554  40.4039 O.3            1 <1>                0.0000
      9 S9          30.9044  37.6852  36.6579 S.o2           1 <1>                0.0000
     10 O10         30.7682  36.8167  35.5415 O.2            1 <1>                0.0000
     11 O11         30.8864  39.1018  36.5471 O.2            1 <1>                0.0000
     12 N12         32.3391  37.2911  37.3848 N.pl3          1 <1>                0.0000
     13 H13         30.9586  36.5306  39.2772 H              1 <1>                0.0000
     14 H14         28.0578  37.9137  36.4738 H              1 <1>                0.0000
     15 H15         26.2509  37.3203  38.0360 H              1 <1>                0.0000
     16 H16         30.1519  35.6479  41.3796 H              1 <1>                0.0000
     17 H17         28.5162  35.5715  41.7561 H              1 <1>                0.0000
     18 H18         25.7053  36.2500  40.0042 H              1 <1>                0.0000
     19 H19         32.6131  37.7469  38.1960 H              1 <1>                0.0000
     20 H20         32.9055  36.6045  36.9993 H              1 <1>                0.0000
@<TRIPOS>BOND
    1    1    2 1     
    2    1   16 1     
    3    1   17 1     
    4    2    3 ar    
    5    2    7 ar    
    6    3    4 ar    
    7    3   13 1     
    8    4    5 ar    
    9    4    9 1     
   10    5    6 ar    
   11    5   14 1     
   12    6    7 ar    
   13    6   15 1     
   14    7    8 1     
   15    8   18 1     
   16    9   10 2     
   17    9   11 2     
   18    9   12 1     
   19   12   19 1     
   20   12   20 1     
@<TRIPOS>SUBSTRUCTURE
      1 ****           1
@<TRIPOS>SET
DONOR_HYDROGENS      STATIC     ATOMS    <user>   **** ""
5 16 17 18 19 20
ATOM$RED        STATIC     ATOMS    COLORGROUP SYSTEM
5 16 17 18 19 20
@<TRIPOS>COMMENT
> <Gold.Version>
2022.2.0

> <Gold.Id.Protein>
1qkm|1qkm_protein|mol2

> <Gold.Protein.RotatedTorsions>
[  496  491  490  487 ] final  140.48 input  -89.99 | X-H torsion

> <Gold.Protein.ActiveResidues>
 MET295  LEU298  THR299  LEU301  ALA302  GLU305  TRP335  MET336  LEU339  MET340 
 GLY342  LEU343  ARG346  PHE356  ILE373  ILE376  PHE377  LEU380  LYS471  GLY472 
 MET473  HIS475  LEU476  LEU477  ASN478  MET479  VAL484  VAL487 

> <Gold.Protein.RotatedAtoms>
   37.2169   33.0286   41.3245 H   0  0  0  0  0  0  0  0  0  0  0  0  # atno 496  bound_to 491 

> <Gold.Score>
     Score     S(PLP)   S(hbond)     S(cho)   S(metal)  DE(clash)   DE(tors)     intcor
     31.96     -29.50       1.00       0.00       0.00       0.00       1.26       1.98

> <Gold.PLP.Fitness>
31.9597

> <Gold.PLP.PLP>
-29.5024

> <Gold.PLP.part.hbond>
-1.0000

> <Gold.PLP.part.metal>
0.0000

> <Gold.PLP.part.buried>
-4.7502

> <Gold.PLP.part.nonpolar>
-24.2998

> <Gold.PLP.part.repulsive>
0.1212

> <Gold.PLP.ligand.clash>
0.0000

> <Gold.PLP.ligand.torsion>
1.2607

> <Gold.PLP.Chemscore.Hbond>
1.0000

> <Gold.PLP.Chemscore.CHOScore>
0.0000

> <Gold.PLP.Chemscore.Metal>
0.0000

> <Gold.Chemscore.Hbonds>
donor molecule, donor type, donor heavy atom, donor atom, acceptor molecule, acceptor atom, score
      L1  H     1    16       P1   470  1.00

> <Gold.PLP.Chemscore.Internal.Correction>
1.9786

