#       Name:                EN300-01211_i001
#       Creating user name   aseyller
#       Creation time:       Fri Apr 21 16:22:52 2023


#       File generated by GOLD software.
#

@<TRIPOS>MOLECULE
EN300-01211_i001|aminophenols|mol2|1|dock5
    20    20     1
SMALL
USER_CHARGES


@<TRIPOS>ATOM
      1 N1          29.1986  35.8137  41.6965 N.pl3          1 <1>                0.0000
      2 C2          28.6284  36.2750  40.5045 C.ar           1 <1>                0.0000
      3 C3          29.4345  36.8024  39.5062 C.ar           1 <1>                0.0000
      4 C4          28.8690  37.2574  38.3300 C.ar           1 <1>                0.0000
      5 C5          27.5005  37.1886  38.1451 C.ar           1 <1>                0.0000
      6 C6          26.6907  36.6642  39.1357 C.ar           1 <1>                0.0000
      7 C7          27.2501  36.2008  40.3150 C.ar           1 <1>                0.0000
      8 O8          26.4548  35.6847  41.2902 O.3            1 <1>                0.0000
      9 S9          29.8944  37.9274  37.0634 S.o2           1 <1>                0.0000
     10 O10         29.7336  37.0858  35.9298 O.2            1 <1>                0.0000
     11 O11         29.6376  39.3248  37.0364 O.2            1 <1>                0.0000
     12 N12         31.4645  37.7499  37.5587 N.pl3          1 <1>                0.0000
     13 H13         30.5038  36.8577  39.6482 H              1 <1>                0.0000
     14 H14         27.0629  37.5457  37.2245 H              1 <1>                0.0000
     15 H15         25.6221  36.6119  38.9880 H              1 <1>                0.0000
     16 H16         30.1588  35.8624  41.8255 H              1 <1>                0.0000
     17 H17         28.6333  35.4488  42.3952 H              1 <1>                0.0000
     18 H18         25.8798  36.3361  41.7146 H              1 <1>                0.0000
     19 H19         31.7201  38.0011  38.4600 H              1 <1>                0.0000
     20 H20         32.1287  37.3947  36.9474 H              1 <1>                0.0000
@<TRIPOS>BOND
    1    1    2 1     
    2    1   16 1     
    3    1   17 1     
    4    2    3 ar    
    5    2    7 ar    
    6    3    4 ar    
    7    3   13 1     
    8    4    5 ar    
    9    4    9 1     
   10    5    6 ar    
   11    5   14 1     
   12    6    7 ar    
   13    6   15 1     
   14    7    8 1     
   15    8   18 1     
   16    9   10 2     
   17    9   11 2     
   18    9   12 1     
   19   12   19 1     
   20   12   20 1     
@<TRIPOS>SUBSTRUCTURE
      1 ****           1
@<TRIPOS>SET
DONOR_HYDROGENS      STATIC     ATOMS    <user>   **** ""
5 16 17 18 19 20
ATOM$RED        STATIC     ATOMS    COLORGROUP SYSTEM
5 16 17 18 19 20
@<TRIPOS>COMMENT
> <Gold.Version>
2022.2.0

> <Gold.Id.Protein>
1qkm|1qkm_protein|mol2

> <Gold.Protein.RotatedTorsions>
[  496  491  490  487 ] final    3.33 input  -89.99 | X-H torsion

> <Gold.Protein.ActiveResidues>
 MET295  LEU298  THR299  LEU301  ALA302  GLU305  TRP335  MET336  LEU339  MET340 
 GLY342  LEU343  ARG346  PHE356  ILE373  ILE376  PHE377  LEU380  LYS471  GLY472 
 MET473  HIS475  LEU476  LEU477  ASN478  MET479  VAL484  VAL487 

> <Gold.Protein.RotatedAtoms>
   36.2624   34.1656   42.2624 H   0  0  0  0  0  0  0  0  0  0  0  0  # atno 496  bound_to 491 

> <Gold.Score>
     Score     S(PLP)   S(hbond)     S(cho)   S(metal)  DE(clash)   DE(tors)     intcor
     35.30     -32.84       1.00       0.00       0.00       0.00       1.26       1.98

> <Gold.PLP.Fitness>
35.3049

> <Gold.PLP.PLP>
-32.8446

> <Gold.PLP.part.hbond>
-2.0000

> <Gold.PLP.part.metal>
0.0000

> <Gold.PLP.part.buried>
-4.1508

> <Gold.PLP.part.nonpolar>
-26.8830

> <Gold.PLP.part.repulsive>
0.0945

> <Gold.PLP.ligand.clash>
0.0000

> <Gold.PLP.ligand.torsion>
1.2592

> <Gold.PLP.Chemscore.Hbond>
1.0000

> <Gold.PLP.Chemscore.CHOScore>
0.0000

> <Gold.PLP.Chemscore.Metal>
0.0000

> <Gold.Chemscore.Hbonds>
donor molecule, donor type, donor heavy atom, donor atom, acceptor molecule, acceptor atom, score
      L1  H     1    16       P1   470  1.00

> <Gold.PLP.Chemscore.Internal.Correction>
1.9786

