#       Name:                EN300-01211_i001
#       Creating user name   aseyller
#       Creation time:       Fri Apr 21 16:23:06 2023


#       File generated by GOLD software.
#

@<TRIPOS>MOLECULE
EN300-01211_i001|aminophenols|mol2|1|dock20
    20    20     1
SMALL
USER_CHARGES


@<TRIPOS>ATOM
      1 N1          28.9139  35.8039  42.2019 N.pl3          1 <1>                0.0000
      2 C2          28.5351  36.1983  40.9135 C.ar           1 <1>                0.0000
      3 C3          29.4592  36.1753  39.8791 C.ar           1 <1>                0.0000
      4 C4          29.0827  36.5654  38.6078 C.ar           1 <1>                0.0000
      5 C5          27.7863  36.9790  38.3634 C.ar           1 <1>                0.0000
      6 C6          26.8597  37.0045  39.3895 C.ar           1 <1>                0.0000
      7 C7          27.2274  36.6097  40.6652 C.ar           1 <1>                0.0000
      8 O8          26.3171  36.6343  41.6755 O.3            1 <1>                0.0000
      9 S9          30.2580  36.5360  37.2953 S.o2           1 <1>                0.0000
     10 O10         30.8889  35.2640  37.3499 O.2            1 <1>                0.0000
     11 O11         29.5836  37.0201  36.1419 O.2            1 <1>                0.0000
     12 N12         31.4255  37.6531  37.6577 N.pl3          1 <1>                0.0000
     13 H13         30.4727  35.8530  40.0674 H              1 <1>                0.0000
     14 H14         27.4966  37.2832  37.3685 H              1 <1>                0.0000
     15 H15         25.8478  37.3282  39.1952 H              1 <1>                0.0000
     16 H16         29.8237  35.5139  42.3725 H              1 <1>                0.0000
     17 H17         28.2677  35.8242  42.9250 H              1 <1>                0.0000
     18 H18         26.4227  35.9190  42.3176 H              1 <1>                0.0000
     19 H19         31.1903  38.5903  37.7429 H              1 <1>                0.0000
     20 H20         32.3446  37.3702  37.7846 H              1 <1>                0.0000
@<TRIPOS>BOND
    1    1    2 1     
    2    1   16 1     
    3    1   17 1     
    4    2    3 ar    
    5    2    7 ar    
    6    3    4 ar    
    7    3   13 1     
    8    4    5 ar    
    9    4    9 1     
   10    5    6 ar    
   11    5   14 1     
   12    6    7 ar    
   13    6   15 1     
   14    7    8 1     
   15    8   18 1     
   16    9   10 2     
   17    9   11 2     
   18    9   12 1     
   19   12   19 1     
   20   12   20 1     
@<TRIPOS>SUBSTRUCTURE
      1 ****           1
@<TRIPOS>SET
DONOR_HYDROGENS      STATIC     ATOMS    <user>   **** ""
5 16 17 18 19 20
ATOM$RED        STATIC     ATOMS    COLORGROUP SYSTEM
5 16 17 18 19 20
@<TRIPOS>COMMENT
> <Gold.Version>
2022.2.0

> <Gold.Id.Protein>
1qkm|1qkm_protein|mol2

> <Gold.Protein.RotatedTorsions>
[  496  491  490  487 ] final    0.81 input  -89.99 | X-H torsion

> <Gold.Protein.ActiveResidues>
 MET295  LEU298  THR299  LEU301  ALA302  GLU305  TRP335  MET336  LEU339  MET340 
 GLY342  LEU343  ARG346  PHE356  ILE373  ILE376  PHE377  LEU380  LYS471  GLY472 
 MET473  HIS475  LEU476  LEU477  ASN478  MET479  VAL484  VAL487 

> <Gold.Protein.RotatedAtoms>
   36.2602   34.2020   42.2427 H   0  0  0  0  0  0  0  0  0  0  0  0  # atno 496  bound_to 491 

> <Gold.Score>
     Score     S(PLP)   S(hbond)     S(cho)   S(metal)  DE(clash)   DE(tors)     intcor
     33.12     -27.27       1.98       0.00       0.00       0.00       1.04       1.98

> <Gold.PLP.Fitness>
33.1237

> <Gold.PLP.PLP>
-27.2730

> <Gold.PLP.part.hbond>
-2.0000

> <Gold.PLP.part.metal>
0.0000

> <Gold.PLP.part.buried>
-1.1578

> <Gold.PLP.part.nonpolar>
-25.2150

> <Gold.PLP.part.repulsive>
0.1086

> <Gold.PLP.ligand.clash>
0.0000

> <Gold.PLP.ligand.torsion>
1.0377

> <Gold.PLP.Chemscore.Hbond>
1.9825

> <Gold.PLP.Chemscore.CHOScore>
0.0000

> <Gold.PLP.Chemscore.Metal>
0.0000

> <Gold.Chemscore.Hbonds>
donor molecule, donor type, donor heavy atom, donor atom, acceptor molecule, acceptor atom, score
      L1  H     1    16       P1   470  0.99
      L1  H     8    18       P1   582  0.99

> <Gold.PLP.Chemscore.Internal.Correction>
1.9786

