#       Name:                EN300-01211_i001
#       Creating user name   aseyller
#       Creation time:       Fri Apr 21 16:23:02 2023


#       File generated by GOLD software.
#

@<TRIPOS>MOLECULE
EN300-01211_i001|aminophenols|mol2|1|dock16
    20    20     1
SMALL
USER_CHARGES


@<TRIPOS>ATOM
      1 N1          27.6756  35.6171  42.2397 N.pl3          1 <1>                0.0000
      2 C2          27.2665  36.2860  41.0803 C.ar           1 <1>                0.0000
      3 C3          28.1980  36.6357  40.1136 C.ar           1 <1>                0.0000
      4 C4          27.7915  37.2963  38.9696 C.ar           1 <1>                0.0000
      5 C5          26.4577  37.6101  38.7855 C.ar           1 <1>                0.0000
      6 C6          25.5235  37.2645  39.7447 C.ar           1 <1>                0.0000
      7 C7          25.9218  36.5974  40.8913 C.ar           1 <1>                0.0000
      8 O8          25.0040  36.2569  41.8356 O.3            1 <1>                0.0000
      9 S9          28.9762  37.7402  37.7432 S.o2           1 <1>                0.0000
     10 O10         29.8197  38.7185  38.3354 O.2            1 <1>                0.0000
     11 O11         29.4634  36.5224  37.1964 O.2            1 <1>                0.0000
     12 N12         28.1568  38.5054  36.5244 N.pl3          1 <1>                0.0000
     13 H13         29.2407  36.3922  40.2551 H              1 <1>                0.0000
     14 H14         26.1446  38.1266  37.8902 H              1 <1>                0.0000
     15 H15         24.4823  37.5111  39.5977 H              1 <1>                0.0000
     16 H16         28.6117  35.3974  42.3681 H              1 <1>                0.0000
     17 H17         27.0237  35.3767  42.9165 H              1 <1>                0.0000
     18 H18         25.2978  35.5579  42.4357 H              1 <1>                0.0000
     19 H19         27.2679  38.8589  36.6849 H              1 <1>                0.0000
     20 H20         28.5658  38.6000  35.6499 H              1 <1>                0.0000
@<TRIPOS>BOND
    1    1    2 1     
    2    1   16 1     
    3    1   17 1     
    4    2    3 ar    
    5    2    7 ar    
    6    3    4 ar    
    7    3   13 1     
    8    4    5 ar    
    9    4    9 1     
   10    5    6 ar    
   11    5   14 1     
   12    6    7 ar    
   13    6   15 1     
   14    7    8 1     
   15    8   18 1     
   16    9   10 2     
   17    9   11 2     
   18    9   12 1     
   19   12   19 1     
   20   12   20 1     
@<TRIPOS>SUBSTRUCTURE
      1 ****           1
@<TRIPOS>SET
DONOR_HYDROGENS      STATIC     ATOMS    <user>   **** ""
5 16 17 18 19 20
ATOM$RED        STATIC     ATOMS    COLORGROUP SYSTEM
5 16 17 18 19 20
@<TRIPOS>COMMENT
> <Gold.Version>
2022.2.0

> <Gold.Id.Protein>
1qkm|1qkm_protein|mol2

> <Gold.Protein.RotatedTorsions>
[  496  491  490  487 ] final   69.54 input  -89.99 | X-H torsion

> <Gold.Protein.ActiveResidues>
 MET295  LEU298  THR299  LEU301  ALA302  GLU305  TRP335  MET336  LEU339  MET340 
 GLY342  LEU343  ARG346  PHE356  ILE373  ILE376  PHE377  LEU380  LYS471  GLY472 
 MET473  HIS475  LEU476  LEU477  ASN478  MET479  VAL484  VAL487 

> <Gold.Protein.RotatedAtoms>
   36.6333   33.2048   42.2336 H   0  0  0  0  0  0  0  0  0  0  0  0  # atno 496  bound_to 491 

> <Gold.Score>
     Score     S(PLP)   S(hbond)     S(cho)   S(metal)  DE(clash)   DE(tors)     intcor
     37.35     -29.78       2.70       0.00       0.00       0.00       1.26       1.98

> <Gold.PLP.Fitness>
37.3483

> <Gold.PLP.PLP>
-29.7832

> <Gold.PLP.part.hbond>
-3.1158

> <Gold.PLP.part.metal>
0.0000

> <Gold.PLP.part.buried>
0.2949

> <Gold.PLP.part.nonpolar>
-26.8691

> <Gold.PLP.part.repulsive>
0.0677

> <Gold.PLP.ligand.clash>
0.0000

> <Gold.PLP.ligand.torsion>
1.2607

> <Gold.PLP.Chemscore.Hbond>
2.7026

> <Gold.PLP.Chemscore.CHOScore>
0.0000

> <Gold.PLP.Chemscore.Metal>
0.0000

> <Gold.Chemscore.Hbonds>
donor molecule, donor type, donor heavy atom, donor atom, acceptor molecule, acceptor atom, score
      L1  H     1    17       P1   582  0.99
      L1  H     8    18       P1   582  1.00
      P1  H  1258  1270       L1     8  0.71

> <Gold.PLP.Chemscore.Internal.Correction>
1.9786

