#       Name:                EN300-01211_i001
#       Creating user name   aseyller
#       Creation time:       Fri Apr 21 16:22:55 2023


#       File generated by GOLD software.
#

@<TRIPOS>MOLECULE
EN300-01211_i001|aminophenols|mol2|1|dock8
    20    20     1
SMALL
USER_CHARGES


@<TRIPOS>ATOM
      1 N1          29.0924  35.8574  41.3098 N.pl3          1 <1>                0.0000
      2 C2          28.7008  36.4390  40.0985 C.ar           1 <1>                0.0000
      3 C3          29.6582  36.9002  39.2067 C.ar           1 <1>                0.0000
      4 C4          29.2689  37.4743  38.0112 C.ar           1 <1>                0.0000
      5 C5          27.9267  37.5906  37.7010 C.ar           1 <1>                0.0000
      6 C6          26.9667  37.1331  38.5849 C.ar           1 <1>                0.0000
      7 C7          27.3486  36.5514  39.7825 C.ar           1 <1>                0.0000
      8 O8          26.4055  36.1009  40.6529 O.3            1 <1>                0.0000
      9 S9          30.4864  38.0601  36.8800 S.o2           1 <1>                0.0000
     10 O10         30.2690  39.4578  36.7448 O.2            1 <1>                0.0000
     11 O11         31.7246  37.5031  37.2992 O.2            1 <1>                0.0000
     12 N12         30.1475  37.3892  35.4044 N.pl3          1 <1>                0.0000
     13 H13         30.7075  36.8110  39.4468 H              1 <1>                0.0000
     14 H14         27.6271  38.0402  36.7658 H              1 <1>                0.0000
     15 H15         25.9191  37.2255  38.3395 H              1 <1>                0.0000
     16 H16         30.0344  35.7763  41.5267 H              1 <1>                0.0000
     17 H17         28.4218  35.5389  41.9341 H              1 <1>                0.0000
     18 H18         26.7587  35.5514  41.3659 H              1 <1>                0.0000
     19 H19         30.0570  36.4273  35.3182 H              1 <1>                0.0000
     20 H20         30.0395  37.9582  34.6263 H              1 <1>                0.0000
@<TRIPOS>BOND
    1    1    2 1     
    2    1   16 1     
    3    1   17 1     
    4    2    3 ar    
    5    2    7 ar    
    6    3    4 ar    
    7    3   13 1     
    8    4    5 ar    
    9    4    9 1     
   10    5    6 ar    
   11    5   14 1     
   12    6    7 ar    
   13    6   15 1     
   14    7    8 1     
   15    8   18 1     
   16    9   10 2     
   17    9   11 2     
   18    9   12 1     
   19   12   19 1     
   20   12   20 1     
@<TRIPOS>SUBSTRUCTURE
      1 ****           1
@<TRIPOS>SET
DONOR_HYDROGENS      STATIC     ATOMS    <user>   **** ""
5 16 17 18 19 20
ATOM$RED        STATIC     ATOMS    COLORGROUP SYSTEM
5 16 17 18 19 20
@<TRIPOS>COMMENT
> <Gold.Version>
2022.2.0

> <Gold.Id.Protein>
1qkm|1qkm_protein|mol2

> <Gold.Protein.RotatedTorsions>
[  496  491  490  487 ] final  -18.95 input  -89.99 | X-H torsion

> <Gold.Protein.ActiveResidues>
 MET295  LEU298  THR299  LEU301  ALA302  GLU305  TRP335  MET336  LEU339  MET340 
 GLY342  LEU343  ARG346  PHE356  ILE373  ILE376  PHE377  LEU380  LYS471  GLY472 
 MET473  HIS475  LEU476  LEU477  ASN478  MET479  VAL484  VAL487 

> <Gold.Protein.RotatedAtoms>
   36.2782   34.4581   42.0455 H   0  0  0  0  0  0  0  0  0  0  0  0  # atno 496  bound_to 491 

> <Gold.Score>
     Score     S(PLP)   S(hbond)     S(cho)   S(metal)  DE(clash)   DE(tors)     intcor
     34.63     -31.84       1.00       0.00       0.00       0.00       1.09       1.98

> <Gold.PLP.Fitness>
34.6320

> <Gold.PLP.PLP>
-31.8394

> <Gold.PLP.part.hbond>
-1.0000

> <Gold.PLP.part.metal>
0.0000

> <Gold.PLP.part.buried>
-5.2073

> <Gold.PLP.part.nonpolar>
-26.0038

> <Gold.PLP.part.repulsive>
0.0724

> <Gold.PLP.ligand.clash>
0.0000

> <Gold.PLP.ligand.torsion>
1.0930

> <Gold.PLP.Chemscore.Hbond>
1.0000

> <Gold.PLP.Chemscore.CHOScore>
0.0000

> <Gold.PLP.Chemscore.Metal>
0.0000

> <Gold.Chemscore.Hbonds>
donor molecule, donor type, donor heavy atom, donor atom, acceptor molecule, acceptor atom, score
      L1  H     1    16       P1   470  1.00

> <Gold.PLP.Chemscore.Internal.Correction>
1.9786

