#       Name:                EN300-01211_i001
#       Creating user name   aseyller
#       Creation time:       Fri Apr 21 16:22:51 2023


#       File generated by GOLD software.
#

@<TRIPOS>MOLECULE
EN300-01211_i001|aminophenols|mol2|1|dock4
    20    20     1
SMALL
USER_CHARGES


@<TRIPOS>ATOM
      1 N1          27.5994  35.3795  41.9792 N.pl3          1 <1>                0.0000
      2 C2          27.1479  36.1589  40.9079 C.ar           1 <1>                0.0000
      3 C3          28.0321  36.5566  39.9157 C.ar           1 <1>                0.0000
      4 C4          27.5838  37.3263  38.8589 C.ar           1 <1>                0.0000
      5 C5          26.2551  37.7017  38.7874 C.ar           1 <1>                0.0000
      6 C6          25.3679  37.3089  39.7727 C.ar           1 <1>                0.0000
      7 C7          25.8079  36.5327  40.8322 C.ar           1 <1>                0.0000
      8 O8          24.9363  36.1457  41.8020 O.3            1 <1>                0.0000
      9 S9          28.7085  37.8309  37.5999 S.o2           1 <1>                0.0000
     10 O10         29.0422  36.6601  36.8671 O.2            1 <1>                0.0000
     11 O11         28.1455  38.9893  36.9996 O.2            1 <1>                0.0000
     12 N12         30.0987  38.3232  38.3531 N.pl3          1 <1>                0.0000
     13 H13         29.0708  36.2651  39.9693 H              1 <1>                0.0000
     14 H14         25.9093  38.3034  37.9600 H              1 <1>                0.0000
     15 H15         24.3306  37.6039  39.7139 H              1 <1>                0.0000
     16 H16         28.5318  35.1167  42.0286 H              1 <1>                0.0000
     17 H17         26.9807  35.1055  42.6743 H              1 <1>                0.0000
     18 H18         25.3155  35.5385  42.4521 H              1 <1>                0.0000
     19 H19         30.8161  37.6894  38.5097 H              1 <1>                0.0000
     20 H20         30.1956  39.2455  38.6377 H              1 <1>                0.0000
@<TRIPOS>BOND
    1    1    2 1     
    2    1   16 1     
    3    1   17 1     
    4    2    3 ar    
    5    2    7 ar    
    6    3    4 ar    
    7    3   13 1     
    8    4    5 ar    
    9    4    9 1     
   10    5    6 ar    
   11    5   14 1     
   12    6    7 ar    
   13    6   15 1     
   14    7    8 1     
   15    8   18 1     
   16    9   10 2     
   17    9   11 2     
   18    9   12 1     
   19   12   19 1     
   20   12   20 1     
@<TRIPOS>SUBSTRUCTURE
      1 ****           1
@<TRIPOS>SET
DONOR_HYDROGENS      STATIC     ATOMS    <user>   **** ""
5 16 17 18 19 20
ATOM$RED        STATIC     ATOMS    COLORGROUP SYSTEM
5 16 17 18 19 20
@<TRIPOS>COMMENT
> <Gold.Version>
2022.2.0

> <Gold.Id.Protein>
1qkm|1qkm_protein|mol2

> <Gold.Protein.RotatedTorsions>
[  496  491  490  487 ] final  179.68 input  -89.99 | X-H torsion

> <Gold.Protein.ActiveResidues>
 MET295  LEU298  THR299  LEU301  ALA302  GLU305  TRP335  MET336  LEU339  MET340 
 GLY342  LEU343  ARG346  PHE356  ILE373  ILE376  PHE377  LEU380  LYS471  GLY472 
 MET473  HIS475  LEU476  LEU477  ASN478  MET479  VAL484  VAL487 

> <Gold.Protein.RotatedAtoms>
   37.3180   33.4571   40.8700 H   0  0  0  0  0  0  0  0  0  0  0  0  # atno 496  bound_to 491 

> <Gold.Score>
     Score     S(PLP)   S(hbond)     S(cho)   S(metal)  DE(clash)   DE(tors)     intcor
     40.51     -32.55       2.75       0.00       0.00       0.00       1.13       1.98

> <Gold.PLP.Fitness>
40.5066

> <Gold.PLP.PLP>
-32.5544

> <Gold.PLP.part.hbond>
-3.5200

> <Gold.PLP.part.metal>
0.0000

> <Gold.PLP.part.buried>
-2.3908

> <Gold.PLP.part.nonpolar>
-26.5081

> <Gold.PLP.part.repulsive>
0.0677

> <Gold.PLP.ligand.clash>
0.0000

> <Gold.PLP.ligand.torsion>
1.1325

> <Gold.PLP.Chemscore.Hbond>
2.7462

> <Gold.PLP.Chemscore.CHOScore>
0.0000

> <Gold.PLP.Chemscore.Metal>
0.0000

> <Gold.Chemscore.Hbonds>
donor molecule, donor type, donor heavy atom, donor atom, acceptor molecule, acceptor atom, score
      L1  H     1    17       P1   582  1.00
      L1  H     8    18       P1   582  1.00
      P1  H  1258  1270       L1     8  0.75

> <Gold.PLP.Chemscore.Internal.Correction>
1.9786

