#       Name:                EN300-31545_i001
#       Creating user name   aseyller
#       Creation time:       Fri Apr 21 16:22:06 2023


#       File generated by GOLD software.
#

@<TRIPOS>MOLECULE
EN300-31545_i001|Sulfonylchlorides|mol2|2|dock6
    26    26     1
SMALL
USER_CHARGES


@<TRIPOS>ATOM
      1 C1          25.7965  37.3252  39.1416 C.3            1 <1>                0.0000
      2 C2          27.0797  36.7848  39.7760 C.3            1 <1>                0.0000
      3 O3          27.9134  36.1873  38.7481 O.3            1 <1>                0.0000
      4 C4          29.2373  36.1741  38.9688 C.2            1 <1>                0.0000
      5 O5          29.6973  36.7614  39.9192 O.2            1 <1>                0.0000
      6 C6          30.1500  35.4266  38.0311 C.3            1 <1>                0.0000
      7 C7          30.9132  34.3305  38.8043 C.3            1 <1>                0.0000
      8 C8          32.3259  34.3732  38.1641 C.3            1 <1>                0.0000
      9 C9          32.4932  35.8869  37.8805 C.3            1 <1>                0.0000
     10 N10         31.1528  36.3446  37.4717 N.pl3          1 <1>                0.0000
     11 S11         30.8301  37.6727  36.5366 S.o2           1 <1>                0.0000
     12 O12         32.0598  38.3700  36.3919 O.2            1 <1>                0.0000
     13 O13         30.0647  37.2097  35.4324 O.2            1 <1>                0.0000
     14 Cl14        29.6139  38.8777  37.6087 Cl             1 <1>                0.0000
     15 H15         25.1707  37.7737  39.9132 H              1 <1>                0.0000
     16 H16         26.0494  38.0785  38.3955 H              1 <1>                0.0000
     17 H17         25.2553  36.5083  38.6642 H              1 <1>                0.0000
     18 H18         27.6209  37.6017  40.2534 H              1 <1>                0.0000
     19 H19         26.8269  36.0314  40.5220 H              1 <1>                0.0000
     20 H20         29.5673  34.9759  37.2276 H              1 <1>                0.0000
     21 H21         30.9636  34.5715  39.8661 H              1 <1>                0.0000
     22 H22         30.4494  33.3561  38.6506 H              1 <1>                0.0000
     23 H23         33.0830  34.0209  38.8644 H              1 <1>                0.0000
     24 H24         32.3532  33.7971  37.2391 H              1 <1>                0.0000
     25 H25         32.8135  36.4086  38.7823 H              1 <1>                0.0000
     26 H26         33.2101  36.0449  37.0749 H              1 <1>                0.0000
@<TRIPOS>BOND
    1    1    2 1     
    2    1   15 1     
    3    1   16 1     
    4    1   17 1     
    5    2    3 1     
    6    2   18 1     
    7    2   19 1     
    8    3    4 1     
    9    4    5 2     
   10    4    6 1     
   11    6    7 1     
   12    6   10 1     
   13    6   20 1     
   14    7    8 1     
   15    7   21 1     
   16    7   22 1     
   17    8    9 1     
   18    8   23 1     
   19    8   24 1     
   20    9   10 1     
   21    9   25 1     
   22    9   26 1     
   23   10   11 1     
   24   11   12 2     
   25   11   13 2     
   26   11   14 1     
@<TRIPOS>SUBSTRUCTURE
      1 ****           1
@<TRIPOS>COMMENT
> <Gold.Version>
2022.2.0

> <Gold.Id.Protein>
1qkm|1qkm_protein|mol2

> <Gold.Protein.RotatedTorsions>
[  496  491  490  487 ] final   29.99 input  -89.99 | X-H torsion

> <Gold.Protein.ActiveResidues>
 MET295  LEU298  THR299  LEU301  ALA302  GLU305  TRP335  MET336  LEU339  MET340 
 GLY342  LEU343  ARG346  PHE356  ILE373  ILE376  PHE377  LEU380  LYS471  GLY472 
 MET473  HIS475  LEU476  LEU477  ASN478  MET479  VAL484  VAL487 

> <Gold.Protein.RotatedAtoms>
   36.3463   33.7556   42.3806 H   0  0  0  0  0  0  0  0  0  0  0  0  # atno 496  bound_to 491 

> <Gold.Score>
     Score     S(PLP)   S(hbond)     S(cho)   S(metal)  DE(clash)   DE(tors)     intcor
     37.80     -38.38       0.00       0.00       0.00       0.00       1.28       1.99

> <Gold.PLP.Fitness>
37.8028

> <Gold.PLP.PLP>
-38.3764

> <Gold.PLP.part.hbond>
0.0000

> <Gold.PLP.part.metal>
0.0000

> <Gold.PLP.part.buried>
-4.4476

> <Gold.PLP.part.nonpolar>
-34.6171

> <Gold.PLP.part.repulsive>
0.1127

> <Gold.PLP.ligand.clash>
0.0000

> <Gold.PLP.ligand.torsion>
1.2828

> <Gold.PLP.Chemscore.Hbond>
0.0000

> <Gold.PLP.Chemscore.CHOScore>
0.0000

> <Gold.PLP.Chemscore.Metal>
0.0000

> <Gold.PLP.Chemscore.Internal.Correction>
1.9920

