#       Name:                EN300-31545_i001
#       Creating user name   aseyller
#       Creation time:       Fri Apr 21 16:22:16 2023


#       File generated by GOLD software.
#

@<TRIPOS>MOLECULE
EN300-31545_i001|Sulfonylchlorides|mol2|2|dock17
    26    26     1
SMALL
USER_CHARGES


@<TRIPOS>ATOM
      1 C1          33.5369  36.6988  34.9241 C.3            1 <1>                0.0000
      2 C2          33.1081  35.9821  36.2061 C.3            1 <1>                0.0000
      3 O3          32.1758  36.8193  36.9399 O.3            1 <1>                0.0000
      4 C4          31.3653  36.2054  37.8162 C.2            1 <1>                0.0000
      5 O5          31.4504  35.0121  37.9844 O.2            1 <1>                0.0000
      6 C6          30.3491  37.0049  38.5904 C.3            1 <1>                0.0000
      7 C7          29.4664  36.0583  39.4308 C.3            1 <1>                0.0000
      8 C8          28.0597  36.7034  39.3180 C.3            1 <1>                0.0000
      9 C9          28.0810  37.2442  37.8666 C.3            1 <1>                0.0000
     10 N10         29.4615  37.7191  37.6611 N.pl3          1 <1>                0.0000
     11 S11         29.9340  38.8673  36.5653 S.o2           1 <1>                0.0000
     12 O12         28.8021  39.6959  36.3390 O.2            1 <1>                0.0000
     13 O13         31.1840  39.3666  37.0211 O.2            1 <1>                0.0000
     14 Cl14        30.3015  37.9149  34.8222 Cl             1 <1>                0.0000
     15 H15         34.2368  36.0703  34.3733 H              1 <1>                0.0000
     16 H16         32.6604  36.8942  34.3064 H              1 <1>                0.0000
     17 H17         34.0192  37.6424  35.1793 H              1 <1>                0.0000
     18 H18         32.6258  35.0385  35.9509 H              1 <1>                0.0000
     19 H19         33.9847  35.7868  36.8238 H              1 <1>                0.0000
     20 H20         30.8560  37.7159  39.2429 H              1 <1>                0.0000
     21 H21         29.4652  35.0542  39.0069 H              1 <1>                0.0000
     22 H22         29.8000  36.0396  40.4683 H              1 <1>                0.0000
     23 H23         27.2761  35.9566  39.4452 H              1 <1>                0.0000
     24 H24         27.9436  37.5154  40.0359 H              1 <1>                0.0000
     25 H25         27.8451  36.4473  37.1613 H              1 <1>                0.0000
     26 H26         27.3763  38.0685  37.7585 H              1 <1>                0.0000
@<TRIPOS>BOND
    1    1    2 1     
    2    1   15 1     
    3    1   16 1     
    4    1   17 1     
    5    2    3 1     
    6    2   18 1     
    7    2   19 1     
    8    3    4 1     
    9    4    5 2     
   10    4    6 1     
   11    6    7 1     
   12    6   10 1     
   13    6   20 1     
   14    7    8 1     
   15    7   21 1     
   16    7   22 1     
   17    8    9 1     
   18    8   23 1     
   19    8   24 1     
   20    9   10 1     
   21    9   25 1     
   22    9   26 1     
   23   10   11 1     
   24   11   12 2     
   25   11   13 2     
   26   11   14 1     
@<TRIPOS>SUBSTRUCTURE
      1 ****           1
@<TRIPOS>COMMENT
> <Gold.Version>
2022.2.0

> <Gold.Id.Protein>
1qkm|1qkm_protein|mol2

> <Gold.Protein.RotatedTorsions>
[  496  491  490  487 ] final  103.25 input  -89.99 | X-H torsion

> <Gold.Protein.ActiveResidues>
 MET295  LEU298  THR299  LEU301  ALA302  GLU305  TRP335  MET336  LEU339  MET340 
 GLY342  LEU343  ARG346  PHE356  ILE373  ILE376  PHE377  LEU380  LYS471  GLY472 
 MET473  HIS475  LEU476  LEU477  ASN478  MET479  VAL484  VAL487 

> <Gold.Protein.RotatedAtoms>
   36.9407   32.9575   41.8548 H   0  0  0  0  0  0  0  0  0  0  0  0  # atno 496  bound_to 491 

> <Gold.Score>
     Score     S(PLP)   S(hbond)     S(cho)   S(metal)  DE(clash)   DE(tors)     intcor
     36.60     -36.87       0.00       0.00       0.00       0.00       1.13       1.99

> <Gold.PLP.Fitness>
36.5973

> <Gold.PLP.PLP>
-36.8735

> <Gold.PLP.part.hbond>
0.0000

> <Gold.PLP.part.metal>
0.0000

> <Gold.PLP.part.buried>
-0.8242

> <Gold.PLP.part.nonpolar>
-35.9878

> <Gold.PLP.part.repulsive>
0.0466

> <Gold.PLP.ligand.clash>
0.0000

> <Gold.PLP.ligand.torsion>
1.1341

> <Gold.PLP.Chemscore.Hbond>
0.0000

> <Gold.PLP.Chemscore.CHOScore>
0.0000

> <Gold.PLP.Chemscore.Metal>
0.0000

> <Gold.PLP.Chemscore.Internal.Correction>
1.9920

