#       Name:                EN300-31545_i001
#       Creating user name   aseyller
#       Creation time:       Fri Apr 21 16:22:15 2023


#       File generated by GOLD software.
#

@<TRIPOS>MOLECULE
EN300-31545_i001|Sulfonylchlorides|mol2|2|dock16
    26    26     1
SMALL
USER_CHARGES


@<TRIPOS>ATOM
      1 C1          26.1200  36.5509  39.0658 C.3            1 <1>                0.0000
      2 C2          27.5898  36.1437  38.9438 C.3            1 <1>                0.0000
      3 O3          28.3576  37.2556  38.4124 O.3            1 <1>                0.0000
      4 C4          29.6726  37.0566  38.2311 C.2            1 <1>                0.0000
      5 O5          30.1766  36.0099  38.5628 O.2            1 <1>                0.0000
      6 C6          30.5203  38.1389  37.6137 C.3            1 <1>                0.0000
      7 C7          29.6222  39.2962  37.1284 C.3            1 <1>                0.0000
      8 C8          30.2971  39.7258  35.7988 C.3            1 <1>                0.0000
      9 C9          30.7913  38.3652  35.2472 C.3            1 <1>                0.0000
     10 N10         31.2261  37.6111  36.4369 N.pl3          1 <1>                0.0000
     11 S11         32.3274  36.3745  36.4464 S.o2           1 <1>                0.0000
     12 O12         33.0850  36.5209  37.6397 O.2            1 <1>                0.0000
     13 O13         31.6070  35.1929  36.1233 O.2            1 <1>                0.0000
     14 Cl14        33.6052  36.6999  34.9161 Cl             1 <1>                0.0000
     15 H15         25.5436  35.7161  39.4647 H              1 <1>                0.0000
     16 H16         26.0342  37.4054  39.7370 H              1 <1>                0.0000
     17 H17         25.7351  36.8212  38.0825 H              1 <1>                0.0000
     18 H18         27.9747  35.8734  39.9271 H              1 <1>                0.0000
     19 H19         27.6756  35.2892  38.2725 H              1 <1>                0.0000
     20 H20         31.2391  38.5090  38.3448 H              1 <1>                0.0000
     21 H21         28.6055  38.9465  36.9492 H              1 <1>                0.0000
     22 H22         29.6282  40.1162  37.8464 H              1 <1>                0.0000
     23 H23         29.5738  40.1819  35.1231 H              1 <1>                0.0000
     24 H24         31.1339  40.3990  35.9852 H              1 <1>                0.0000
     25 H25         29.9785  37.8426  34.7429 H              1 <1>                0.0000
     26 H26         31.6286  38.5139  34.5654 H              1 <1>                0.0000
@<TRIPOS>BOND
    1    1    2 1     
    2    1   15 1     
    3    1   16 1     
    4    1   17 1     
    5    2    3 1     
    6    2   18 1     
    7    2   19 1     
    8    3    4 1     
    9    4    5 2     
   10    4    6 1     
   11    6    7 1     
   12    6   10 1     
   13    6   20 1     
   14    7    8 1     
   15    7   21 1     
   16    7   22 1     
   17    8    9 1     
   18    8   23 1     
   19    8   24 1     
   20    9   10 1     
   21    9   25 1     
   22    9   26 1     
   23   10   11 1     
   24   11   12 2     
   25   11   13 2     
   26   11   14 1     
@<TRIPOS>SUBSTRUCTURE
      1 ****           1
@<TRIPOS>COMMENT
> <Gold.Version>
2022.2.0

> <Gold.Id.Protein>
1qkm|1qkm_protein|mol2

> <Gold.Protein.RotatedTorsions>
[  496  491  490  487 ] final -115.78 input  -89.99 | X-H torsion

> <Gold.Protein.ActiveResidues>
 MET295  LEU298  THR299  LEU301  ALA302  GLU305  TRP335  MET336  LEU339  MET340 
 GLY342  LEU343  ARG346  PHE356  ILE373  ILE376  PHE377  LEU380  LYS471  GLY472 
 MET473  HIS475  LEU476  LEU477  ASN478  MET479  VAL484  VAL487 

> <Gold.Protein.RotatedAtoms>
   36.9905   34.4087   40.8287 H   0  0  0  0  0  0  0  0  0  0  0  0  # atno 496  bound_to 491 

> <Gold.Score>
     Score     S(PLP)   S(hbond)     S(cho)   S(metal)  DE(clash)   DE(tors)     intcor
     37.67     -38.23       0.00       0.00       0.00       0.00       1.27       1.99

> <Gold.PLP.Fitness>
37.6718

> <Gold.PLP.PLP>
-38.2268

> <Gold.PLP.part.hbond>
0.0000

> <Gold.PLP.part.metal>
0.0000

> <Gold.PLP.part.buried>
-1.3626

> <Gold.PLP.part.nonpolar>
-37.1297

> <Gold.PLP.part.repulsive>
0.1076

> <Gold.PLP.ligand.clash>
0.0000

> <Gold.PLP.ligand.torsion>
1.2735

> <Gold.PLP.Chemscore.Hbond>
0.0000

> <Gold.PLP.Chemscore.CHOScore>
0.0000

> <Gold.PLP.Chemscore.Metal>
0.0000

> <Gold.PLP.Chemscore.Internal.Correction>
1.9920

