#       Name:                EN300-31545_i001
#       Creating user name   aseyller
#       Creation time:       Fri Apr 21 16:22:19 2023


#       File generated by GOLD software.
#

@<TRIPOS>MOLECULE
EN300-31545_i001|Sulfonylchlorides|mol2|2|dock20
    26    26     1
SMALL
USER_CHARGES


@<TRIPOS>ATOM
      1 C1          28.4977  36.3776  41.5255 C.3            1 <1>                0.0000
      2 C2          29.1019  35.9664  40.1813 C.3            1 <1>                0.0000
      3 O3          29.6712  37.1324  39.5295 O.3            1 <1>                0.0000
      4 C4          30.2212  36.9462  38.3193 C.2            1 <1>                0.0000
      5 O5          30.3657  35.8273  37.8871 O.2            1 <1>                0.0000
      6 C6          30.6585  38.1329  37.4998 C.3            1 <1>                0.0000
      7 C7          29.4713  39.0984  37.2994 C.3            1 <1>                0.0000
      8 C8          29.6617  39.5848  35.8384 C.3            1 <1>                0.0000
      9 C9          30.2140  38.3088  35.1553 C.3            1 <1>                0.0000
     10 N10         31.0893  37.6883  36.1664 N.pl3          1 <1>                0.0000
     11 S11         32.3495  36.6610  35.8521 S.o2           1 <1>                0.0000
     12 O12         31.7729  35.4507  35.3810 O.2            1 <1>                0.0000
     13 O13         33.3014  37.4094  35.1082 O.2            1 <1>                0.0000
     14 Cl14        33.2222  36.2263  37.6212 Cl             1 <1>                0.0000
     15 H15         28.0703  35.5023  42.0147 H              1 <1>                0.0000
     16 H16         29.2761  36.8038  42.1585 H              1 <1>                0.0000
     17 H17         27.7165  37.1197  41.3609 H              1 <1>                0.0000
     18 H18         29.8831  35.2244  40.3458 H              1 <1>                0.0000
     19 H19         28.3235  35.5403  39.5482 H              1 <1>                0.0000
     20 H20         31.4758  38.6498  38.0029 H              1 <1>                0.0000
     21 H21         28.5233  38.5721  37.4102 H              1 <1>                0.0000
     22 H22         29.5328  39.9349  37.9955 H              1 <1>                0.0000
     23 H23         28.7100  39.8825  35.3986 H              1 <1>                0.0000
     24 H24         30.3850  40.3987  35.7887 H              1 <1>                0.0000
     25 H25         29.3982  37.6346  34.8948 H              1 <1>                0.0000
     26 H26         30.7880  38.5722  34.2670 H              1 <1>                0.0000
@<TRIPOS>BOND
    1    1    2 1     
    2    1   15 1     
    3    1   16 1     
    4    1   17 1     
    5    2    3 1     
    6    2   18 1     
    7    2   19 1     
    8    3    4 1     
    9    4    5 2     
   10    4    6 1     
   11    6    7 1     
   12    6   10 1     
   13    6   20 1     
   14    7    8 1     
   15    7   21 1     
   16    7   22 1     
   17    8    9 1     
   18    8   23 1     
   19    8   24 1     
   20    9   10 1     
   21    9   25 1     
   22    9   26 1     
   23   10   11 1     
   24   11   12 2     
   25   11   13 2     
   26   11   14 1     
@<TRIPOS>SUBSTRUCTURE
      1 ****           1
@<TRIPOS>COMMENT
> <Gold.Version>
2022.2.0

> <Gold.Id.Protein>
1qkm|1qkm_protein|mol2

> <Gold.Protein.RotatedTorsions>
[  496  491  490  487 ] final  136.53 input  -89.99 | X-H torsion

> <Gold.Protein.ActiveResidues>
 MET295  LEU298  THR299  LEU301  ALA302  GLU305  TRP335  MET336  LEU339  MET340 
 GLY342  LEU343  ARG346  PHE356  ILE373  ILE376  PHE377  LEU380  LYS471  GLY472 
 MET473  HIS475  LEU476  LEU477  ASN478  MET479  VAL484  VAL487 

> <Gold.Protein.RotatedAtoms>
   37.1944   33.0036   41.3802 H   0  0  0  0  0  0  0  0  0  0  0  0  # atno 496  bound_to 491 

> <Gold.Score>
     Score     S(PLP)   S(hbond)     S(cho)   S(metal)  DE(clash)   DE(tors)     intcor
     37.14     -37.92       0.00       0.00       0.00       0.00       1.38       1.99

> <Gold.PLP.Fitness>
37.1446

> <Gold.PLP.PLP>
-37.9179

> <Gold.PLP.part.hbond>
0.0000

> <Gold.PLP.part.metal>
0.0000

> <Gold.PLP.part.buried>
-2.2857

> <Gold.PLP.part.nonpolar>
-36.3624

> <Gold.PLP.part.repulsive>
0.3023

> <Gold.PLP.ligand.clash>
0.0000

> <Gold.PLP.ligand.torsion>
1.3827

> <Gold.PLP.Chemscore.Hbond>
0.0000

> <Gold.PLP.Chemscore.CHOScore>
0.0000

> <Gold.PLP.Chemscore.Metal>
0.0000

> <Gold.PLP.Chemscore.Internal.Correction>
1.9920

