#       Name:                EN300-31545_i001
#       Creating user name   aseyller
#       Creation time:       Fri Apr 21 16:22:07 2023


#       File generated by GOLD software.
#

@<TRIPOS>MOLECULE
EN300-31545_i001|Sulfonylchlorides|mol2|2|dock7
    26    26     1
SMALL
USER_CHARGES


@<TRIPOS>ATOM
      1 C1          27.9011  36.4021  41.8104 C.3            1 <1>                0.0000
      2 C2          28.7622  35.8634  40.6661 C.3            1 <1>                0.0000
      3 O3          29.2372  36.9704  39.8552 O.3            1 <1>                0.0000
      4 C4          29.9519  36.6620  38.7617 C.2            1 <1>                0.0000
      5 O5          30.1529  35.5050  38.4779 O.2            1 <1>                0.0000
      6 C6          30.5036  37.7590  37.8881 C.3            1 <1>                0.0000
      7 C7          29.3476  38.6092  37.3203 C.3            1 <1>                0.0000
      8 C8          29.8183  38.9139  35.8735 C.3            1 <1>                0.0000
      9 C9          30.5492  37.5998  35.5011 C.3            1 <1>                0.0000
     10 N10         31.2188  37.1752  36.7440 N.pl3          1 <1>                0.0000
     11 S11         32.5555  36.2020  36.8361 S.o2           1 <1>                0.0000
     12 O12         33.3524  36.7140  37.8954 O.2            1 <1>                0.0000
     13 O13         32.0806  34.8632  36.7979 O.2            1 <1>                0.0000
     14 Cl14        33.6156  36.4799  35.1391 Cl             1 <1>                0.0000
     15 H15         27.5445  35.5711  42.4190 H              1 <1>                0.0000
     16 H16         28.4964  37.0752  42.4273 H              1 <1>                0.0000
     17 H17         27.0489  36.9437  41.3999 H              1 <1>                0.0000
     18 H18         29.6144  35.3218  41.0766 H              1 <1>                0.0000
     19 H19         28.1669  35.1904  40.0491 H              1 <1>                0.0000
     20 H20         31.1781  38.3900  38.4671 H              1 <1>                0.0000
     21 H21         28.4182  38.0398  37.3116 H              1 <1>                0.0000
     22 H22         29.2308  39.5311  37.8901 H              1 <1>                0.0000
     23 H23         28.9678  39.0881  35.2146 H              1 <1>                0.0000
     24 H24         30.5041  39.7609  35.8561 H              1 <1>                0.0000
     25 H25         29.8319  36.8447  35.1797 H              1 <1>                0.0000
     26 H26         31.2845  37.7836  34.7179 H              1 <1>                0.0000
@<TRIPOS>BOND
    1    1    2 1     
    2    1   15 1     
    3    1   16 1     
    4    1   17 1     
    5    2    3 1     
    6    2   18 1     
    7    2   19 1     
    8    3    4 1     
    9    4    5 2     
   10    4    6 1     
   11    6    7 1     
   12    6   10 1     
   13    6   20 1     
   14    7    8 1     
   15    7   21 1     
   16    7   22 1     
   17    8    9 1     
   18    8   23 1     
   19    8   24 1     
   20    9   10 1     
   21    9   25 1     
   22    9   26 1     
   23   10   11 1     
   24   11   12 2     
   25   11   13 2     
   26   11   14 1     
@<TRIPOS>SUBSTRUCTURE
      1 ****           1
@<TRIPOS>COMMENT
> <Gold.Version>
2022.2.0

> <Gold.Id.Protein>
1qkm|1qkm_protein|mol2

> <Gold.Protein.RotatedTorsions>
[  496  491  490  487 ] final  116.07 input  -89.99 | X-H torsion

> <Gold.Protein.ActiveResidues>
 MET295  LEU298  THR299  LEU301  ALA302  GLU305  TRP335  MET336  LEU339  MET340 
 GLY342  LEU343  ARG346  PHE356  ILE373  ILE376  PHE377  LEU380  LYS471  GLY472 
 MET473  HIS475  LEU476  LEU477  ASN478  MET479  VAL484  VAL487 

> <Gold.Protein.RotatedAtoms>
   37.0495   32.9397   41.6755 H   0  0  0  0  0  0  0  0  0  0  0  0  # atno 496  bound_to 491 

> <Gold.Score>
     Score     S(PLP)   S(hbond)     S(cho)   S(metal)  DE(clash)   DE(tors)     intcor
     38.68     -39.10       0.00       0.00       0.00       0.00       1.21       1.99

> <Gold.PLP.Fitness>
38.6762

> <Gold.PLP.PLP>
-39.0979

> <Gold.PLP.part.hbond>
0.0000

> <Gold.PLP.part.metal>
0.0000

> <Gold.PLP.part.buried>
-2.1339

> <Gold.PLP.part.nonpolar>
-37.1113

> <Gold.PLP.part.repulsive>
0.1542

> <Gold.PLP.ligand.clash>
0.0000

> <Gold.PLP.ligand.torsion>
1.2068

> <Gold.PLP.Chemscore.Hbond>
0.0000

> <Gold.PLP.Chemscore.CHOScore>
0.0000

> <Gold.PLP.Chemscore.Metal>
0.0000

> <Gold.PLP.Chemscore.Internal.Correction>
1.9920

