#       Name:                EN300-31545_i001
#       Creating user name   aseyller
#       Creation time:       Fri Apr 21 16:22:11 2023


#       File generated by GOLD software.
#

@<TRIPOS>MOLECULE
EN300-31545_i001|Sulfonylchlorides|mol2|2|dock12
    26    26     1
SMALL
USER_CHARGES


@<TRIPOS>ATOM
      1 C1          29.6033  40.5808  36.1925 C.3            1 <1>                0.0000
      2 C2          30.3882  39.3237  35.8123 C.3            1 <1>                0.0000
      3 O3          30.6922  38.5621  37.0106 O.3            1 <1>                0.0000
      4 C4          31.1628  37.3169  36.8382 C.2            1 <1>                0.0000
      5 O5          31.3247  36.8813  35.7229 O.2            1 <1>                0.0000
      6 C6          31.4892  36.4622  38.0357 C.3            1 <1>                0.0000
      7 C7          32.4038  35.2933  37.6127 C.3            1 <1>                0.0000
      8 C8          31.8724  34.1104  38.4646 C.3            1 <1>                0.0000
      9 C9          30.3524  34.4077  38.4956 C.3            1 <1>                0.0000
     10 N10         30.2568  35.8762  38.5826 N.pl3          1 <1>                0.0000
     11 S11         28.9738  36.7252  39.1954 S.o2           1 <1>                0.0000
     12 O12         29.2818  36.9908  40.5569 O.2            1 <1>                0.0000
     13 O13         28.6807  37.7463  38.2515 O.2            1 <1>                0.0000
     14 Cl14        27.3823  35.4812  39.2028 Cl             1 <1>                0.0000
     15 H15         29.3751  41.1526  35.2929 H              1 <1>                0.0000
     16 H16         28.6747  40.2941  36.6860 H              1 <1>                0.0000
     17 H17         30.2009  41.1915  36.8693 H              1 <1>                0.0000
     18 H18         29.7906  38.7131  35.1355 H              1 <1>                0.0000
     19 H19         31.3168  39.6105  35.3188 H              1 <1>                0.0000
     20 H20         31.9855  37.0645  38.7967 H              1 <1>                0.0000
     21 H21         32.2933  35.0827  36.5490 H              1 <1>                0.0000
     22 H22         33.4436  35.5089  37.8582 H              1 <1>                0.0000
     23 H23         32.0740  33.1565  37.9774 H              1 <1>                0.0000
     24 H24         32.2952  34.1315  39.4691 H              1 <1>                0.0000
     25 H25         29.8772  34.0500  37.5823 H              1 <1>                0.0000
     26 H26         29.8932  33.9453  39.3693 H              1 <1>                0.0000
@<TRIPOS>BOND
    1    1    2 1     
    2    1   15 1     
    3    1   16 1     
    4    1   17 1     
    5    2    3 1     
    6    2   18 1     
    7    2   19 1     
    8    3    4 1     
    9    4    5 2     
   10    4    6 1     
   11    6    7 1     
   12    6   10 1     
   13    6   20 1     
   14    7    8 1     
   15    7   21 1     
   16    7   22 1     
   17    8    9 1     
   18    8   23 1     
   19    8   24 1     
   20    9   10 1     
   21    9   25 1     
   22    9   26 1     
   23   10   11 1     
   24   11   12 2     
   25   11   13 2     
   26   11   14 1     
@<TRIPOS>SUBSTRUCTURE
      1 ****           1
@<TRIPOS>COMMENT
> <Gold.Version>
2022.2.0

> <Gold.Id.Protein>
1qkm|1qkm_protein|mol2

> <Gold.Protein.RotatedTorsions>
[  496  491  490  487 ] final  125.36 input  -89.99 | X-H torsion

> <Gold.Protein.ActiveResidues>
 MET295  LEU298  THR299  LEU301  ALA302  GLU305  TRP335  MET336  LEU339  MET340 
 GLY342  LEU343  ARG346  PHE356  ILE373  ILE376  PHE377  LEU380  LYS471  GLY472 
 MET473  HIS475  LEU476  LEU477  ASN478  MET479  VAL484  VAL487 

> <Gold.Protein.RotatedAtoms>
   37.1206   32.9548   41.5410 H   0  0  0  0  0  0  0  0  0  0  0  0  # atno 496  bound_to 491 

> <Gold.Score>
     Score     S(PLP)   S(hbond)     S(cho)   S(metal)  DE(clash)   DE(tors)     intcor
     38.70     -40.28       0.00       0.00       0.00       0.00       1.79       1.99

> <Gold.PLP.Fitness>
38.6985

> <Gold.PLP.PLP>
-40.2846

> <Gold.PLP.part.hbond>
0.0000

> <Gold.PLP.part.metal>
0.0000

> <Gold.PLP.part.buried>
-3.1075

> <Gold.PLP.part.nonpolar>
-37.3413

> <Gold.PLP.part.repulsive>
0.1233

> <Gold.PLP.ligand.clash>
0.0000

> <Gold.PLP.ligand.torsion>
1.7891

> <Gold.PLP.Chemscore.Hbond>
0.0000

> <Gold.PLP.Chemscore.CHOScore>
0.0000

> <Gold.PLP.Chemscore.Metal>
0.0000

> <Gold.PLP.Chemscore.Internal.Correction>
1.9920

