#       Name:                EN300-31545_i001
#       Creating user name   aseyller
#       Creation time:       Fri Apr 21 16:22:10 2023


#       File generated by GOLD software.
#

@<TRIPOS>MOLECULE
EN300-31545_i001|Sulfonylchlorides|mol2|2|dock11
    26    26     1
SMALL
USER_CHARGES


@<TRIPOS>ATOM
      1 C1          25.9176  36.7145  39.4095 C.3            1 <1>                0.0000
      2 C2          27.3620  36.2131  39.3497 C.3            1 <1>                0.0000
      3 O3          28.1330  37.0635  38.4604 O.3            1 <1>                0.0000
      4 C4          29.4675  37.0438  38.6037 C.2            1 <1>                0.0000
      5 O5          29.9745  36.3390  39.4439 O.2            1 <1>                0.0000
      6 C6          30.3333  37.9007  37.7164 C.3            1 <1>                0.0000
      7 C7          29.4553  38.8984  36.9319 C.3            1 <1>                0.0000
      8 C8          30.1340  38.9365  35.5371 C.3            1 <1>                0.0000
      9 C9          30.6012  37.4681  35.3784 C.3            1 <1>                0.0000
     10 N10         31.0255  37.0589  36.7297 N.pl3          1 <1>                0.0000
     11 S11         32.1038  35.8514  37.0783 S.o2           1 <1>                0.0000
     12 O12         32.3958  35.2061  35.8465 O.2            1 <1>                0.0000
     13 O13         33.1017  36.4316  37.9073 O.2            1 <1>                0.0000
     14 Cl14        31.1340  34.4942  38.2176 Cl             1 <1>                0.0000
     15 H15         25.3388  36.0761  40.0771 H              1 <1>                0.0000
     16 H16         25.9036  37.7384  39.7832 H              1 <1>                0.0000
     17 H17         25.4816  36.6862  38.4110 H              1 <1>                0.0000
     18 H18         27.7981  36.2415  40.3482 H              1 <1>                0.0000
     19 H19         27.3760  35.1893  38.9759 H              1 <1>                0.0000
     20 H20         31.0610  38.4427  38.3205 H              1 <1>                0.0000
     21 H21         28.4318  38.5320  36.8528 H              1 <1>                0.0000
     22 H22         29.4786  39.8828  37.3992 H              1 <1>                0.0000
     23 H23         29.4172  39.2044  34.7611 H              1 <1>                0.0000
     24 H24         30.9837  39.6192  35.5347 H              1 <1>                0.0000
     25 H25         29.7774  36.8430  35.0340 H              1 <1>                0.0000
     26 H26         31.4391  37.4095  34.6838 H              1 <1>                0.0000
@<TRIPOS>BOND
    1    1    2 1     
    2    1   15 1     
    3    1   16 1     
    4    1   17 1     
    5    2    3 1     
    6    2   18 1     
    7    2   19 1     
    8    3    4 1     
    9    4    5 2     
   10    4    6 1     
   11    6    7 1     
   12    6   10 1     
   13    6   20 1     
   14    7    8 1     
   15    7   21 1     
   16    7   22 1     
   17    8    9 1     
   18    8   23 1     
   19    8   24 1     
   20    9   10 1     
   21    9   25 1     
   22    9   26 1     
   23   10   11 1     
   24   11   12 2     
   25   11   13 2     
   26   11   14 1     
@<TRIPOS>SUBSTRUCTURE
      1 ****           1
@<TRIPOS>COMMENT
> <Gold.Version>
2022.2.0

> <Gold.Id.Protein>
1qkm|1qkm_protein|mol2

> <Gold.Protein.RotatedTorsions>
[  496  491  490  487 ] final  -55.54 input  -89.99 | X-H torsion

> <Gold.Protein.ActiveResidues>
 MET295  LEU298  THR299  LEU301  ALA302  GLU305  TRP335  MET336  LEU339  MET340 
 GLY342  LEU343  ARG346  PHE356  ILE373  ILE376  PHE377  LEU380  LYS471  GLY472 
 MET473  HIS475  LEU476  LEU477  ASN478  MET479  VAL484  VAL487 

> <Gold.Protein.RotatedAtoms>
   36.4635   34.7229   41.5493 H   0  0  0  0  0  0  0  0  0  0  0  0  # atno 496  bound_to 491 

> <Gold.Score>
     Score     S(PLP)   S(hbond)     S(cho)   S(metal)  DE(clash)   DE(tors)     intcor
     38.18     -39.04       0.00       0.00       0.00       0.00       1.42       1.99

> <Gold.PLP.Fitness>
38.1826

> <Gold.PLP.PLP>
-39.0357

> <Gold.PLP.part.hbond>
0.0000

> <Gold.PLP.part.metal>
0.0000

> <Gold.PLP.part.buried>
-4.0581

> <Gold.PLP.part.nonpolar>
-35.6079

> <Gold.PLP.part.repulsive>
0.1768

> <Gold.PLP.ligand.clash>
0.0000

> <Gold.PLP.ligand.torsion>
1.4225

> <Gold.PLP.Chemscore.Hbond>
0.0000

> <Gold.PLP.Chemscore.CHOScore>
0.0000

> <Gold.PLP.Chemscore.Metal>
0.0000

> <Gold.PLP.Chemscore.Internal.Correction>
1.9920

