#       Name:                EN300-31545_i001
#       Creating user name   aseyller
#       Creation time:       Fri Apr 21 16:22:17 2023


#       File generated by GOLD software.
#

@<TRIPOS>MOLECULE
EN300-31545_i001|Sulfonylchlorides|mol2|2|dock18
    26    26     1
SMALL
USER_CHARGES


@<TRIPOS>ATOM
      1 C1          32.3720  37.9099  34.3718 C.3            1 <1>                0.0000
      2 C2          30.9733  37.3766  34.6882 C.3            1 <1>                0.0000
      3 O3          31.0455  36.4708  35.8208 O.3            1 <1>                0.0000
      4 C4          31.4435  36.9909  36.9925 C.2            1 <1>                0.0000
      5 O5          31.6794  38.1726  37.0799 O.2            1 <1>                0.0000
      6 C6          31.5961  36.1007  38.1989 C.3            1 <1>                0.0000
      7 C7          32.4831  34.8878  37.8474 C.3            1 <1>                0.0000
      8 C8          31.8014  33.7245  38.6152 C.3            1 <1>                0.0000
      9 C9          30.3053  34.1081  38.4964 C.3            1 <1>                0.0000
     10 N10         30.2829  35.5783  38.6041 N.pl3          1 <1>                0.0000
     11 S11         28.9926  36.4902  39.0998 S.o2           1 <1>                0.0000
     12 O12         29.0464  37.6996  38.3559 O.2            1 <1>                0.0000
     13 O13         27.8650  35.6252  39.0963 O.2            1 <1>                0.0000
     14 Cl14        29.3207  36.9919  41.0288 Cl             1 <1>                0.0000
     15 H15         32.3178  38.5898  33.5215 H              1 <1>                0.0000
     16 H16         32.7624  38.4428  35.2388 H              1 <1>                0.0000
     17 H17         33.0322  37.0771  34.1296 H              1 <1>                0.0000
     18 H18         30.3131  38.2094  34.9304 H              1 <1>                0.0000
     19 H19         30.5829  36.8436  33.8212 H              1 <1>                0.0000
     20 H20         32.0436  36.6619  39.0193 H              1 <1>                0.0000
     21 H21         32.4719  34.7001  36.7737 H              1 <1>                0.0000
     22 H22         33.5023  35.0395  38.2027 H              1 <1>                0.0000
     23 H23         31.9991  32.7682  38.1312 H              1 <1>                0.0000
     24 H24         32.1184  33.7060  39.6579 H              1 <1>                0.0000
     25 H25         29.9081  33.7924  37.5318 H              1 <1>                0.0000
     26 H26         29.7330  33.6596  39.3084 H              1 <1>                0.0000
@<TRIPOS>BOND
    1    1    2 1     
    2    1   15 1     
    3    1   16 1     
    4    1   17 1     
    5    2    3 1     
    6    2   18 1     
    7    2   19 1     
    8    3    4 1     
    9    4    5 2     
   10    4    6 1     
   11    6    7 1     
   12    6   10 1     
   13    6   20 1     
   14    7    8 1     
   15    7   21 1     
   16    7   22 1     
   17    8    9 1     
   18    8   23 1     
   19    8   24 1     
   20    9   10 1     
   21    9   25 1     
   22    9   26 1     
   23   10   11 1     
   24   11   12 2     
   25   11   13 2     
   26   11   14 1     
@<TRIPOS>SUBSTRUCTURE
      1 ****           1
@<TRIPOS>COMMENT
> <Gold.Version>
2022.2.0

> <Gold.Id.Protein>
1qkm|1qkm_protein|mol2

> <Gold.Protein.RotatedTorsions>
[  496  491  490  487 ] final  147.34 input  -89.99 | X-H torsion

> <Gold.Protein.ActiveResidues>
 MET295  LEU298  THR299  LEU301  ALA302  GLU305  TRP335  MET336  LEU339  MET340 
 GLY342  LEU343  ARG346  PHE356  ILE373  ILE376  PHE377  LEU380  LYS471  GLY472 
 MET473  HIS475  LEU476  LEU477  ASN478  MET479  VAL484  VAL487 

> <Gold.Protein.RotatedAtoms>
   37.2512   33.0809   41.2306 H   0  0  0  0  0  0  0  0  0  0  0  0  # atno 496  bound_to 491 

> <Gold.Score>
     Score     S(PLP)   S(hbond)     S(cho)   S(metal)  DE(clash)   DE(tors)     intcor
     38.82     -39.04       0.00       0.00       0.00       0.00       1.11       1.99

> <Gold.PLP.Fitness>
38.8237

> <Gold.PLP.PLP>
-39.0437

> <Gold.PLP.part.hbond>
0.0000

> <Gold.PLP.part.metal>
0.0000

> <Gold.PLP.part.buried>
-1.6839

> <Gold.PLP.part.nonpolar>
-37.3048

> <Gold.PLP.part.repulsive>
0.0444

> <Gold.PLP.ligand.clash>
0.0000

> <Gold.PLP.ligand.torsion>
1.1060

> <Gold.PLP.Chemscore.Hbond>
0.0000

> <Gold.PLP.Chemscore.CHOScore>
0.0000

> <Gold.PLP.Chemscore.Metal>
0.0000

> <Gold.PLP.Chemscore.Internal.Correction>
1.9920

