#       Name:                EN300-31545_i001
#       Creating user name   aseyller
#       Creation time:       Fri Apr 21 16:22:09 2023


#       File generated by GOLD software.
#

@<TRIPOS>MOLECULE
EN300-31545_i001|Sulfonylchlorides|mol2|2|dock10
    26    26     1
SMALL
USER_CHARGES


@<TRIPOS>ATOM
      1 C1          25.9521  37.1637  40.1943 C.3            1 <1>                0.0000
      2 C2          26.9081  36.1777  40.8686 C.3            1 <1>                0.0000
      3 O3          27.6988  35.5008  39.8561 O.3            1 <1>                0.0000
      4 C4          28.9729  35.8977  39.7118 C.2            1 <1>                0.0000
      5 O5          29.4816  36.6103  40.5444 O.2            1 <1>                0.0000
      6 C6          29.7688  35.4543  38.5114 C.3            1 <1>                0.0000
      7 C7          30.9165  34.5239  38.9571 C.3            1 <1>                0.0000
      8 C8          32.0863  34.9460  38.0292 C.3            1 <1>                0.0000
      9 C9          31.8470  36.4711  37.9012 C.3            1 <1>                0.0000
     10 N10         30.3810  36.6208  37.8588 N.pl3          1 <1>                0.0000
     11 S11         29.5598  37.8922  37.1868 S.o2           1 <1>                0.0000
     12 O12         29.9641  39.0529  37.8997 O.2            1 <1>                0.0000
     13 O13         29.6958  37.7584  35.7786 O.2            1 <1>                0.0000
     14 Cl14        27.6006  37.6233  37.5987 Cl             1 <1>                0.0000
     15 H15         25.3586  37.6718  40.9544 H              1 <1>                0.0000
     16 H16         26.5265  37.8987  39.6304 H              1 <1>                0.0000
     17 H17         25.2902  36.6231  39.5178 H              1 <1>                0.0000
     18 H18         27.5700  36.7183  41.5451 H              1 <1>                0.0000
     19 H19         26.3338  35.4426  41.4325 H              1 <1>                0.0000
     20 H20         29.1196  34.9317  37.8088 H              1 <1>                0.0000
     21 H21         31.1711  34.6989  40.0024 H              1 <1>                0.0000
     22 H22         30.6519  33.4793  38.7933 H              1 <1>                0.0000
     23 H23         33.0493  34.7394  38.4960 H              1 <1>                0.0000
     24 H24         32.0113  34.4559  37.0584 H              1 <1>                0.0000
     25 H25         32.2568  36.9933  38.7658 H              1 <1>                0.0000
     26 H26         32.2937  36.8494  36.9818 H              1 <1>                0.0000
@<TRIPOS>BOND
    1    1    2 1     
    2    1   15 1     
    3    1   16 1     
    4    1   17 1     
    5    2    3 1     
    6    2   18 1     
    7    2   19 1     
    8    3    4 1     
    9    4    5 2     
   10    4    6 1     
   11    6    7 1     
   12    6   10 1     
   13    6   20 1     
   14    7    8 1     
   15    7   21 1     
   16    7   22 1     
   17    8    9 1     
   18    8   23 1     
   19    8   24 1     
   20    9   10 1     
   21    9   25 1     
   22    9   26 1     
   23   10   11 1     
   24   11   12 2     
   25   11   13 2     
   26   11   14 1     
@<TRIPOS>SUBSTRUCTURE
      1 ****           1
@<TRIPOS>COMMENT
> <Gold.Version>
2022.2.0

> <Gold.Id.Protein>
1qkm|1qkm_protein|mol2

> <Gold.Protein.RotatedTorsions>
[  496  491  490  487 ] final -177.67 input  -89.99 | X-H torsion

> <Gold.Protein.ActiveResidues>
 MET295  LEU298  THR299  LEU301  ALA302  GLU305  TRP335  MET336  LEU339  MET340 
 GLY342  LEU343  ARG346  PHE356  ILE373  ILE376  PHE377  LEU380  LYS471  GLY472 
 MET473  HIS475  LEU476  LEU477  ASN478  MET479  VAL484  VAL487 

> <Gold.Protein.RotatedAtoms>
   37.3161   33.4952   40.8487 H   0  0  0  0  0  0  0  0  0  0  0  0  # atno 496  bound_to 491 

> <Gold.Score>
     Score     S(PLP)   S(hbond)     S(cho)   S(metal)  DE(clash)   DE(tors)     intcor
     37.57     -39.23       0.00       0.00       0.00       0.00       1.82       1.99

> <Gold.PLP.Fitness>
37.5740

> <Gold.PLP.PLP>
-39.2306

> <Gold.PLP.part.hbond>
0.0000

> <Gold.PLP.part.metal>
0.0000

> <Gold.PLP.part.buried>
-2.1397

> <Gold.PLP.part.nonpolar>
-37.6710

> <Gold.PLP.part.repulsive>
0.1434

> <Gold.PLP.ligand.clash>
0.0000

> <Gold.PLP.ligand.torsion>
1.8243

> <Gold.PLP.Chemscore.Hbond>
0.0000

> <Gold.PLP.Chemscore.CHOScore>
0.0000

> <Gold.PLP.Chemscore.Metal>
0.0000

> <Gold.PLP.Chemscore.Internal.Correction>
1.9920

