#       Name:                EN300-31545_i001
#       Creating user name   aseyller
#       Creation time:       Fri Apr 21 16:22:08 2023


#       File generated by GOLD software.
#

@<TRIPOS>MOLECULE
EN300-31545_i001|Sulfonylchlorides|mol2|2|dock8
    26    26     1
SMALL
USER_CHARGES


@<TRIPOS>ATOM
      1 C1          28.5255  36.0985  41.7996 C.3            1 <1>                0.0000
      2 C2          28.9815  36.9760  40.6321 C.3            1 <1>                0.0000
      3 O3          29.8757  36.2166  39.7763 O.3            1 <1>                0.0000
      4 C4          29.9033  36.5491  38.4762 C.2            1 <1>                0.0000
      5 O5          29.2243  37.4629  38.0718 O.2            1 <1>                0.0000
      6 C6          30.7814  35.7826  37.5209 C.3            1 <1>                0.0000
      7 C7          31.6721  34.7952  38.3041 C.3            1 <1>                0.0000
      8 C8          33.0225  34.8666  37.5432 C.3            1 <1>                0.0000
      9 C9          33.0711  36.3603  37.1357 C.3            1 <1>                0.0000
     10 N10         31.6759  36.7087  36.8112 N.pl3          1 <1>                0.0000
     11 S11         31.1956  37.9390  35.8122 S.o2           1 <1>                0.0000
     12 O12         29.8965  37.5963  35.3495 O.2            1 <1>                0.0000
     13 O13         31.4815  39.1492  36.5000 O.2            1 <1>                0.0000
     14 Cl14        32.4052  37.9027  34.1947 Cl             1 <1>                0.0000
     15 H15         27.8543  36.6686  42.4420 H              1 <1>                0.0000
     16 H16         28.0029  35.2232  41.4138 H              1 <1>                0.0000
     17 H17         29.3944  35.7787  42.3747 H              1 <1>                0.0000
     18 H18         28.1127  37.2958  40.0569 H              1 <1>                0.0000
     19 H19         29.5042  37.8512  41.0179 H              1 <1>                0.0000
     20 H20         30.1644  35.2382  36.8059 H              1 <1>                0.0000
     21 H21         31.7938  35.1214  39.3370 H              1 <1>                0.0000
     22 H22         31.2592  33.7873  38.2630 H              1 <1>                0.0000
     23 H23         33.8547  34.6135  38.1998 H              1 <1>                0.0000
     24 H24         33.0102  34.2221  36.6642 H              1 <1>                0.0000
     25 H25         33.4307  36.9685  37.9656 H              1 <1>                0.0000
     26 H26         33.7086  36.4946  36.2618 H              1 <1>                0.0000
@<TRIPOS>BOND
    1    1    2 1     
    2    1   15 1     
    3    1   16 1     
    4    1   17 1     
    5    2    3 1     
    6    2   18 1     
    7    2   19 1     
    8    3    4 1     
    9    4    5 2     
   10    4    6 1     
   11    6    7 1     
   12    6   10 1     
   13    6   20 1     
   14    7    8 1     
   15    7   21 1     
   16    7   22 1     
   17    8    9 1     
   18    8   23 1     
   19    8   24 1     
   20    9   10 1     
   21    9   25 1     
   22    9   26 1     
   23   10   11 1     
   24   11   12 2     
   25   11   13 2     
   26   11   14 1     
@<TRIPOS>SUBSTRUCTURE
      1 ****           1
@<TRIPOS>COMMENT
> <Gold.Version>
2022.2.0

> <Gold.Id.Protein>
1qkm|1qkm_protein|mol2

> <Gold.Protein.RotatedTorsions>
[  496  491  490  487 ] final  159.09 input  -89.99 | X-H torsion

> <Gold.Protein.ActiveResidues>
 MET295  LEU298  THR299  LEU301  ALA302  GLU305  TRP335  MET336  LEU339  MET340 
 GLY342  LEU343  ARG346  PHE356  ILE373  ILE376  PHE377  LEU380  LYS471  GLY472 
 MET473  HIS475  LEU476  LEU477  ASN478  MET479  VAL484  VAL487 

> <Gold.Protein.RotatedAtoms>
   37.2942   33.1953   41.0811 H   0  0  0  0  0  0  0  0  0  0  0  0  # atno 496  bound_to 491 

> <Gold.Score>
     Score     S(PLP)   S(hbond)     S(cho)   S(metal)  DE(clash)   DE(tors)     intcor
     37.45     -38.23       0.00       0.00       0.00       0.00       1.39       1.99

> <Gold.PLP.Fitness>
37.4516

> <Gold.PLP.PLP>
-38.2322

> <Gold.PLP.part.hbond>
0.0000

> <Gold.PLP.part.metal>
0.0000

> <Gold.PLP.part.buried>
-3.1193

> <Gold.PLP.part.nonpolar>
-35.3949

> <Gold.PLP.part.repulsive>
0.1147

> <Gold.PLP.ligand.clash>
0.0000

> <Gold.PLP.ligand.torsion>
1.3863

> <Gold.PLP.Chemscore.Hbond>
0.0000

> <Gold.PLP.Chemscore.CHOScore>
0.0000

> <Gold.PLP.Chemscore.Metal>
0.0000

> <Gold.PLP.Chemscore.Internal.Correction>
1.9920

