#       Name:                EN300-31545_i001
#       Creating user name   aseyller
#       Creation time:       Fri Apr 21 16:22:05 2023


#       File generated by GOLD software.
#

@<TRIPOS>MOLECULE
EN300-31545_i001|Sulfonylchlorides|mol2|2|dock5
    26    26     1
SMALL
USER_CHARGES


@<TRIPOS>ATOM
      1 C1          27.0023  36.6172  41.2235 C.3            1 <1>                0.0000
      2 C2          28.4985  36.4500  41.4964 C.3            1 <1>                0.0000
      3 O3          29.0910  35.6269  40.4572 O.3            1 <1>                0.0000
      4 C4          29.6684  36.2669  39.4282 C.2            1 <1>                0.0000
      5 O5          29.7311  37.4734  39.4257 O.2            1 <1>                0.0000
      6 C6          30.2386  35.4803  38.2762 C.3            1 <1>                0.0000
      7 C7          31.2758  34.4633  38.7974 C.3            1 <1>                0.0000
      8 C8          32.3773  34.4996  37.7051 C.3            1 <1>                0.0000
      9 C9          32.3599  35.9934  37.2954 C.3            1 <1>                0.0000
     10 N10         30.9394  36.3838  37.3520 N.pl3          1 <1>                0.0000
     11 S11         30.2475  37.6328  36.5132 S.o2           1 <1>                0.0000
     12 O12         30.9824  38.8004  36.8534 O.2            1 <1>                0.0000
     13 O13         30.0864  37.1779  35.1766 O.2            1 <1>                0.0000
     14 Cl14        28.3869  37.8934  37.2553 Cl             1 <1>                0.0000
     15 H15         26.5575  37.2350  42.0037 H              1 <1>                0.0000
     16 H16         26.8610  37.0972  40.2552 H              1 <1>                0.0000
     17 H17         26.5225  35.6385  41.2174 H              1 <1>                0.0000
     18 H18         28.9783  37.4287  41.5026 H              1 <1>                0.0000
     19 H19         28.6398  35.9699  42.4648 H              1 <1>                0.0000
     20 H20         29.4382  34.9578  37.7520 H              1 <1>                0.0000
     21 H21         31.6768  34.7804  39.7600 H              1 <1>                0.0000
     22 H22         30.8374  33.4681  38.8700 H              1 <1>                0.0000
     23 H23         33.3462  34.2190  38.1178 H              1 <1>                0.0000
     24 H24         32.1132  33.8604  36.8626 H              1 <1>                0.0000
     25 H25         32.9445  36.5865  37.9985 H              1 <1>                0.0000
     26 H26         32.7462  36.1138  36.2833 H              1 <1>                0.0000
@<TRIPOS>BOND
    1    1    2 1     
    2    1   15 1     
    3    1   16 1     
    4    1   17 1     
    5    2    3 1     
    6    2   18 1     
    7    2   19 1     
    8    3    4 1     
    9    4    5 2     
   10    4    6 1     
   11    6    7 1     
   12    6   10 1     
   13    6   20 1     
   14    7    8 1     
   15    7   21 1     
   16    7   22 1     
   17    8    9 1     
   18    8   23 1     
   19    8   24 1     
   20    9   10 1     
   21    9   25 1     
   22    9   26 1     
   23   10   11 1     
   24   11   12 2     
   25   11   13 2     
   26   11   14 1     
@<TRIPOS>SUBSTRUCTURE
      1 ****           1
@<TRIPOS>COMMENT
> <Gold.Version>
2022.2.0

> <Gold.Id.Protein>
1qkm|1qkm_protein|mol2

> <Gold.Protein.RotatedTorsions>
[  496  491  490  487 ] final -172.14 input  -89.99 | X-H torsion

> <Gold.Protein.ActiveResidues>
 MET295  LEU298  THR299  LEU301  ALA302  GLU305  TRP335  MET336  LEU339  MET340 
 GLY342  LEU343  ARG346  PHE356  ILE373  ILE376  PHE377  LEU380  LYS471  GLY472 
 MET473  HIS475  LEU476  LEU477  ASN478  MET479  VAL484  VAL487 

> <Gold.Protein.RotatedAtoms>
   37.3086   33.5767   40.8093 H   0  0  0  0  0  0  0  0  0  0  0  0  # atno 496  bound_to 491 

> <Gold.Score>
     Score     S(PLP)   S(hbond)     S(cho)   S(metal)  DE(clash)   DE(tors)     intcor
     37.95     -39.07       0.00       0.00       0.00       0.00       1.56       1.99

> <Gold.PLP.Fitness>
37.9522

> <Gold.PLP.PLP>
-39.0740

> <Gold.PLP.part.hbond>
0.0000

> <Gold.PLP.part.metal>
0.0000

> <Gold.PLP.part.buried>
-3.1140

> <Gold.PLP.part.nonpolar>
-37.1954

> <Gold.PLP.part.repulsive>
0.2012

> <Gold.PLP.ligand.clash>
0.0000

> <Gold.PLP.ligand.torsion>
1.5569

> <Gold.PLP.Chemscore.Hbond>
0.0000

> <Gold.PLP.Chemscore.CHOScore>
0.0000

> <Gold.PLP.Chemscore.Metal>
0.0000

> <Gold.PLP.Chemscore.Internal.Correction>
1.9920

