#       Name:                EN300-31545_i001
#       Creating user name   aseyller
#       Creation time:       Fri Apr 21 16:22:02 2023


#       File generated by GOLD software.
#

@<TRIPOS>MOLECULE
EN300-31545_i001|Sulfonylchlorides|mol2|2|dock1
    26    26     1
SMALL
USER_CHARGES


@<TRIPOS>ATOM
      1 C1          25.7755  37.1594  39.9672 C.3            1 <1>                0.0000
      2 C2          27.0635  36.5211  40.4916 C.3            1 <1>                0.0000
      3 O3          27.8537  36.0370  39.3736 O.3            1 <1>                0.0000
      4 C4          29.1701  36.2982  39.3996 C.2            1 <1>                0.0000
      5 O5          29.6530  36.8749  40.3450 O.2            1 <1>                0.0000
      6 C6          30.0455  35.8720  38.2494 C.3            1 <1>                0.0000
      7 C7          31.2069  34.9988  38.7692 C.3            1 <1>                0.0000
      8 C8          32.4045  35.4573  37.8957 C.3            1 <1>                0.0000
      9 C9          32.1077  36.9686  37.7297 C.3            1 <1>                0.0000
     10 N10         30.6409  37.0542  37.6094 N.pl3          1 <1>                0.0000
     11 S11         29.8026  38.2788  36.8746 S.o2           1 <1>                0.0000
     12 O12         28.4242  37.9686  37.0258 O.2            1 <1>                0.0000
     13 O13         30.3809  39.4929  37.3339 O.2            1 <1>                0.0000
     14 Cl14        30.1979  38.1712  34.8966 Cl             1 <1>                0.0000
     15 H15         25.1823  37.5227  40.8065 H              1 <1>                0.0000
     16 H16         26.0244  37.9928  39.3103 H              1 <1>                0.0000
     17 H17         25.2024  36.4173  39.4115 H              1 <1>                0.0000
     18 H18         27.6366  37.2632  41.0473 H              1 <1>                0.0000
     19 H19         26.8146  35.6876  41.1484 H              1 <1>                0.0000
     20 H20         29.4566  35.3116  37.5232 H              1 <1>                0.0000
     21 H21         31.3990  35.2001  39.8231 H              1 <1>                0.0000
     22 H22         30.9957  33.9414  38.6097 H              1 <1>                0.0000
     23 H23         33.3497  35.2995  38.4148 H              1 <1>                0.0000
     24 H24         32.4010  34.9502  36.9308 H              1 <1>                0.0000
     25 H25         32.4493  37.5207  38.6052 H              1 <1>                0.0000
     26 H26         32.5852  37.3523  36.8282 H              1 <1>                0.0000
@<TRIPOS>BOND
    1    1    2 1     
    2    1   15 1     
    3    1   16 1     
    4    1   17 1     
    5    2    3 1     
    6    2   18 1     
    7    2   19 1     
    8    3    4 1     
    9    4    5 2     
   10    4    6 1     
   11    6    7 1     
   12    6   10 1     
   13    6   20 1     
   14    7    8 1     
   15    7   21 1     
   16    7   22 1     
   17    8    9 1     
   18    8   23 1     
   19    8   24 1     
   20    9   10 1     
   21    9   25 1     
   22    9   26 1     
   23   10   11 1     
   24   11   12 2     
   25   11   13 2     
   26   11   14 1     
@<TRIPOS>SUBSTRUCTURE
      1 ****           1
@<TRIPOS>COMMENT
> <Gold.Version>
2022.2.0

> <Gold.Id.Protein>
1qkm|1qkm_protein|mol2

> <Gold.Protein.RotatedTorsions>
[  496  491  490  487 ] final  -78.09 input  -89.99 | X-H torsion

> <Gold.Protein.ActiveResidues>
 MET295  LEU298  THR299  LEU301  ALA302  GLU305  TRP335  MET336  LEU339  MET340 
 GLY342  LEU343  ARG346  PHE356  ILE373  ILE376  PHE377  LEU380  LYS471  GLY472 
 MET473  HIS475  LEU476  LEU477  ASN478  MET479  VAL484  VAL487 

> <Gold.Protein.RotatedAtoms>
   36.6488   34.7134   41.2307 H   0  0  0  0  0  0  0  0  0  0  0  0  # atno 496  bound_to 491 

> <Gold.Score>
     Score     S(PLP)   S(hbond)     S(cho)   S(metal)  DE(clash)   DE(tors)     intcor
     37.46     -38.18       0.00       0.00       0.00       0.00       1.38       2.03

> <Gold.PLP.Fitness>
37.4577

> <Gold.PLP.PLP>
-38.1792

> <Gold.PLP.part.hbond>
0.0000

> <Gold.PLP.part.metal>
0.0000

> <Gold.PLP.part.buried>
-3.0106

> <Gold.PLP.part.nonpolar>
-36.0795

> <Gold.PLP.part.repulsive>
0.0942

> <Gold.PLP.ligand.clash>
0.0000

> <Gold.PLP.ligand.torsion>
1.3775

> <Gold.PLP.Chemscore.Hbond>
0.0000

> <Gold.PLP.Chemscore.CHOScore>
0.0000

> <Gold.PLP.Chemscore.Metal>
0.0000

> <Gold.PLP.Chemscore.Internal.Correction>
2.0336

