#       Name:                EN300-31545_i001
#       Creating user name   aseyller
#       Creation time:       Fri Apr 21 16:22:09 2023


#       File generated by GOLD software.
#

@<TRIPOS>MOLECULE
EN300-31545_i001|Sulfonylchlorides|mol2|2|dock9
    26    26     1
SMALL
USER_CHARGES


@<TRIPOS>ATOM
      1 C1          27.1626  36.0333  40.7019 C.3            1 <1>                0.0000
      2 C2          28.6348  36.0217  41.1187 C.3            1 <1>                0.0000
      3 O3          29.4439  35.5178  40.0234 O.3            1 <1>                0.0000
      4 C4          29.9296  36.4221  39.1584 C.2            1 <1>                0.0000
      5 O5          29.6935  37.5964  39.3161 O.2            1 <1>                0.0000
      6 C6          30.7692  35.9724  37.9906 C.3            1 <1>                0.0000
      7 C7          32.0881  35.3538  38.4999 C.3            1 <1>                0.0000
      8 C8          33.1297  35.8552  37.4648 C.3            1 <1>                0.0000
      9 C9          32.5910  37.2715  37.1427 C.3            1 <1>                0.0000
     10 N10         31.1237  37.1289  37.1549 N.pl3          1 <1>                0.0000
     11 S11         30.0522  38.1089  36.3587 S.o2           1 <1>                0.0000
     12 O12         30.2553  37.8814  34.9708 O.2            1 <1>                0.0000
     13 O13         28.7959  37.9337  36.9992 O.2            1 <1>                0.0000
     14 Cl14        30.6113  40.0176  36.7118 Cl             1 <1>                0.0000
     15 H15         26.5552  36.4115  41.5242 H              1 <1>                0.0000
     16 H16         27.0366  36.6768  39.8312 H              1 <1>                0.0000
     17 H17         26.8473  35.0200  40.4535 H              1 <1>                0.0000
     18 H18         28.9501  37.0350  41.3672 H              1 <1>                0.0000
     19 H19         28.7608  35.3781  41.9894 H              1 <1>                0.0000
     20 H20         30.2199  35.2395  37.3996 H              1 <1>                0.0000
     21 H21         32.3273  35.7226  39.4973 H              1 <1>                0.0000
     22 H22         32.0313  34.2653  38.4934 H              1 <1>                0.0000
     23 H23         34.1251  35.9068  37.9058 H              1 <1>                0.0000
     24 H24         33.1304  35.2258  36.5749 H              1 <1>                0.0000
     25 H25         32.9095  37.9812  37.9062 H              1 <1>                0.0000
     26 H26         32.9327  37.5926  36.1588 H              1 <1>                0.0000
@<TRIPOS>BOND
    1    1    2 1     
    2    1   15 1     
    3    1   16 1     
    4    1   17 1     
    5    2    3 1     
    6    2   18 1     
    7    2   19 1     
    8    3    4 1     
    9    4    5 2     
   10    4    6 1     
   11    6    7 1     
   12    6   10 1     
   13    6   20 1     
   14    7    8 1     
   15    7   21 1     
   16    7   22 1     
   17    8    9 1     
   18    8   23 1     
   19    8   24 1     
   20    9   10 1     
   21    9   25 1     
   22    9   26 1     
   23   10   11 1     
   24   11   12 2     
   25   11   13 2     
   26   11   14 1     
@<TRIPOS>SUBSTRUCTURE
      1 ****           1
@<TRIPOS>COMMENT
> <Gold.Version>
2022.2.0

> <Gold.Id.Protein>
1qkm|1qkm_protein|mol2

> <Gold.Protein.RotatedTorsions>
[  496  491  490  487 ] final   73.68 input  -89.99 | X-H torsion

> <Gold.Protein.ActiveResidues>
 MET295  LEU298  THR299  LEU301  ALA302  GLU305  TRP335  MET336  LEU339  MET340 
 GLY342  LEU343  ARG346  PHE356  ILE373  ILE376  PHE377  LEU380  LYS471  GLY472 
 MET473  HIS475  LEU476  LEU477  ASN478  MET479  VAL484  VAL487 

> <Gold.Protein.RotatedAtoms>
   36.6703   33.1605   42.1975 H   0  0  0  0  0  0  0  0  0  0  0  0  # atno 496  bound_to 491 

> <Gold.Score>
     Score     S(PLP)   S(hbond)     S(cho)   S(metal)  DE(clash)   DE(tors)     intcor
     38.85     -39.56       0.00       0.00       0.00       0.00       1.35       1.99

> <Gold.PLP.Fitness>
38.8491

> <Gold.PLP.PLP>
-39.5597

> <Gold.PLP.part.hbond>
0.0000

> <Gold.PLP.part.metal>
0.0000

> <Gold.PLP.part.buried>
-3.6003

> <Gold.PLP.part.nonpolar>
-36.8379

> <Gold.PLP.part.repulsive>
0.1673

> <Gold.PLP.ligand.clash>
0.0000

> <Gold.PLP.ligand.torsion>
1.3513

> <Gold.PLP.Chemscore.Hbond>
0.0000

> <Gold.PLP.Chemscore.CHOScore>
0.0000

> <Gold.PLP.Chemscore.Metal>
0.0000

> <Gold.PLP.Chemscore.Internal.Correction>
1.9920

