#       Name:                EN300-31545_i001
#       Creating user name   aseyller
#       Creation time:       Fri Apr 21 16:22:03 2023


#       File generated by GOLD software.
#

@<TRIPOS>MOLECULE
EN300-31545_i001|Sulfonylchlorides|mol2|2|dock3
    26    26     1
SMALL
USER_CHARGES


@<TRIPOS>ATOM
      1 C1          31.2334  39.0965  34.7650 C.3            1 <1>                0.0000
      2 C2          31.9821  37.8209  34.3736 C.3            1 <1>                0.0000
      3 O3          32.3724  37.1014  35.5730 O.3            1 <1>                0.0000
      4 C4          31.3891  36.7311  36.4084 C.2            1 <1>                0.0000
      5 O5          30.2348  36.9094  36.0996 O.2            1 <1>                0.0000
      6 C6          31.7252  36.0929  37.7316 C.3            1 <1>                0.0000
      7 C7          32.3992  34.7243  37.4981 C.3            1 <1>                0.0000
      8 C8          31.8033  33.8458  38.6297 C.3            1 <1>                0.0000
      9 C9          30.3589  34.3977  38.7240 C.3            1 <1>                0.0000
     10 N10         30.4934  35.8480  38.4959 N.pl3          1 <1>                0.0000
     11 S11         29.4329  37.0090  39.0150 S.o2           1 <1>                0.0000
     12 O12         29.4814  36.9909  40.4350 O.2            1 <1>                0.0000
     13 O13         29.7011  38.1716  38.2431 O.2            1 <1>                0.0000
     14 Cl14        27.5777  36.3978  38.4999 Cl             1 <1>                0.0000
     15 H15         30.9405  39.6367  33.8646 H              1 <1>                0.0000
     16 H16         30.3435  38.8345  35.3372 H              1 <1>                0.0000
     17 H17         31.8829  39.7273  35.3720 H              1 <1>                0.0000
     18 H18         31.3327  37.1902  33.7667 H              1 <1>                0.0000
     19 H19         32.8721  38.0830  33.8015 H              1 <1>                0.0000
     20 H20         32.3925  36.7428  38.2977 H              1 <1>                0.0000
     21 H21         32.1328  34.3253  36.5194 H              1 <1>                0.0000
     22 H22         33.4812  34.8047  37.6014 H              1 <1>                0.0000
     23 H23         31.8016  32.7932  38.3474 H              1 <1>                0.0000
     24 H24         32.3411  33.9969  39.5658 H              1 <1>                0.0000
     25 H25         29.7305  33.9494  37.9545 H              1 <1>                0.0000
     26 H26         29.9434  34.2063  39.7133 H              1 <1>                0.0000
@<TRIPOS>BOND
    1    1    2 1     
    2    1   15 1     
    3    1   16 1     
    4    1   17 1     
    5    2    3 1     
    6    2   18 1     
    7    2   19 1     
    8    3    4 1     
    9    4    5 2     
   10    4    6 1     
   11    6    7 1     
   12    6   10 1     
   13    6   20 1     
   14    7    8 1     
   15    7   21 1     
   16    7   22 1     
   17    8    9 1     
   18    8   23 1     
   19    8   24 1     
   20    9   10 1     
   21    9   25 1     
   22    9   26 1     
   23   10   11 1     
   24   11   12 2     
   25   11   13 2     
   26   11   14 1     
@<TRIPOS>SUBSTRUCTURE
      1 ****           1
@<TRIPOS>COMMENT
> <Gold.Version>
2022.2.0

> <Gold.Id.Protein>
1qkm|1qkm_protein|mol2

> <Gold.Protein.RotatedTorsions>
[  496  491  490  487 ] final  -50.58 input  -89.99 | X-H torsion

> <Gold.Protein.ActiveResidues>
 MET295  LEU298  THR299  LEU301  ALA302  GLU305  TRP335  MET336  LEU339  MET340 
 GLY342  LEU343  ARG346  PHE356  ILE373  ILE376  PHE377  LEU380  LYS471  GLY472 
 MET473  HIS475  LEU476  LEU477  ASN478  MET479  VAL484  VAL487 

> <Gold.Protein.RotatedAtoms>
   36.4285   34.7065   41.6213 H   0  0  0  0  0  0  0  0  0  0  0  0  # atno 496  bound_to 491 

> <Gold.Score>
     Score     S(PLP)   S(hbond)     S(cho)   S(metal)  DE(clash)   DE(tors)     intcor
     41.10     -41.47       0.00       0.00       0.00       0.00       1.18       1.99

> <Gold.PLP.Fitness>
41.0983

> <Gold.PLP.PLP>
-41.4667

> <Gold.PLP.part.hbond>
0.0000

> <Gold.PLP.part.metal>
0.0000

> <Gold.PLP.part.buried>
-4.1551

> <Gold.PLP.part.nonpolar>
-37.4981

> <Gold.PLP.part.repulsive>
0.1709

> <Gold.PLP.ligand.clash>
0.0043

> <Gold.PLP.ligand.torsion>
1.1781

> <Gold.PLP.Chemscore.Hbond>
0.0000

> <Gold.PLP.Chemscore.CHOScore>
0.0000

> <Gold.PLP.Chemscore.Metal>
0.0000

> <Gold.PLP.Chemscore.Internal.Correction>
1.9920

