#       Name:                EN300-31545_i001
#       Creating user name   aseyller
#       Creation time:       Fri Apr 21 16:22:03 2023


#       File generated by GOLD software.
#

@<TRIPOS>MOLECULE
EN300-31545_i001|Sulfonylchlorides|mol2|2|dock2
    26    26     1
SMALL
USER_CHARGES


@<TRIPOS>ATOM
      1 C1          25.8110  36.7865  40.1231 C.3            1 <1>                0.0000
      2 C2          27.1502  36.2513  40.6341 C.3            1 <1>                0.0000
      3 O3          27.9475  35.7908  39.5113 O.3            1 <1>                0.0000
      4 C4          29.2145  36.2288  39.4434 C.2            1 <1>                0.0000
      5 O5          29.6543  36.9430  40.3130 O.2            1 <1>                0.0000
      6 C6          30.0885  35.8296  38.2824 C.3            1 <1>                0.0000
      7 C7          31.3740  35.1520  38.8018 C.3            1 <1>                0.0000
      8 C8          32.4643  35.6895  37.8375 C.3            1 <1>                0.0000
      9 C9          31.9676  37.1343  37.5810 C.3            1 <1>                0.0000
     10 N10         30.4983  37.0249  37.5308 N.pl3          1 <1>                0.0000
     11 S11         29.4783  38.0743  36.7558 S.o2           1 <1>                0.0000
     12 O12         29.7646  37.9614  35.3686 O.2            1 <1>                0.0000
     13 O13         28.1853  37.8548  37.3028 O.2            1 <1>                0.0000
     14 Cl14        30.0178  39.9436  37.2993 Cl             1 <1>                0.0000
     15 H15         25.2125  37.1322  40.9660 H              1 <1>                0.0000
     16 H16         25.9886  37.6163  39.4390 H              1 <1>                0.0000
     17 H17         25.2780  35.9924  39.6004 H              1 <1>                0.0000
     18 H18         27.6832  37.0454  41.1568 H              1 <1>                0.0000
     19 H19         26.9726  35.4214  41.3181 H              1 <1>                0.0000
     20 H20         29.5470  35.1455  37.6289 H              1 <1>                0.0000
     21 H21         31.5827  35.4558  39.8276 H              1 <1>                0.0000
     22 H22         31.2950  34.0674  38.7283 H              1 <1>                0.0000
     23 H23         33.4430  35.6922  38.3170 H              1 <1>                0.0000
     24 H24         32.4857  35.1137  36.9122 H              1 <1>                0.0000
     25 H25         32.2715  37.7903  38.3967 H              1 <1>                0.0000
     26 H26         32.3530  37.5049  36.6313 H              1 <1>                0.0000
@<TRIPOS>BOND
    1    1    2 1     
    2    1   15 1     
    3    1   16 1     
    4    1   17 1     
    5    2    3 1     
    6    2   18 1     
    7    2   19 1     
    8    3    4 1     
    9    4    5 2     
   10    4    6 1     
   11    6    7 1     
   12    6   10 1     
   13    6   20 1     
   14    7    8 1     
   15    7   21 1     
   16    7   22 1     
   17    8    9 1     
   18    8   23 1     
   19    8   24 1     
   20    9   10 1     
   21    9   25 1     
   22    9   26 1     
   23   10   11 1     
   24   11   12 2     
   25   11   13 2     
   26   11   14 1     
@<TRIPOS>SUBSTRUCTURE
      1 ****           1
@<TRIPOS>COMMENT
> <Gold.Version>
2022.2.0

> <Gold.Id.Protein>
1qkm|1qkm_protein|mol2

> <Gold.Protein.RotatedTorsions>
[  496  491  490  487 ] final  -54.79 input  -89.99 | X-H torsion

> <Gold.Protein.ActiveResidues>
 MET295  LEU298  THR299  LEU301  ALA302  GLU305  TRP335  MET336  LEU339  MET340 
 GLY342  LEU343  ARG346  PHE356  ILE373  ILE376  PHE377  LEU380  LYS471  GLY472 
 MET473  HIS475  LEU476  LEU477  ASN478  MET479  VAL484  VAL487 

> <Gold.Protein.RotatedAtoms>
   36.4580   34.7209   41.5603 H   0  0  0  0  0  0  0  0  0  0  0  0  # atno 496  bound_to 491 

> <Gold.Score>
     Score     S(PLP)   S(hbond)     S(cho)   S(metal)  DE(clash)   DE(tors)     intcor
     38.65     -39.59       0.00       0.00       0.00       0.00       1.48       2.02

> <Gold.PLP.Fitness>
38.6454

> <Gold.PLP.PLP>
-39.5877

> <Gold.PLP.part.hbond>
0.0000

> <Gold.PLP.part.metal>
0.0000

> <Gold.PLP.part.buried>
-3.3000

> <Gold.PLP.part.nonpolar>
-36.2188

> <Gold.PLP.part.repulsive>
0.1117

> <Gold.PLP.ligand.clash>
0.0000

> <Gold.PLP.ligand.torsion>
1.4811

> <Gold.PLP.Chemscore.Hbond>
0.0000

> <Gold.PLP.Chemscore.CHOScore>
0.0000

> <Gold.PLP.Chemscore.Metal>
0.0000

> <Gold.PLP.Chemscore.Internal.Correction>
2.0200

