#       Name:                EN300-31545_i001
#       Creating user name   aseyller
#       Creation time:       Fri Apr 21 16:22:04 2023


#       File generated by GOLD software.
#

@<TRIPOS>MOLECULE
EN300-31545_i001|Sulfonylchlorides|mol2|2|dock4
    26    26     1
SMALL
USER_CHARGES


@<TRIPOS>ATOM
      1 C1          32.3925  38.1968  34.3048 C.3            1 <1>                0.0000
      2 C2          31.0727  37.8149  34.9782 C.3            1 <1>                0.0000
      3 O3          31.3085  36.7485  35.9352 O.3            1 <1>                0.0000
      4 C4          30.8789  36.9506  37.1907 C.2            1 <1>                0.0000
      5 O5          30.1487  37.8810  37.4370 O.2            1 <1>                0.0000
      6 C6          31.3076  36.0168  38.2931 C.3            1 <1>                0.0000
      7 C7          32.2200  34.9119  37.7199 C.3            1 <1>                0.0000
      8 C8          31.7777  33.6516  38.5095 C.3            1 <1>                0.0000
      9 C9          30.2565  33.8996  38.6645 C.3            1 <1>                0.0000
     10 N10         30.1305  35.3536  38.8727 N.pl3          1 <1>                0.0000
     11 S11         28.8717  36.1140  39.6340 S.o2           1 <1>                0.0000
     12 O12         28.1984  35.1167  40.3899 O.2            1 <1>                0.0000
     13 O13         29.4073  37.2970  40.2110 O.2            1 <1>                0.0000
     14 Cl14        27.5799  36.7126  38.2010 Cl             1 <1>                0.0000
     15 H15         32.2155  38.9973  33.5864 H              1 <1>                0.0000
     16 H16         33.1009  38.5366  35.0603 H              1 <1>                0.0000
     17 H17         32.8012  37.3285  33.7880 H              1 <1>                0.0000
     18 H18         30.6640  38.6831  35.4951 H              1 <1>                0.0000
     19 H19         30.3644  37.4750  34.2227 H              1 <1>                0.0000
     20 H20         31.8397  36.5736  39.0645 H              1 <1>                0.0000
     21 H21         32.0423  34.7802  36.6526 H              1 <1>                0.0000
     22 H22         33.2685  35.1392  37.9122 H              1 <1>                0.0000
     23 H23         31.9693  32.7444  37.9366 H              1 <1>                0.0000
     24 H24         32.2676  33.6083  39.4823 H              1 <1>                0.0000
     25 H25         29.7290  33.5990  37.7593 H              1 <1>                0.0000
     26 H26         29.8698  33.3579  39.5276 H              1 <1>                0.0000
@<TRIPOS>BOND
    1    1    2 1     
    2    1   15 1     
    3    1   16 1     
    4    1   17 1     
    5    2    3 1     
    6    2   18 1     
    7    2   19 1     
    8    3    4 1     
    9    4    5 2     
   10    4    6 1     
   11    6    7 1     
   12    6   10 1     
   13    6   20 1     
   14    7    8 1     
   15    7   21 1     
   16    7   22 1     
   17    8    9 1     
   18    8   23 1     
   19    8   24 1     
   20    9   10 1     
   21    9   25 1     
   22    9   26 1     
   23   10   11 1     
   24   11   12 2     
   25   11   13 2     
   26   11   14 1     
@<TRIPOS>SUBSTRUCTURE
      1 ****           1
@<TRIPOS>COMMENT
> <Gold.Version>
2022.2.0

> <Gold.Id.Protein>
1qkm|1qkm_protein|mol2

> <Gold.Protein.RotatedTorsions>
[  496  491  490  487 ] final  168.59 input  -89.99 | X-H torsion

> <Gold.Protein.ActiveResidues>
 MET295  LEU298  THR299  LEU301  ALA302  GLU305  TRP335  MET336  LEU339  MET340 
 GLY342  LEU343  ARG346  PHE356  ILE373  ILE376  PHE377  LEU380  LYS471  GLY472 
 MET473  HIS475  LEU476  LEU477  ASN478  MET479  VAL484  VAL487 

> <Gold.Protein.RotatedAtoms>
   37.3136   33.3077   40.9744 H   0  0  0  0  0  0  0  0  0  0  0  0  # atno 496  bound_to 491 

> <Gold.Score>
     Score     S(PLP)   S(hbond)     S(cho)   S(metal)  DE(clash)   DE(tors)     intcor
     39.22     -40.18       0.00       0.00       0.00       0.00       1.48       1.99

> <Gold.PLP.Fitness>
39.2152

> <Gold.PLP.PLP>
-40.1826

> <Gold.PLP.part.hbond>
0.0000

> <Gold.PLP.part.metal>
0.0000

> <Gold.PLP.part.buried>
-3.1634

> <Gold.PLP.part.nonpolar>
-37.5331

> <Gold.PLP.part.repulsive>
0.2035

> <Gold.PLP.ligand.clash>
0.0000

> <Gold.PLP.ligand.torsion>
1.4797

> <Gold.PLP.Chemscore.Hbond>
0.0000

> <Gold.PLP.Chemscore.CHOScore>
0.0000

> <Gold.PLP.Chemscore.Metal>
0.0000

> <Gold.PLP.Chemscore.Internal.Correction>
1.9920

