#       Name:                EN300-31545_i001
#       Creating user name   aseyller
#       Creation time:       Fri Apr 21 16:22:18 2023


#       File generated by GOLD software.
#

@<TRIPOS>MOLECULE
EN300-31545_i001|Sulfonylchlorides|mol2|2|dock19
    26    26     1
SMALL
USER_CHARGES


@<TRIPOS>ATOM
      1 C1          30.9096  39.3541  35.2169 C.3            1 <1>                0.0000
      2 C2          31.6656  38.1421  34.6686 C.3            1 <1>                0.0000
      3 O3          32.0722  37.2868  35.7693 O.3            1 <1>                0.0000
      4 C4          31.1066  36.8610  36.5989 C.2            1 <1>                0.0000
      5 O5          29.9452  37.0194  36.3059 O.2            1 <1>                0.0000
      6 C6          31.4712  36.1853  37.8956 C.3            1 <1>                0.0000
      7 C7          32.3332  34.9369  37.6126 C.3            1 <1>                0.0000
      8 C8          31.8157  33.9131  38.6574 C.3            1 <1>                0.0000
      9 C9          30.3073  34.2613  38.7132 C.3            1 <1>                0.0000
     10 N10         30.2535  35.7286  38.5812 N.pl3          1 <1>                0.0000
     11 S11         29.0252  36.7014  39.1169 S.o2           1 <1>                0.0000
     12 O12         29.3473  38.0211  38.6999 O.2            1 <1>                0.0000
     13 O13         27.8132  36.0489  38.7635 O.2            1 <1>                0.0000
     14 Cl14        29.1030  36.7060  41.1354 Cl             1 <1>                0.0000
     15 H15         30.6045  39.9962  34.3906 H              1 <1>                0.0000
     16 H16         30.0269  39.0165  35.7599 H              1 <1>                0.0000
     17 H17         31.5590  39.9130  35.8907 H              1 <1>                0.0000
     18 H18         31.0163  37.5833  33.9948 H              1 <1>                0.0000
     19 H19         32.5485  38.4797  34.1257 H              1 <1>                0.0000
     20 H20         32.0206  36.8783  38.5329 H              1 <1>                0.0000
     21 H21         32.1638  34.5728  36.5993 H              1 <1>                0.0000
     22 H22         33.3893  35.1526  37.7745 H              1 <1>                0.0000
     23 H23         31.9682  32.8909  38.3114 H              1 <1>                0.0000
     24 H24         32.2891  34.0707  39.6265 H              1 <1>                0.0000
     25 H25         29.7775  33.7865  37.8873 H              1 <1>                0.0000
     26 H26         29.8812  33.9504  39.6670 H              1 <1>                0.0000
@<TRIPOS>BOND
    1    1    2 1     
    2    1   15 1     
    3    1   16 1     
    4    1   17 1     
    5    2    3 1     
    6    2   18 1     
    7    2   19 1     
    8    3    4 1     
    9    4    5 2     
   10    4    6 1     
   11    6    7 1     
   12    6   10 1     
   13    6   20 1     
   14    7    8 1     
   15    7   21 1     
   16    7   22 1     
   17    8    9 1     
   18    8   23 1     
   19    8   24 1     
   20    9   10 1     
   21    9   25 1     
   22    9   26 1     
   23   10   11 1     
   24   11   12 2     
   25   11   13 2     
   26   11   14 1     
@<TRIPOS>SUBSTRUCTURE
      1 ****           1
@<TRIPOS>COMMENT
> <Gold.Version>
2022.2.0

> <Gold.Id.Protein>
1qkm|1qkm_protein|mol2

> <Gold.Protein.RotatedTorsions>
[  496  491  490  487 ] final -153.21 input  -89.99 | X-H torsion

> <Gold.Protein.ActiveResidues>
 MET295  LEU298  THR299  LEU301  ALA302  GLU305  TRP335  MET336  LEU339  MET340 
 GLY342  LEU343  ARG346  PHE356  ILE373  ILE376  PHE377  LEU380  LYS471  GLY472 
 MET473  HIS475  LEU476  LEU477  ASN478  MET479  VAL484  VAL487 

> <Gold.Protein.RotatedAtoms>
   37.2469   33.8697   40.7279 H   0  0  0  0  0  0  0  0  0  0  0  0  # atno 496  bound_to 491 

> <Gold.Score>
     Score     S(PLP)   S(hbond)     S(cho)   S(metal)  DE(clash)   DE(tors)     intcor
     39.12     -39.45       0.00       0.00       0.00       0.00       1.16       1.99

> <Gold.PLP.Fitness>
39.1221

> <Gold.PLP.PLP>
-39.4493

> <Gold.PLP.part.hbond>
0.0000

> <Gold.PLP.part.metal>
0.0000

> <Gold.PLP.part.buried>
-1.6069

> <Gold.PLP.part.nonpolar>
-37.9875

> <Gold.PLP.part.repulsive>
0.0476

> <Gold.PLP.ligand.clash>
0.0000

> <Gold.PLP.ligand.torsion>
1.1596

> <Gold.PLP.Chemscore.Hbond>
0.0000

> <Gold.PLP.Chemscore.CHOScore>
0.0000

> <Gold.PLP.Chemscore.Metal>
0.0000

> <Gold.PLP.Chemscore.Internal.Correction>
1.9920

