#       Name:                EN300-31545_i001
#       Creating user name   aseyller
#       Creation time:       Fri Apr 21 16:22:14 2023


#       File generated by GOLD software.
#

@<TRIPOS>MOLECULE
EN300-31545_i001|Sulfonylchlorides|mol2|2|dock15
    26    26     1
SMALL
USER_CHARGES


@<TRIPOS>ATOM
      1 C1          25.6410  37.3253  39.2282 C.3            1 <1>                0.0000
      2 C2          26.9632  36.8591  39.8410 C.3            1 <1>                0.0000
      3 O3          27.8388  36.3723  38.7899 O.3            1 <1>                0.0000
      4 C4          29.1212  36.1511  39.1190 C.2            1 <1>                0.0000
      5 O5          29.5472  36.5361  40.1820 O.2            1 <1>                0.0000
      6 C6          30.0295  35.4224  38.1625 C.3            1 <1>                0.0000
      7 C7          30.6506  34.1943  38.8609 C.3            1 <1>                0.0000
      8 C8          32.1006  34.1769  38.3089 C.3            1 <1>                0.0000
      9 C9          32.4070  35.6909  38.1918 C.3            1 <1>                0.0000
     10 N10         31.1369  36.3004  37.7573 N.pl3          1 <1>                0.0000
     11 S11         30.9831  37.7362  36.9466 S.o2           1 <1>                0.0000
     12 O12         30.0015  38.4888  37.6460 O.2            1 <1>                0.0000
     13 O13         32.3029  38.2081  36.7122 O.2            1 <1>                0.0000
     14 Cl14        30.1964  37.3180  35.1337 Cl             1 <1>                0.0000
     15 H15         24.9837  37.6907  40.0172 H              1 <1>                0.0000
     16 H16         25.8337  38.1272  38.5154 H              1 <1>                0.0000
     17 H17         25.1638  36.4903  38.7153 H              1 <1>                0.0000
     18 H18         27.4404  37.6941  40.3539 H              1 <1>                0.0000
     19 H19         26.7705  36.0572  40.5537 H              1 <1>                0.0000
     20 H20         29.4656  35.1042  37.2855 H              1 <1>                0.0000
     21 H21         30.6515  34.3255  39.9430 H              1 <1>                0.0000
     22 H22         30.1209  33.2833  38.5823 H              1 <1>                0.0000
     23 H23         32.7801  33.6939  39.0109 H              1 <1>                0.0000
     24 H24         32.1412  33.6935  37.3327 H              1 <1>                0.0000
     25 H25         32.7093  36.0926  39.1588 H              1 <1>                0.0000
     26 H26         33.1848  35.8641  37.4482 H              1 <1>                0.0000
@<TRIPOS>BOND
    1    1    2 1     
    2    1   15 1     
    3    1   16 1     
    4    1   17 1     
    5    2    3 1     
    6    2   18 1     
    7    2   19 1     
    8    3    4 1     
    9    4    5 2     
   10    4    6 1     
   11    6    7 1     
   12    6   10 1     
   13    6   20 1     
   14    7    8 1     
   15    7   21 1     
   16    7   22 1     
   17    8    9 1     
   18    8   23 1     
   19    8   24 1     
   20    9   10 1     
   21    9   25 1     
   22    9   26 1     
   23   10   11 1     
   24   11   12 2     
   25   11   13 2     
   26   11   14 1     
@<TRIPOS>SUBSTRUCTURE
      1 ****           1
@<TRIPOS>COMMENT
> <Gold.Version>
2022.2.0

> <Gold.Id.Protein>
1qkm|1qkm_protein|mol2

> <Gold.Protein.RotatedTorsions>
[  496  491  490  487 ] final  -19.03 input  -89.99 | X-H torsion

> <Gold.Protein.ActiveResidues>
 MET295  LEU298  THR299  LEU301  ALA302  GLU305  TRP335  MET336  LEU339  MET340 
 GLY342  LEU343  ARG346  PHE356  ILE373  ILE376  PHE377  LEU380  LYS471  GLY472 
 MET473  HIS475  LEU476  LEU477  ASN478  MET479  VAL484  VAL487 

> <Gold.Protein.RotatedAtoms>
   36.2784   34.4590   42.0446 H   0  0  0  0  0  0  0  0  0  0  0  0  # atno 496  bound_to 491 

> <Gold.Score>
     Score     S(PLP)   S(hbond)     S(cho)   S(metal)  DE(clash)   DE(tors)     intcor
     37.85     -38.25       0.00       0.00       0.00       0.00       1.20       1.99

> <Gold.PLP.Fitness>
37.8455

> <Gold.PLP.PLP>
-38.2546

> <Gold.PLP.part.hbond>
0.0000

> <Gold.PLP.part.metal>
0.0000

> <Gold.PLP.part.buried>
-3.8913

> <Gold.PLP.part.nonpolar>
-34.6092

> <Gold.PLP.part.repulsive>
0.0918

> <Gold.PLP.ligand.clash>
0.0000

> <Gold.PLP.ligand.torsion>
1.2005

> <Gold.PLP.Chemscore.Hbond>
0.0000

> <Gold.PLP.Chemscore.CHOScore>
0.0000

> <Gold.PLP.Chemscore.Metal>
0.0000

> <Gold.PLP.Chemscore.Internal.Correction>
1.9920

