#       Name:                EN300-31545_i001
#       Creating user name   aseyller
#       Creation time:       Fri Apr 21 16:22:13 2023


#       File generated by GOLD software.
#

@<TRIPOS>MOLECULE
EN300-31545_i001|Sulfonylchlorides|mol2|2|dock14
    26    26     1
SMALL
USER_CHARGES


@<TRIPOS>ATOM
      1 C1          28.8214  36.6987  41.5177 C.3            1 <1>                0.0000
      2 C2          28.5906  36.6464  40.0061 C.3            1 <1>                0.0000
      3 O3          29.6719  37.3380  39.3271 O.3            1 <1>                0.0000
      4 C4          29.5314  37.5418  38.0078 C.2            1 <1>                0.0000
      5 O5          28.5404  37.1503  37.4382 O.2            1 <1>                0.0000
      6 C6          30.6097  38.2590  37.2372 C.3            1 <1>                0.0000
      7 C7          29.9715  39.2202  36.2123 C.3            1 <1>                0.0000
      8 C8          30.9045  39.0837  34.9801 C.3            1 <1>                0.0000
      9 C9          31.2864  37.5838  35.0438 C.3            1 <1>                0.0000
     10 N10         31.4149  37.2879  36.4823 N.pl3          1 <1>                0.0000
     11 S11         32.3172  36.0645  37.1390 S.o2           1 <1>                0.0000
     12 O12         32.6665  35.2022  36.0649 O.2            1 <1>                0.0000
     13 O13         33.2786  36.6834  37.9829 O.2            1 <1>                0.0000
     14 Cl14        31.0957  35.0033  38.3483 Cl             1 <1>                0.0000
     15 H15         28.0097  36.1796  42.0274 H              1 <1>                0.0000
     16 H16         29.7687  36.2158  41.7575 H              1 <1>                0.0000
     17 H17         28.8503  37.7380  41.8451 H              1 <1>                0.0000
     18 H18         28.5617  35.6072  39.6787 H              1 <1>                0.0000
     19 H19         27.6433  37.1294  39.7663 H              1 <1>                0.0000
     20 H20         31.2461  38.8181  37.9233 H              1 <1>                0.0000
     21 H21         28.9581  38.9035  35.9656 H              1 <1>                0.0000
     22 H22         29.9761  40.2433  36.5882 H              1 <1>                0.0000
     23 H23         30.3699  39.3119  34.0581 H              1 <1>                0.0000
     24 H24         31.7860  39.7162  35.0856 H              1 <1>                0.0000
     25 H25         30.5005  36.9730  34.5996 H              1 <1>                0.0000
     26 H26         32.2348  37.4119  34.5350 H              1 <1>                0.0000
@<TRIPOS>BOND
    1    1    2 1     
    2    1   15 1     
    3    1   16 1     
    4    1   17 1     
    5    2    3 1     
    6    2   18 1     
    7    2   19 1     
    8    3    4 1     
    9    4    5 2     
   10    4    6 1     
   11    6    7 1     
   12    6   10 1     
   13    6   20 1     
   14    7    8 1     
   15    7   21 1     
   16    7   22 1     
   17    8    9 1     
   18    8   23 1     
   19    8   24 1     
   20    9   10 1     
   21    9   25 1     
   22    9   26 1     
   23   10   11 1     
   24   11   12 2     
   25   11   13 2     
   26   11   14 1     
@<TRIPOS>SUBSTRUCTURE
      1 ****           1
@<TRIPOS>COMMENT
> <Gold.Version>
2022.2.0

> <Gold.Id.Protein>
1qkm|1qkm_protein|mol2

> <Gold.Protein.RotatedTorsions>
[  496  491  490  487 ] final  -75.93 input  -89.99 | X-H torsion

> <Gold.Protein.ActiveResidues>
 MET295  LEU298  THR299  LEU301  ALA302  GLU305  TRP335  MET336  LEU339  MET340 
 GLY342  LEU343  ARG346  PHE356  ILE373  ILE376  PHE377  LEU380  LYS471  GLY472 
 MET473  HIS475  LEU476  LEU477  ASN478  MET479  VAL484  VAL487 

> <Gold.Protein.RotatedAtoms>
   36.6297   34.7202   41.2597 H   0  0  0  0  0  0  0  0  0  0  0  0  # atno 496  bound_to 491 

> <Gold.Score>
     Score     S(PLP)   S(hbond)     S(cho)   S(metal)  DE(clash)   DE(tors)     intcor
     37.24     -38.48       0.00       0.00       0.00       0.00       1.61       1.99

> <Gold.PLP.Fitness>
37.2442

> <Gold.PLP.PLP>
-38.4817

> <Gold.PLP.part.hbond>
0.0000

> <Gold.PLP.part.metal>
0.0000

> <Gold.PLP.part.buried>
-2.5271

> <Gold.PLP.part.nonpolar>
-35.9347

> <Gold.PLP.part.repulsive>
0.1308

> <Gold.PLP.ligand.clash>
0.0000

> <Gold.PLP.ligand.torsion>
1.6148

> <Gold.PLP.Chemscore.Hbond>
0.0000

> <Gold.PLP.Chemscore.CHOScore>
0.0000

> <Gold.PLP.Chemscore.Metal>
0.0000

> <Gold.PLP.Chemscore.Internal.Correction>
1.9920

