#       Name:                EN300-31545_i001
#       Creating user name   aseyller
#       Creation time:       Fri Apr 21 16:22:12 2023


#       File generated by GOLD software.
#

@<TRIPOS>MOLECULE
EN300-31545_i001|Sulfonylchlorides|mol2|2|dock13
    26    26     1
SMALL
USER_CHARGES


@<TRIPOS>ATOM
      1 C1          27.3009  35.8053  40.7785 C.3            1 <1>                0.0000
      2 C2          28.7967  35.9784  41.0498 C.3            1 <1>                0.0000
      3 O3          29.3342  36.9972  40.1657 O.3            1 <1>                0.0000
      4 C4          29.9806  36.5726  39.0686 C.2            1 <1>                0.0000
      5 O5          30.1647  35.3912  38.8952 O.2            1 <1>                0.0000
      6 C6          30.4766  37.5696  38.0532 C.3            1 <1>                0.0000
      7 C7          29.2826  38.3257  37.4335 C.3            1 <1>                0.0000
      8 C8          29.6958  38.4672  35.9445 C.3            1 <1>                0.0000
      9 C9          30.4430  37.1322  35.7010 C.3            1 <1>                0.0000
     10 N10         31.1648  36.8688  36.9592 N.pl3          1 <1>                0.0000
     11 S11         32.5256  35.9380  37.1145 S.o2           1 <1>                0.0000
     12 O12         33.0660  35.7961  35.8079 O.2            1 <1>                0.0000
     13 O13         33.2596  36.4790  38.2044 O.2            1 <1>                0.0000
     14 Cl14        31.9278  34.0956  37.6877 Cl             1 <1>                0.0000
     15 H15         26.8975  35.0404  41.4422 H              1 <1>                0.0000
     16 H16         26.7873  36.7498  40.9580 H              1 <1>                0.0000
     17 H17         27.1523  35.5021  39.7422 H              1 <1>                0.0000
     18 H18         28.9453  36.2816  42.0862 H              1 <1>                0.0000
     19 H19         29.3103  35.0339  40.8702 H              1 <1>                0.0000
     20 H20         31.1563  38.2764  38.5293 H              1 <1>                0.0000
     21 H21         28.3667  37.7421  37.5256 H              1 <1>                0.0000
     22 H22         29.1648  39.3058  37.8957 H              1 <1>                0.0000
     23 H23         28.8193  38.5472  35.3018 H              1 <1>                0.0000
     24 H24         30.3613  39.3188  35.8030 H              1 <1>                0.0000
     25 H25         29.7323  36.3315  35.4966 H              1 <1>                0.0000
     26 H26         31.1463  37.2364  34.8749 H              1 <1>                0.0000
@<TRIPOS>BOND
    1    1    2 1     
    2    1   15 1     
    3    1   16 1     
    4    1   17 1     
    5    2    3 1     
    6    2   18 1     
    7    2   19 1     
    8    3    4 1     
    9    4    5 2     
   10    4    6 1     
   11    6    7 1     
   12    6   10 1     
   13    6   20 1     
   14    7    8 1     
   15    7   21 1     
   16    7   22 1     
   17    8    9 1     
   18    8   23 1     
   19    8   24 1     
   20    9   10 1     
   21    9   25 1     
   22    9   26 1     
   23   10   11 1     
   24   11   12 2     
   25   11   13 2     
   26   11   14 1     
@<TRIPOS>SUBSTRUCTURE
      1 ****           1
@<TRIPOS>COMMENT
> <Gold.Version>
2022.2.0

> <Gold.Id.Protein>
1qkm|1qkm_protein|mol2

> <Gold.Protein.RotatedTorsions>
[  496  491  490  487 ] final  140.33 input  -89.99 | X-H torsion

> <Gold.Protein.ActiveResidues>
 MET295  LEU298  THR299  LEU301  ALA302  GLU305  TRP335  MET336  LEU339  MET340 
 GLY342  LEU343  ARG346  PHE356  ILE373  ILE376  PHE377  LEU380  LYS471  GLY472 
 MET473  HIS475  LEU476  LEU477  ASN478  MET479  VAL484  VAL487 

> <Gold.Protein.RotatedAtoms>
   37.2161   33.0275   41.3266 H   0  0  0  0  0  0  0  0  0  0  0  0  # atno 496  bound_to 491 

> <Gold.Score>
     Score     S(PLP)   S(hbond)     S(cho)   S(metal)  DE(clash)   DE(tors)     intcor
     37.72     -38.36       0.00       0.00       0.00       0.04       1.30       1.99

> <Gold.PLP.Fitness>
37.7151

> <Gold.PLP.PLP>
-38.3627

> <Gold.PLP.part.hbond>
0.0000

> <Gold.PLP.part.metal>
0.0000

> <Gold.PLP.part.buried>
-2.4706

> <Gold.PLP.part.nonpolar>
-36.9504

> <Gold.PLP.part.repulsive>
0.2722

> <Gold.PLP.ligand.clash>
0.0394

> <Gold.PLP.ligand.torsion>
1.3001

> <Gold.PLP.Chemscore.Hbond>
0.0000

> <Gold.PLP.Chemscore.CHOScore>
0.0000

> <Gold.PLP.Chemscore.Metal>
0.0000

> <Gold.PLP.Chemscore.Internal.Correction>
1.9920

