#       Name:                plp ligand
#       Creating user name   aseyller
#       Creation time:       Fri Apr 21 16:22:01 2023


#       File generated by GOLD software.
#

@<TRIPOS>MOLECULE
plp ligand
    26    26     1
SMALL
USER_CHARGES


@<TRIPOS>ATOM
      1 C1           3.9779  -1.4992  -0.4531 NONPOLAR       1 <1>                0.0000
      2 C2           2.6017  -1.5517   0.2135 NONPOLAR       1 <1>                0.0000
      3 O3           1.7337  -0.5558  -0.3892 ACCEPTOR       1 <1>                0.0000
      4 C4           0.4812  -0.4714   0.0861 NONPOLAR       1 <1>                0.0000
      5 O5           0.1221  -1.2052   0.9762 ACCEPTOR       1 <1>                0.0000
      6 C6          -0.4770   0.5387  -0.4906 NONPOLAR       1 <1>                0.0000
      7 C7          -0.2003   1.9305   0.1160 NONPOLAR       1 <1>                0.0000
      8 C8          -1.6240   2.5211   0.2945 NONPOLAR       1 <1>                0.0000
      9 C9          -2.4386   1.2595   0.6746 NONPOLAR       1 <1>                0.0000
     10 N10         -1.8576   0.1759  -0.1388 NONPOLAR       1 <1>                0.0000
     11 S11         -2.6320  -1.2188  -0.5831 NONPOLAR       1 <1>                0.0000
     12 O12         -4.0125  -0.8971  -0.6826 ACCEPTOR       1 <1>                0.0000
     13 O13         -1.8828  -1.7688  -1.6581 ACCEPTOR       1 <1>                0.0000
     14 Cl14        -2.4580  -2.5157   0.9558 NONPOLAR       1 <1>                0.0000
     15 H15          4.6295  -2.2468  -0.0006                1 <1>                0.0000
     16 H16          3.8737  -1.7050  -1.5184                1 <1>                0.0000
     17 H17          4.4109  -0.5085  -0.3151                1 <1>                0.0000
     18 H18          2.1687  -2.5424   0.0755                1 <1>                0.0000
     19 H19          2.7059  -1.3458   1.2788                1 <1>                0.0000
     20 H20         -0.3662   0.5780  -1.5743                1 <1>                0.0000
     21 H21          0.3025   1.8386   1.0787                1 <1>                0.0000
     22 H22          0.3870   2.5405  -0.5703                1 <1>                0.0000
     23 H23         -1.6440   3.2561   1.0990                1 <1>                0.0000
     24 H24         -1.9869   2.9543  -0.6376                1 <1>                0.0000
     25 H25         -2.3246   1.0399   1.7361                1 <1>                0.0000
     26 H26         -3.4907   1.3981   0.4259                1 <1>                0.0000
@<TRIPOS>BOND
    1    1    2 1     
    2    1   15 1     
    3    1   16 1     
    4    1   17 1     
    5    2    3 1     
    6    2   18 1     
    7    2   19 1     
    8    3    4 1     
    9    4    5 2     
   10    4    6 1     
   11    6    7 1     
   12    6   10 1     
   13    6   20 1     
   14    7    8 1     
   15    7   21 1     
   16    7   22 1     
   17    8    9 1     
   18    8   23 1     
   19    8   24 1     
   20    9   10 1     
   21    9   25 1     
   22    9   26 1     
   23   10   11 1     
   24   11   12 2     
   25   11   13 2     
   26   11   14 1     
@<TRIPOS>SUBSTRUCTURE
      1 ****           1
@<TRIPOS>SET
DONOR_HYDROGENS      STATIC     ATOMS    <user>   **** ""
0
ATOM$RED        STATIC     ATOMS    COLORGROUP SYSTEM
0
