#       Name:                EN300-253816_i003
#       Creating user name   aseyller
#       Creation time:       Sat Apr 22 07:17:46 2023


#       File generated by GOLD software.
#

@<TRIPOS>MOLECULE
EN300-253816_i003|amine_3|mol2|3927|dock20
    33    34     1
SMALL
USER_CHARGES


@<TRIPOS>ATOM
      1 C1          30.4769  39.5908  36.4579 C.3            1 <1>                0.0000
      2 C2          30.9474  38.1350  36.4491 C.3            1 <1>                0.0000
      3 C3          32.4734  38.0909  36.5544 C.3            1 <1>                0.0000
      4 N4          32.9233  36.6927  36.5662 N.4            1 <1>                1.0000
      5 C5          32.3477  36.0010  37.7271 C.3            1 <1>                0.0000
      6 C6          30.8207  36.0278  37.6316 C.3            1 <1>                0.0000
      7 N7          30.3594  37.4227  37.5925 N.3            1 <1>                0.0000
      8 C8          28.8925  37.4914  37.5577 C.3            1 <1>                0.0000
      9 C9          28.3353  36.9977  38.8679 C.ar           1 <1>                0.0000
     10 C10         27.0039  36.6373  38.9610 C.ar           1 <1>                0.0000
     11 C11         26.4929  36.1845  40.1629 C.ar           1 <1>                0.0000
     12 C12         27.3132  36.0914  41.2716 C.ar           1 <1>                0.0000
     13 C13         28.6448  36.4508  41.1783 C.ar           1 <1>                0.0000
     14 C14         29.1569  36.8996  39.9753 C.ar           1 <1>                0.0000
     15 H15         30.9148  40.1193  35.6111 H              1 <1>                0.0000
     16 H16         29.3899  39.6219  36.3829 H              1 <1>                0.0000
     17 H17         30.7908  40.0685  37.3860 H              1 <1>                0.0000
     18 H18         30.6328  37.6568  35.5215 H              1 <1>                0.0000
     19 H19         32.9116  38.6064  35.6999 H              1 <1>                0.0000
     20 H20         32.7883  38.5816  37.4753 H              1 <1>                0.0000
     21 H21         32.6927  34.9672  37.7420 H              1 <1>                0.0000
     22 H22         32.6633  36.5025  38.6421 H              1 <1>                0.0000
     23 H23         30.5041  35.5144  36.7236 H              1 <1>                0.0000
     24 H24         30.3930  35.5276  38.5005 H              1 <1>                0.0000
     25 H25         28.5808  38.5233  37.3960 H              1 <1>                0.0000
     26 H26         28.5187  36.8676  36.7458 H              1 <1>                0.0000
     27 H27         26.3630  36.7101  38.0948 H              1 <1>                0.0000
     28 H28         25.4526  35.9037  40.2358 H              1 <1>                0.0000
     29 H29         26.9138  35.7382  42.2108 H              1 <1>                0.0000
     30 H30         29.2857  36.3784  42.0445 H              1 <1>                0.0000
     31 H31         30.1972  37.1804  39.9023 H              1 <1>                0.0000
     32 H32         32.6216  36.2353  35.7189 H              1 <1>                0.0000
     33 H33         33.9303  36.6641  36.6232 H              1 <1>                0.0000
@<TRIPOS>BOND
    1    1    2 1     
    2    1   15 1     
    3    1   16 1     
    4    1   17 1     
    5    2    3 1     
    6    2    7 1     
    7    2   18 1     
    8    3    4 1     
    9    3   19 1     
   10    3   20 1     
   11    4    5 1     
   12    4   32 1     
   13    4   33 1     
   14    5    6 1     
   15    5   21 1     
   16    5   22 1     
   17    6    7 1     
   18    6   23 1     
   19    6   24 1     
   20    7    8 1     
   21    8    9 1     
   22    8   25 1     
   23    8   26 1     
   24    9   10 ar    
   25    9   14 ar    
   26   10   11 ar    
   27   10   27 1     
   28   11   12 ar    
   29   11   28 1     
   30   12   13 ar    
   31   12   29 1     
   32   13   14 ar    
   33   13   30 1     
   34   14   31 1     
@<TRIPOS>SUBSTRUCTURE
      1 ****           1
@<TRIPOS>SET
DONOR_HYDROGENS      STATIC     ATOMS    <user>   **** ""
2 32 33
ATOM$RED        STATIC     ATOMS    COLORGROUP SYSTEM
2 32 33
@<TRIPOS>COMMENT
> <Gold.Version>
2022.2.0

> <Gold.Id.Protein>
1qkm|1qkm_protein|mol2

> <Gold.Protein.RotatedTorsions>
[  496  491  490  487 ] final  -78.74 input  -89.99 | X-H torsion

> <Gold.Protein.ActiveResidues>
 MET295  LEU298  THR299  LEU301  ALA302  GLU305  TRP335  MET336  LEU339  MET340 
 GLY342  LEU343  ARG346  PHE356  ILE373  ILE376  PHE377  LEU380  LYS471  GLY472 
 MET473  HIS475  LEU476  LEU477  ASN478  MET479  VAL484  VAL487 

> <Gold.Protein.RotatedAtoms>
   36.6546   34.7110   41.2220 H   0  0  0  0  0  0  0  0  0  0  0  0  # atno 496  bound_to 491 

> <Gold.Score>
     Score     S(PLP)   S(hbond)     S(cho)   S(metal)  DE(clash)   DE(tors)     intcor
     45.29     -45.82       0.00       0.00       0.00       0.00       0.27       0.00

> <Gold.PLP.Fitness>
45.2905

> <Gold.PLP.PLP>
-45.8167

> <Gold.PLP.part.hbond>
0.0000

> <Gold.PLP.part.metal>
0.0000

> <Gold.PLP.part.buried>
-2.4718

> <Gold.PLP.part.nonpolar>
-43.8621

> <Gold.PLP.part.repulsive>
0.0000

> <Gold.PLP.ligand.clash>
0.0000

> <Gold.PLP.ligand.torsion>
0.2651

> <Gold.PLP.Chemscore.Hbond>
0.0000

> <Gold.PLP.Chemscore.CHOScore>
0.0000

> <Gold.PLP.Chemscore.Metal>
0.0000

> <Gold.PLP.Chemscore.Internal.Correction>
0.0041

