#       Name:                EN300-253816_i003
#       Creating user name   aseyller
#       Creation time:       Sat Apr 22 07:17:44 2023


#       File generated by GOLD software.
#

@<TRIPOS>MOLECULE
EN300-253816_i003|amine_3|mol2|3927|dock16
    33    34     1
SMALL
USER_CHARGES


@<TRIPOS>ATOM
      1 C1          29.5649  36.7282  40.2006 C.3            1 <1>                0.0000
      2 C2          28.1309  36.4039  40.6241 C.3            1 <1>                0.0000
      3 C3          27.8581  37.0044  42.0049 C.3            1 <1>                0.0000
      4 N4          26.4750  36.7101  42.4025 N.4            1 <1>                1.0000
      5 C5          25.5473  37.3083  41.4335 C.3            1 <1>                0.0000
      6 C6          25.8010  36.7103  40.0479 C.3            1 <1>                0.0000
      7 N7          27.1906  36.9756  39.6498 N.3            1 <1>                0.0000
      8 C8          27.4577  36.4654  38.2984 C.3            1 <1>                0.0000
      9 C9          28.2623  37.4805  37.5282 C.ar           1 <1>                0.0000
     10 C10         27.7748  38.7626  37.3564 C.ar           1 <1>                0.0000
     11 C11         28.5129  39.6937  36.6499 C.ar           1 <1>                0.0000
     12 C12         29.7386  39.3429  36.1157 C.ar           1 <1>                0.0000
     13 C13         30.2265  38.0611  36.2884 C.ar           1 <1>                0.0000
     14 C14         29.4904  37.1313  36.9985 C.ar           1 <1>                0.0000
     15 H15         30.2619  36.3058  40.9245 H              1 <1>                0.0000
     16 H16         29.7589  36.3003  39.2171 H              1 <1>                0.0000
     17 H17         29.6956  37.8095  40.1586 H              1 <1>                0.0000
     18 H18         27.9996  35.3226  40.6654 H              1 <1>                0.0000
     19 H19         28.5451  36.5711  42.7318 H              1 <1>                0.0000
     20 H20         28.0032  38.0840  41.9666 H              1 <1>                0.0000
     21 H21         24.5212  37.1004  41.7367 H              1 <1>                0.0000
     22 H22         25.7042  38.3865  41.3981 H              1 <1>                0.0000
     23 H23         25.6308  35.6341  40.0796 H              1 <1>                0.0000
     24 H24         25.1227  37.1649  39.3258 H              1 <1>                0.0000
     25 H25         28.0183  35.5331  38.3663 H              1 <1>                0.0000
     26 H26         26.5134  36.2849  37.7850 H              1 <1>                0.0000
     27 H27         26.8171  39.0366  37.7737 H              1 <1>                0.0000
     28 H28         28.1317  40.6952  36.5150 H              1 <1>                0.0000
     29 H29         30.3149  40.0702  35.5631 H              1 <1>                0.0000
     30 H30         31.1841  37.7870  35.8708 H              1 <1>                0.0000
     31 H31         29.8716  36.1298  37.1335 H              1 <1>                0.0000
     32 H32         26.3376  35.7107  42.4265 H              1 <1>                0.0000
     33 H33         26.2992  37.0955  43.3182 H              1 <1>                0.0000
@<TRIPOS>BOND
    1    1    2 1     
    2    1   15 1     
    3    1   16 1     
    4    1   17 1     
    5    2    3 1     
    6    2    7 1     
    7    2   18 1     
    8    3    4 1     
    9    3   19 1     
   10    3   20 1     
   11    4    5 1     
   12    4   32 1     
   13    4   33 1     
   14    5    6 1     
   15    5   21 1     
   16    5   22 1     
   17    6    7 1     
   18    6   23 1     
   19    6   24 1     
   20    7    8 1     
   21    8    9 1     
   22    8   25 1     
   23    8   26 1     
   24    9   10 ar    
   25    9   14 ar    
   26   10   11 ar    
   27   10   27 1     
   28   11   12 ar    
   29   11   28 1     
   30   12   13 ar    
   31   12   29 1     
   32   13   14 ar    
   33   13   30 1     
   34   14   31 1     
@<TRIPOS>SUBSTRUCTURE
      1 ****           1
@<TRIPOS>SET
DONOR_HYDROGENS      STATIC     ATOMS    <user>   **** ""
2 32 33
ATOM$RED        STATIC     ATOMS    COLORGROUP SYSTEM
2 32 33
@<TRIPOS>COMMENT
> <Gold.Version>
2022.2.0

> <Gold.Id.Protein>
1qkm|1qkm_protein|mol2

> <Gold.Protein.RotatedTorsions>
[  496  491  490  487 ] final   45.06 input  -89.99 | X-H torsion

> <Gold.Protein.ActiveResidues>
 MET295  LEU298  THR299  LEU301  ALA302  GLU305  TRP335  MET336  LEU339  MET340 
 GLY342  LEU343  ARG346  PHE356  ILE373  ILE376  PHE377  LEU380  LYS471  GLY472 
 MET473  HIS475  LEU476  LEU477  ASN478  MET479  VAL484  VAL487 

> <Gold.Protein.RotatedAtoms>
   36.4373   33.5259   42.3696 H   0  0  0  0  0  0  0  0  0  0  0  0  # atno 496  bound_to 491 

> <Gold.Score>
     Score     S(PLP)   S(hbond)     S(cho)   S(metal)  DE(clash)   DE(tors)     intcor
     48.64     -45.87       1.31       0.00       0.00       0.00       0.58       0.00

> <Gold.PLP.Fitness>
48.6429

> <Gold.PLP.PLP>
-45.8700

> <Gold.PLP.part.hbond>
-1.0000

> <Gold.PLP.part.metal>
0.0000

> <Gold.PLP.part.buried>
-1.7940

> <Gold.PLP.part.nonpolar>
-41.9350

> <Gold.PLP.part.repulsive>
0.0895

> <Gold.PLP.ligand.clash>
0.0000

> <Gold.PLP.ligand.torsion>
0.5836

> <Gold.PLP.Chemscore.Hbond>
1.3120

> <Gold.PLP.Chemscore.CHOScore>
0.0000

> <Gold.PLP.Chemscore.Metal>
0.0000

> <Gold.Chemscore.Hbonds>
donor molecule, donor type, donor heavy atom, donor atom, acceptor molecule, acceptor atom, score
      L1  H     4    32       P1   582  1.31

> <Gold.PLP.Chemscore.Internal.Correction>
0.0041

