#       Name:                EN300-253816_i003
#       Creating user name   aseyller
#       Creation time:       Sat Apr 22 07:17:43 2023


#       File generated by GOLD software.
#

@<TRIPOS>MOLECULE
EN300-253816_i003|amine_3|mol2|3927|dock13
    33    34     1
SMALL
USER_CHARGES


@<TRIPOS>ATOM
      1 C1          31.7948  35.9065  36.5608 C.3            1 <1>                0.0000
      2 C2          31.4070  37.3801  36.6990 C.3            1 <1>                0.0000
      3 C3          31.2900  38.0098  35.3093 C.3            1 <1>                0.0000
      4 N4          30.8981  39.4192  35.4416 N.4            1 <1>                1.0000
      5 C5          29.5944  39.5058  36.1126 C.3            1 <1>                0.0000
      6 C6          29.6973  38.8885  37.5090 C.3            1 <1>                0.0000
      7 N7          30.1146  37.4842  37.3913 N.3            1 <1>                0.0000
      8 C8          30.1703  36.8391  38.7099 C.3            1 <1>                0.0000
      9 C9          28.7778  36.7323  39.2759 C.ar           1 <1>                0.0000
     10 C10         28.5966  36.5015  40.6269 C.ar           1 <1>                0.0000
     11 C11         27.3192  36.4035  41.1460 C.ar           1 <1>                0.0000
     12 C12         26.2230  36.5369  40.3145 C.ar           1 <1>                0.0000
     13 C13         26.4042  36.7687  38.9639 C.ar           1 <1>                0.0000
     14 C14         27.6815  36.8709  38.4454 C.ar           1 <1>                0.0000
     15 H15         32.7522  35.8295  36.0455 H              1 <1>                0.0000
     16 H16         31.8780  35.4582  37.5509 H              1 <1>                0.0000
     17 H17         31.0305  35.3819  35.9875 H              1 <1>                0.0000
     18 H18         32.1707  37.9048  37.2730 H              1 <1>                0.0000
     19 H19         32.2514  37.9463  34.7996 H              1 <1>                0.0000
     20 H20         30.5362  37.4758  34.7307 H              1 <1>                0.0000
     21 H21         29.2987  40.5513  36.1985 H              1 <1>                0.0000
     22 H22         28.8491  38.9642  35.5300 H              1 <1>                0.0000
     23 H23         30.4325  39.4384  38.0965 H              1 <1>                0.0000
     24 H24         28.7262  38.9391  38.0016 H              1 <1>                0.0000
     25 H25         30.5989  35.8421  38.6088 H              1 <1>                0.0000
     26 H26         30.7901  37.4348  39.3799 H              1 <1>                0.0000
     27 H27         29.4530  36.3973  41.2765 H              1 <1>                0.0000
     28 H28         27.1777  36.2225  42.2013 H              1 <1>                0.0000
     29 H29         25.2250  36.4597  40.7200 H              1 <1>                0.0000
     30 H30         25.5478  36.8726  38.3141 H              1 <1>                0.0000
     31 H31         27.8231  37.0520  37.3901 H              1 <1>                0.0000
     32 H32         31.5902  39.9108  35.9871 H              1 <1>                0.0000
     33 H33         30.8331  39.8374  34.5256 H              1 <1>                0.0000
@<TRIPOS>BOND
    1    1    2 1     
    2    1   15 1     
    3    1   16 1     
    4    1   17 1     
    5    2    3 1     
    6    2    7 1     
    7    2   18 1     
    8    3    4 1     
    9    3   19 1     
   10    3   20 1     
   11    4    5 1     
   12    4   32 1     
   13    4   33 1     
   14    5    6 1     
   15    5   21 1     
   16    5   22 1     
   17    6    7 1     
   18    6   23 1     
   19    6   24 1     
   20    7    8 1     
   21    8    9 1     
   22    8   25 1     
   23    8   26 1     
   24    9   10 ar    
   25    9   14 ar    
   26   10   11 ar    
   27   10   27 1     
   28   11   12 ar    
   29   11   28 1     
   30   12   13 ar    
   31   12   29 1     
   32   13   14 ar    
   33   13   30 1     
   34   14   31 1     
@<TRIPOS>SUBSTRUCTURE
      1 ****           1
@<TRIPOS>SET
DONOR_HYDROGENS      STATIC     ATOMS    <user>   **** ""
2 32 33
ATOM$RED        STATIC     ATOMS    COLORGROUP SYSTEM
2 32 33
@<TRIPOS>COMMENT
> <Gold.Version>
2022.2.0

> <Gold.Id.Protein>
1qkm|1qkm_protein|mol2

> <Gold.Protein.RotatedTorsions>
[  496  491  490  487 ] final  108.78 input  -89.99 | X-H torsion

> <Gold.Protein.ActiveResidues>
 MET295  LEU298  THR299  LEU301  ALA302  GLU305  TRP335  MET336  LEU339  MET340 
 GLY342  LEU343  ARG346  PHE356  ILE373  ILE376  PHE377  LEU380  LYS471  GLY472 
 MET473  HIS475  LEU476  LEU477  ASN478  MET479  VAL484  VAL487 

> <Gold.Protein.RotatedAtoms>
   36.9889   32.9443   41.7787 H   0  0  0  0  0  0  0  0  0  0  0  0  # atno 496  bound_to 491 

> <Gold.Score>
     Score     S(PLP)   S(hbond)     S(cho)   S(metal)  DE(clash)   DE(tors)     intcor
     47.71     -48.25       0.00       0.00       0.00       0.00       0.27       0.00

> <Gold.PLP.Fitness>
47.7053

> <Gold.PLP.PLP>
-48.2456

> <Gold.PLP.part.hbond>
0.0000

> <Gold.PLP.part.metal>
0.0000

> <Gold.PLP.part.buried>
-3.4043

> <Gold.PLP.part.nonpolar>
-45.1408

> <Gold.PLP.part.repulsive>
0.0000

> <Gold.PLP.ligand.clash>
0.0000

> <Gold.PLP.ligand.torsion>
0.2722

> <Gold.PLP.Chemscore.Hbond>
0.0000

> <Gold.PLP.Chemscore.CHOScore>
0.0000

> <Gold.PLP.Chemscore.Metal>
0.0000

> <Gold.PLP.Chemscore.Internal.Correction>
0.0041

