#       Name:                EN300-253816_i003
#       Creating user name   aseyller
#       Creation time:       Sat Apr 22 07:17:44 2023


#       File generated by GOLD software.
#

@<TRIPOS>MOLECULE
EN300-253816_i003|amine_3|mol2|3927|dock14
    33    34     1
SMALL
USER_CHARGES


@<TRIPOS>ATOM
      1 C1          27.7011  36.5217  37.7867 C.3            1 <1>                0.0000
      2 C2          27.8007  36.8232  39.2834 C.3            1 <1>                0.0000
      3 C3          26.9798  35.7966  40.0668 C.3            1 <1>                0.0000
      4 N4          27.0918  36.0743  41.5048 N.4            1 <1>                1.0000
      5 C5          28.4979  35.9713  41.9171 C.3            1 <1>                0.0000
      6 C6          29.3314  36.9993  41.1490 C.3            1 <1>                0.0000
      7 N7          29.2063  36.7480  39.7063 N.3            1 <1>                0.0000
      8 C8          30.0388  37.6810  38.9352 C.3            1 <1>                0.0000
      9 C9          30.7924  36.9220  37.8737 C.ar           1 <1>                0.0000
     10 C10         31.7939  36.0399  38.2341 C.ar           1 <1>                0.0000
     11 C11         32.4852  35.3438  37.2603 C.ar           1 <1>                0.0000
     12 C12         32.1746  35.5292  35.9261 C.ar           1 <1>                0.0000
     13 C13         31.1724  36.4105  35.5657 C.ar           1 <1>                0.0000
     14 C14         30.4783  37.1035  36.5398 C.ar           1 <1>                0.0000
     15 H15         26.6584  36.5755  37.4738 H              1 <1>                0.0000
     16 H16         28.2860  37.2531  37.2290 H              1 <1>                0.0000
     17 H17         28.0880  35.5217  37.5910 H              1 <1>                0.0000
     18 H18         27.4147  37.8235  39.4793 H              1 <1>                0.0000
     19 H19         25.9344  35.8606  39.7649 H              1 <1>                0.0000
     20 H20         27.3571  34.7952  39.8597 H              1 <1>                0.0000
     21 H21         28.5780  36.1646  42.9867 H              1 <1>                0.0000
     22 H22         28.8675  34.9689  41.7005 H              1 <1>                0.0000
     23 H23         28.9709  38.0026  41.3760 H              1 <1>                0.0000
     24 H24         30.3773  36.9130  41.4438 H              1 <1>                0.0000
     25 H25         29.4032  38.4306  38.4639 H              1 <1>                0.0000
     26 H26         30.7469  38.1725  39.6023 H              1 <1>                0.0000
     27 H27         32.0366  35.8951  39.2764 H              1 <1>                0.0000
     28 H28         33.2681  34.6552  37.5418 H              1 <1>                0.0000
     29 H29         32.7151  34.9858  35.1652 H              1 <1>                0.0000
     30 H30         30.9299  36.5556  34.5234 H              1 <1>                0.0000
     31 H31         29.6953  37.7920  36.2583 H              1 <1>                0.0000
     32 H32         26.7533  37.0057  41.6948 H              1 <1>                0.0000
     33 H33         26.5405  35.4047  42.0205 H              1 <1>                0.0000
@<TRIPOS>BOND
    1    1    2 1     
    2    1   15 1     
    3    1   16 1     
    4    1   17 1     
    5    2    3 1     
    6    2    7 1     
    7    2   18 1     
    8    3    4 1     
    9    3   19 1     
   10    3   20 1     
   11    4    5 1     
   12    4   32 1     
   13    4   33 1     
   14    5    6 1     
   15    5   21 1     
   16    5   22 1     
   17    6    7 1     
   18    6   23 1     
   19    6   24 1     
   20    7    8 1     
   21    8    9 1     
   22    8   25 1     
   23    8   26 1     
   24    9   10 ar    
   25    9   14 ar    
   26   10   11 ar    
   27   10   27 1     
   28   11   12 ar    
   29   11   28 1     
   30   12   13 ar    
   31   12   29 1     
   32   13   14 ar    
   33   13   30 1     
   34   14   31 1     
@<TRIPOS>SUBSTRUCTURE
      1 ****           1
@<TRIPOS>SET
DONOR_HYDROGENS      STATIC     ATOMS    <user>   **** ""
2 32 33
ATOM$RED        STATIC     ATOMS    COLORGROUP SYSTEM
2 32 33
@<TRIPOS>COMMENT
> <Gold.Version>
2022.2.0

> <Gold.Id.Protein>
1qkm|1qkm_protein|mol2

> <Gold.Protein.RotatedTorsions>
[  496  491  490  487 ] final  119.14 input  -89.99 | X-H torsion

> <Gold.Protein.ActiveResidues>
 MET295  LEU298  THR299  LEU301  ALA302  GLU305  TRP335  MET336  LEU339  MET340 
 GLY342  LEU343  ARG346  PHE356  ILE373  ILE376  PHE377  LEU380  LYS471  GLY472 
 MET473  HIS475  LEU476  LEU477  ASN478  MET479  VAL484  VAL487 

> <Gold.Protein.RotatedAtoms>
   37.0739   32.9421   41.6311 H   0  0  0  0  0  0  0  0  0  0  0  0  # atno 496  bound_to 491 

> <Gold.Score>
     Score     S(PLP)   S(hbond)     S(cho)   S(metal)  DE(clash)   DE(tors)     intcor
     48.54     -43.97       1.98       0.00       0.00       0.00       0.70       0.00

> <Gold.PLP.Fitness>
48.5380

> <Gold.PLP.PLP>
-43.9720

> <Gold.PLP.part.hbond>
-1.0000

> <Gold.PLP.part.metal>
0.0000

> <Gold.PLP.part.buried>
-3.3557

> <Gold.PLP.part.nonpolar>
-40.6657

> <Gold.PLP.part.repulsive>
0.0905

> <Gold.PLP.ligand.clash>
0.0000

> <Gold.PLP.ligand.torsion>
0.6950

> <Gold.PLP.Chemscore.Hbond>
1.9840

> <Gold.PLP.Chemscore.CHOScore>
0.0000

> <Gold.PLP.Chemscore.Metal>
0.0000

> <Gold.Chemscore.Hbonds>
donor molecule, donor type, donor heavy atom, donor atom, acceptor molecule, acceptor atom, score
      L1  H     4    33       P1   582  1.98

> <Gold.PLP.Chemscore.Internal.Correction>
0.0041

