#       Name:                EN300-253816_i003
#       Creating user name   aseyller
#       Creation time:       Sat Apr 22 07:17:39 2023


#       File generated by GOLD software.
#

@<TRIPOS>MOLECULE
EN300-253816_i003|amine_3|mol2|3927|dock3
    33    34     1
SMALL
USER_CHARGES


@<TRIPOS>ATOM
      1 C1          31.8014  34.0283  38.0882 C.3            1 <1>                0.0000
      2 C2          31.8872  35.4973  37.6693 C.3            1 <1>                0.0000
      3 C3          32.1511  35.5846  36.1645 C.3            1 <1>                0.0000
      4 N4          32.2135  36.9950  35.7592 N.4            1 <1>                1.0000
      5 C5          30.9314  37.6483  36.0544 C.3            1 <1>                0.0000
      6 C6          30.6574  37.5781  37.5583 C.3            1 <1>                0.0000
      7 N7          30.6188  36.1711  37.9813 N.3            1 <1>                0.0000
      8 C8          30.3013  36.0598  39.4112 C.3            1 <1>                0.0000
      9 C9          28.8252  36.2829  39.6168 C.ar           1 <1>                0.0000
     10 C10         28.2910  36.2430  40.8912 C.ar           1 <1>                0.0000
     11 C11         26.9370  36.4476  41.0798 C.ar           1 <1>                0.0000
     12 C12         26.1172  36.6928  39.9941 C.ar           1 <1>                0.0000
     13 C13         26.6515  36.7337  38.7198 C.ar           1 <1>                0.0000
     14 C14         28.0062  36.5333  38.5317 C.ar           1 <1>                0.0000
     15 H15         32.7414  33.5284  37.8548 H              1 <1>                0.0000
     16 H16         31.6134  33.9665  39.1601 H              1 <1>                0.0000
     17 H17         30.9882  33.5434  37.5482 H              1 <1>                0.0000
     18 H18         32.6998  35.9827  38.2098 H              1 <1>                0.0000
     19 H19         33.0985  35.0978  35.9330 H              1 <1>                0.0000
     20 H20         31.3454  35.0868  35.6249 H              1 <1>                0.0000
     21 H21         30.9746  38.6914  35.7413 H              1 <1>                0.0000
     22 H22         30.1320  37.1400  35.5154 H              1 <1>                0.0000
     23 H23         31.4496  38.0983  38.0970 H              1 <1>                0.0000
     24 H24         29.6990  38.0497  37.7758 H              1 <1>                0.0000
     25 H25         30.5715  35.0656  39.7670 H              1 <1>                0.0000
     26 H26         30.8631  36.8099  39.9677 H              1 <1>                0.0000
     27 H27         28.9315  36.0514  41.7394 H              1 <1>                0.0000
     28 H28         26.5195  36.4157  42.0754 H              1 <1>                0.0000
     29 H29         25.0592  36.8520  40.1413 H              1 <1>                0.0000
     30 H30         26.0110  36.9250  37.8716 H              1 <1>                0.0000
     31 H31         28.4237  36.5653  37.5362 H              1 <1>                0.0000
     32 H32         32.9517  37.4585  36.2674 H              1 <1>                0.0000
     33 H33         32.3998  37.0524  34.7692 H              1 <1>                0.0000
@<TRIPOS>BOND
    1    1    2 1     
    2    1   15 1     
    3    1   16 1     
    4    1   17 1     
    5    2    3 1     
    6    2    7 1     
    7    2   18 1     
    8    3    4 1     
    9    3   19 1     
   10    3   20 1     
   11    4    5 1     
   12    4   32 1     
   13    4   33 1     
   14    5    6 1     
   15    5   21 1     
   16    5   22 1     
   17    6    7 1     
   18    6   23 1     
   19    6   24 1     
   20    7    8 1     
   21    8    9 1     
   22    8   25 1     
   23    8   26 1     
   24    9   10 ar    
   25    9   14 ar    
   26   10   11 ar    
   27   10   27 1     
   28   11   12 ar    
   29   11   28 1     
   30   12   13 ar    
   31   12   29 1     
   32   13   14 ar    
   33   13   30 1     
   34   14   31 1     
@<TRIPOS>SUBSTRUCTURE
      1 ****           1
@<TRIPOS>SET
DONOR_HYDROGENS      STATIC     ATOMS    <user>   **** ""
2 32 33
ATOM$RED        STATIC     ATOMS    COLORGROUP SYSTEM
2 32 33
@<TRIPOS>COMMENT
> <Gold.Version>
2022.2.0

> <Gold.Id.Protein>
1qkm|1qkm_protein|mol2

> <Gold.Protein.RotatedTorsions>
[  496  491  490  487 ] final -122.06 input  -89.99 | X-H torsion

> <Gold.Protein.ActiveResidues>
 MET295  LEU298  THR299  LEU301  ALA302  GLU305  TRP335  MET336  LEU339  MET340 
 GLY342  LEU343  ARG346  PHE356  ILE373  ILE376  PHE377  LEU380  LYS471  GLY472 
 MET473  HIS475  LEU476  LEU477  ASN478  MET479  VAL484  VAL487 

> <Gold.Protein.RotatedAtoms>
   37.0429   34.3294   40.7881 H   0  0  0  0  0  0  0  0  0  0  0  0  # atno 496  bound_to 491 

> <Gold.Score>
     Score     S(PLP)   S(hbond)     S(cho)   S(metal)  DE(clash)   DE(tors)     intcor
     49.85     -50.18       0.00       0.00       0.00       0.00       0.17       0.00

> <Gold.PLP.Fitness>
49.8465

> <Gold.PLP.PLP>
-50.1835

> <Gold.PLP.part.hbond>
0.0000

> <Gold.PLP.part.metal>
0.0000

> <Gold.PLP.part.buried>
-2.8315

> <Gold.PLP.part.nonpolar>
-47.8159

> <Gold.PLP.part.repulsive>
0.0303

> <Gold.PLP.ligand.clash>
0.0000

> <Gold.PLP.ligand.torsion>
0.1705

> <Gold.PLP.Chemscore.Hbond>
0.0000

> <Gold.PLP.Chemscore.CHOScore>
0.0000

> <Gold.PLP.Chemscore.Metal>
0.0000

> <Gold.PLP.Chemscore.Internal.Correction>
0.0041

