#       Name:                EN300-253816_i003
#       Creating user name   aseyller
#       Creation time:       Sat Apr 22 07:17:40 2023


#       File generated by GOLD software.
#

@<TRIPOS>MOLECULE
EN300-253816_i003|amine_3|mol2|3927|dock5
    33    34     1
SMALL
USER_CHARGES


@<TRIPOS>ATOM
      1 C1          25.9856  37.1874  38.4486 C.3            1 <1>                0.0000
      2 C2          26.8256  37.1210  39.7257 C.3            1 <1>                0.0000
      3 C3          26.2909  36.0095  40.6313 C.3            1 <1>                0.0000
      4 N4          27.1099  35.9327  41.8482 N.4            1 <1>                1.0000
      5 C5          28.4993  35.6223  41.4866 C.3            1 <1>                0.0000
      6 C6          29.0524  36.7307  40.5880 C.3            1 <1>                0.0000
      7 N7          28.2248  36.8352  39.3780 N.3            1 <1>                0.0000
      8 C8          28.7579  37.8522  38.4617 C.3            1 <1>                0.0000
      9 C9          29.8262  37.2369  37.5952 C.ar           1 <1>                0.0000
     10 C10         30.8315  36.4812  38.1691 C.ar           1 <1>                0.0000
     11 C11         31.8115  35.9168  37.3741 C.ar           1 <1>                0.0000
     12 C12         31.7860  36.1076  36.0052 C.ar           1 <1>                0.0000
     13 C13         30.7802  36.8625  35.4312 C.ar           1 <1>                0.0000
     14 C14         29.7978  37.4233  36.2257 C.ar           1 <1>                0.0000
     15 H15         24.9477  37.3973  38.7069 H              1 <1>                0.0000
     16 H16         26.3667  37.9793  37.8037 H              1 <1>                0.0000
     17 H17         26.0439  36.2331  37.9253 H              1 <1>                0.0000
     18 H18         26.7682  38.0755  40.2487 H              1 <1>                0.0000
     19 H19         25.2576  36.2268  40.9019 H              1 <1>                0.0000
     20 H20         26.3353  35.0573  40.1027 H              1 <1>                0.0000
     21 H21         29.1033  35.5527  42.3912 H              1 <1>                0.0000
     22 H22         28.5325  34.6721  40.9536 H              1 <1>                0.0000
     23 H23         29.0321  37.6787  41.1256 H              1 <1>                0.0000
     24 H24         30.0786  36.4933  40.3074 H              1 <1>                0.0000
     25 H25         27.9531  38.2315  37.8321 H              1 <1>                0.0000
     26 H26         29.1854  38.6724  39.0383 H              1 <1>                0.0000
     27 H27         30.8515  36.3321  39.2385 H              1 <1>                0.0000
     28 H28         32.5973  35.3270  37.8226 H              1 <1>                0.0000
     29 H29         32.5520  35.6672  35.3842 H              1 <1>                0.0000
     30 H30         30.7603  37.0118  34.3618 H              1 <1>                0.0000
     31 H31         29.0119  38.0130  35.7773 H              1 <1>                0.0000
     32 H32         27.0780  36.8179  42.3313 H              1 <1>                0.0000
     33 H33         26.7496  35.2079  42.4507 H              1 <1>                0.0000
@<TRIPOS>BOND
    1    1    2 1     
    2    1   15 1     
    3    1   16 1     
    4    1   17 1     
    5    2    3 1     
    6    2    7 1     
    7    2   18 1     
    8    3    4 1     
    9    3   19 1     
   10    3   20 1     
   11    4    5 1     
   12    4   32 1     
   13    4   33 1     
   14    5    6 1     
   15    5   21 1     
   16    5   22 1     
   17    6    7 1     
   18    6   23 1     
   19    6   24 1     
   20    7    8 1     
   21    8    9 1     
   22    8   25 1     
   23    8   26 1     
   24    9   10 ar    
   25    9   14 ar    
   26   10   11 ar    
   27   10   27 1     
   28   11   12 ar    
   29   11   28 1     
   30   12   13 ar    
   31   12   29 1     
   32   13   14 ar    
   33   13   30 1     
   34   14   31 1     
@<TRIPOS>SUBSTRUCTURE
      1 ****           1
@<TRIPOS>SET
DONOR_HYDROGENS      STATIC     ATOMS    <user>   **** ""
2 32 33
ATOM$RED        STATIC     ATOMS    COLORGROUP SYSTEM
2 32 33
@<TRIPOS>COMMENT
> <Gold.Version>
2022.2.0

> <Gold.Id.Protein>
1qkm|1qkm_protein|mol2

> <Gold.Protein.RotatedTorsions>
[  496  491  490  487 ] final -115.35 input  -89.99 | X-H torsion

> <Gold.Protein.ActiveResidues>
 MET295  LEU298  THR299  LEU301  ALA302  GLU305  TRP335  MET336  LEU339  MET340 
 GLY342  LEU343  ARG346  PHE356  ILE373  ILE376  PHE377  LEU380  LYS471  GLY472 
 MET473  HIS475  LEU476  LEU477  ASN478  MET479  VAL484  VAL487 

> <Gold.Protein.RotatedAtoms>
   36.9869   34.4138   40.8318 H   0  0  0  0  0  0  0  0  0  0  0  0  # atno 496  bound_to 491 

> <Gold.Score>
     Score     S(PLP)   S(hbond)     S(cho)   S(metal)  DE(clash)   DE(tors)     intcor
     49.35     -44.21       2.00       0.00       0.00       0.00       0.43       0.00

> <Gold.PLP.Fitness>
49.3492

> <Gold.PLP.PLP>
-44.2103

> <Gold.PLP.part.hbond>
-1.0000

> <Gold.PLP.part.metal>
0.0000

> <Gold.PLP.part.buried>
-3.8825

> <Gold.PLP.part.nonpolar>
-40.3810

> <Gold.PLP.part.repulsive>
0.0562

> <Gold.PLP.ligand.clash>
0.0000

> <Gold.PLP.ligand.torsion>
0.4326

> <Gold.PLP.Chemscore.Hbond>
2.0000

> <Gold.PLP.Chemscore.CHOScore>
0.0000

> <Gold.PLP.Chemscore.Metal>
0.0000

> <Gold.Chemscore.Hbonds>
donor molecule, donor type, donor heavy atom, donor atom, acceptor molecule, acceptor atom, score
      L1  H     4    33       P1   582  2.00

> <Gold.PLP.Chemscore.Internal.Correction>
0.0041

