#       Name:                EN300-253816_i003
#       Creating user name   aseyller
#       Creation time:       Sat Apr 22 07:17:43 2023


#       File generated by GOLD software.
#

@<TRIPOS>MOLECULE
EN300-253816_i003|amine_3|mol2|3927|dock12
    33    34     1
SMALL
USER_CHARGES


@<TRIPOS>ATOM
      1 C1          32.7226  35.0453  37.0495 C.3            1 <1>                0.0000
      2 C2          32.7053  36.4932  36.5556 C.3            1 <1>                0.0000
      3 C3          33.0408  36.5277  35.0631 C.3            1 <1>                0.0000
      4 N4          33.0044  37.9160  34.5847 N.4            1 <1>                1.0000
      5 C5          31.6574  38.4681  34.7808 C.3            1 <1>                0.0000
      6 C6          31.3105  38.4498  36.2711 C.3            1 <1>                0.0000
      7 N7          31.3693  37.0679  36.7680 N.3            1 <1>                0.0000
      8 C8          30.9865  37.0010  38.1847 C.3            1 <1>                0.0000
      9 C9          29.4853  36.9323  38.2967 C.ar           1 <1>                0.0000
     10 C10         28.8912  35.9028  39.0025 C.ar           1 <1>                0.0000
     11 C11         27.5142  35.8398  39.1052 C.ar           1 <1>                0.0000
     12 C12         26.7312  36.8065  38.5026 C.ar           1 <1>                0.0000
     13 C13         27.3252  37.8366  37.7976 C.ar           1 <1>                0.0000
     14 C14         28.7025  37.9020  37.6985 C.ar           1 <1>                0.0000
     15 H15         33.7130  34.6188  36.8900 H              1 <1>                0.0000
     16 H16         32.4837  35.0211  38.1128 H              1 <1>                0.0000
     17 H17         31.9837  34.4643  36.4978 H              1 <1>                0.0000
     18 H18         33.4436  37.0747  37.1079 H              1 <1>                0.0000
     19 H19         34.0371  36.1150  34.9050 H              1 <1>                0.0000
     20 H20         32.3104  35.9345  34.5128 H              1 <1>                0.0000
     21 H21         31.6282  39.4939  34.4136 H              1 <1>                0.0000
     22 H22         30.9341  37.8650  34.2320 H              1 <1>                0.0000
     23 H23         32.0256  39.0639  36.8186 H              1 <1>                0.0000
     24 H24         30.3052  38.8456  36.4155 H              1 <1>                0.0000
     25 H25         31.4258  36.1125  38.6382 H              1 <1>                0.0000
     26 H26         31.3491  37.8896  38.7014 H              1 <1>                0.0000
     27 H27         29.5030  35.1475  39.4733 H              1 <1>                0.0000
     28 H28         27.0500  35.0351  39.6560 H              1 <1>                0.0000
     29 H29         25.6553  36.7570  38.5822 H              1 <1>                0.0000
     30 H30         26.7135  38.5917  37.3265 H              1 <1>                0.0000
     31 H31         29.1667  38.7067  37.1477 H              1 <1>                0.0000
     32 H32         33.6723  38.4675  35.1023 H              1 <1>                0.0000
     33 H33         33.2377  37.9396  33.6033 H              1 <1>                0.0000
@<TRIPOS>BOND
    1    1    2 1     
    2    1   15 1     
    3    1   16 1     
    4    1   17 1     
    5    2    3 1     
    6    2    7 1     
    7    2   18 1     
    8    3    4 1     
    9    3   19 1     
   10    3   20 1     
   11    4    5 1     
   12    4   32 1     
   13    4   33 1     
   14    5    6 1     
   15    5   21 1     
   16    5   22 1     
   17    6    7 1     
   18    6   23 1     
   19    6   24 1     
   20    7    8 1     
   21    8    9 1     
   22    8   25 1     
   23    8   26 1     
   24    9   10 ar    
   25    9   14 ar    
   26   10   11 ar    
   27   10   27 1     
   28   11   12 ar    
   29   11   28 1     
   30   12   13 ar    
   31   12   29 1     
   32   13   14 ar    
   33   13   30 1     
   34   14   31 1     
@<TRIPOS>SUBSTRUCTURE
      1 ****           1
@<TRIPOS>SET
DONOR_HYDROGENS      STATIC     ATOMS    <user>   **** ""
2 32 33
ATOM$RED        STATIC     ATOMS    COLORGROUP SYSTEM
2 32 33
@<TRIPOS>COMMENT
> <Gold.Version>
2022.2.0

> <Gold.Id.Protein>
1qkm|1qkm_protein|mol2

> <Gold.Protein.RotatedTorsions>
[  496  491  490  487 ] final  -89.95 input  -89.99 | X-H torsion

> <Gold.Protein.ActiveResidues>
 MET295  LEU298  THR299  LEU301  ALA302  GLU305  TRP335  MET336  LEU339  MET340 
 GLY342  LEU343  ARG346  PHE356  ILE373  ILE376  PHE377  LEU380  LYS471  GLY472 
 MET473  HIS475  LEU476  LEU477  ASN478  MET479  VAL484  VAL487 

> <Gold.Protein.RotatedAtoms>
   36.7569   34.6536   41.0798 H   0  0  0  0  0  0  0  0  0  0  0  0  # atno 496  bound_to 491 

> <Gold.Score>
     Score     S(PLP)   S(hbond)     S(cho)   S(metal)  DE(clash)   DE(tors)     intcor
     47.53     -48.09       0.03       0.00       0.00       0.00       0.32       0.00

> <Gold.PLP.Fitness>
47.5322

> <Gold.PLP.PLP>
-48.0881

> <Gold.PLP.part.hbond>
-0.8244

> <Gold.PLP.part.metal>
0.0000

> <Gold.PLP.part.buried>
-3.2592

> <Gold.PLP.part.nonpolar>
-44.2135

> <Gold.PLP.part.repulsive>
0.0367

> <Gold.PLP.ligand.clash>
0.0000

> <Gold.PLP.ligand.torsion>
0.3193

> <Gold.PLP.Chemscore.Hbond>
0.0262

> <Gold.PLP.Chemscore.CHOScore>
0.0000

> <Gold.PLP.Chemscore.Metal>
0.0000

> <Gold.Chemscore.Hbonds>
donor molecule, donor type, donor heavy atom, donor atom, acceptor molecule, acceptor atom, score
      L1  H     4    33       P1  3229  0.03

> <Gold.PLP.Chemscore.Internal.Correction>
0.0041

