#       Name:                EN300-253816_i003
#       Creating user name   aseyller
#       Creation time:       Sat Apr 22 07:17:40 2023


#       File generated by GOLD software.
#

@<TRIPOS>MOLECULE
EN300-253816_i003|amine_3|mol2|3927|dock6
    33    34     1
SMALL
USER_CHARGES


@<TRIPOS>ATOM
      1 C1          29.6561  35.8865  39.3633 C.3            1 <1>                0.0000
      2 C2          28.1550  35.8182  39.6510 C.3            1 <1>                0.0000
      3 C3          27.9201  35.9031  41.1607 C.3            1 <1>                0.0000
      4 N4          26.4779  35.8577  41.4353 N.4            1 <1>                1.0000
      5 C5          25.8181  36.9992  40.7879 C.3            1 <1>                0.0000
      6 C6          26.0356  36.9234  39.2751 C.3            1 <1>                0.0000
      7 N7          27.4770  36.9415  38.9886 N.3            1 <1>                0.0000
      8 C8          27.7264  36.9272  37.5410 C.3            1 <1>                0.0000
      9 C9          28.6974  38.0241  37.1877 C.ar           1 <1>                0.0000
     10 C10         28.2465  39.3209  37.0263 C.ar           1 <1>                0.0000
     11 C11         29.1373  40.3270  36.7022 C.ar           1 <1>                0.0000
     12 C12         30.4790  40.0366  36.5401 C.ar           1 <1>                0.0000
     13 C13         30.9301  38.7400  36.7026 C.ar           1 <1>                0.0000
     14 C14         30.0400  37.7346  37.0309 C.ar           1 <1>                0.0000
     15 H15         30.1588  35.0545  39.8563 H              1 <1>                0.0000
     16 H16         29.8231  35.8260  38.2878 H              1 <1>                0.0000
     17 H17         30.0559  36.8277  39.7406 H              1 <1>                0.0000
     18 H18         27.7547  34.8775  39.2730 H              1 <1>                0.0000
     19 H19         28.4102  35.0629  41.6525 H              1 <1>                0.0000
     20 H20         28.3330  36.8376  41.5406 H              1 <1>                0.0000
     21 H21         24.7500  36.9716  41.0032 H              1 <1>                0.0000
     22 H22         26.2418  37.9282  41.1697 H              1 <1>                0.0000
     23 H23         25.6000  36.0011  38.8908 H              1 <1>                0.0000
     24 H24         25.5589  37.7785  38.7957 H              1 <1>                0.0000
     25 H25         28.1469  35.9634  37.2543 H              1 <1>                0.0000
     26 H26         26.7885  37.0871  37.0092 H              1 <1>                0.0000
     27 H27         27.1983  39.5478  37.1528 H              1 <1>                0.0000
     28 H28         28.7849  41.3400  36.5753 H              1 <1>                0.0000
     29 H29         31.1749  40.8225  36.2863 H              1 <1>                0.0000
     30 H30         31.9783  38.5130  36.5758 H              1 <1>                0.0000
     31 H31         30.3923  36.7217  37.1578 H              1 <1>                0.0000
     32 H32         26.0936  34.9978  41.0732 H              1 <1>                0.0000
     33 H33         26.3238  35.9012  42.4316 H              1 <1>                0.0000
@<TRIPOS>BOND
    1    1    2 1     
    2    1   15 1     
    3    1   16 1     
    4    1   17 1     
    5    2    3 1     
    6    2    7 1     
    7    2   18 1     
    8    3    4 1     
    9    3   19 1     
   10    3   20 1     
   11    4    5 1     
   12    4   32 1     
   13    4   33 1     
   14    5    6 1     
   15    5   21 1     
   16    5   22 1     
   17    6    7 1     
   18    6   23 1     
   19    6   24 1     
   20    7    8 1     
   21    8    9 1     
   22    8   25 1     
   23    8   26 1     
   24    9   10 ar    
   25    9   14 ar    
   26   10   11 ar    
   27   10   27 1     
   28   11   12 ar    
   29   11   28 1     
   30   12   13 ar    
   31   12   29 1     
   32   13   14 ar    
   33   13   30 1     
   34   14   31 1     
@<TRIPOS>SUBSTRUCTURE
      1 ****           1
@<TRIPOS>SET
DONOR_HYDROGENS      STATIC     ATOMS    <user>   **** ""
2 32 33
ATOM$RED        STATIC     ATOMS    COLORGROUP SYSTEM
2 32 33
@<TRIPOS>COMMENT
> <Gold.Version>
2022.2.0

> <Gold.Id.Protein>
1qkm|1qkm_protein|mol2

> <Gold.Protein.RotatedTorsions>
[  496  491  490  487 ] final  -68.27 input  -89.99 | X-H torsion

> <Gold.Protein.ActiveResidues>
 MET295  LEU298  THR299  LEU301  ALA302  GLU305  TRP335  MET336  LEU339  MET340 
 GLY342  LEU343  ARG346  PHE356  ILE373  ILE376  PHE377  LEU380  LYS471  GLY472 
 MET473  HIS475  LEU476  LEU477  ASN478  MET479  VAL484  VAL487 

> <Gold.Protein.RotatedAtoms>
   36.5637   34.7346   41.3662 H   0  0  0  0  0  0  0  0  0  0  0  0  # atno 496  bound_to 491 

> <Gold.Score>
     Score     S(PLP)   S(hbond)     S(cho)   S(metal)  DE(clash)   DE(tors)     intcor
     52.10     -50.04       1.34       0.00       0.00       0.00       0.99       0.00

> <Gold.PLP.Fitness>
52.0967

> <Gold.PLP.PLP>
-50.0438

> <Gold.PLP.part.hbond>
-1.0000

> <Gold.PLP.part.metal>
0.0000

> <Gold.PLP.part.buried>
-3.5045

> <Gold.PLP.part.nonpolar>
-46.8353

> <Gold.PLP.part.repulsive>
0.0373

> <Gold.PLP.ligand.clash>
0.0000

> <Gold.PLP.ligand.torsion>
0.9916

> <Gold.PLP.Chemscore.Hbond>
1.3440

> <Gold.PLP.Chemscore.CHOScore>
0.0000

> <Gold.PLP.Chemscore.Metal>
0.0000

> <Gold.Chemscore.Hbonds>
donor molecule, donor type, donor heavy atom, donor atom, acceptor molecule, acceptor atom, score
      L1  H     4    33       P1   582  1.34

> <Gold.PLP.Chemscore.Internal.Correction>
0.0041

