#       Name:                EN300-253816_i003
#       Creating user name   aseyller
#       Creation time:       Sat Apr 22 07:17:38 2023


#       File generated by GOLD software.
#

@<TRIPOS>MOLECULE
EN300-253816_i003
    33    34     1
SMALL
USER_CHARGES


@<TRIPOS>ATOM
      1 C1           1.8370   2.3115  -0.0883 C.3            1 <1>                0.0000
      2 C2           1.8869   0.8062  -0.3575 C.3            1 <1>                0.0000
      3 C3           2.9450   0.1617   0.5406 C.3            1 <1>                0.0000
      4 N4           2.9787  -1.2863   0.2963 N.4            1 <1>                1.0000
      5 C5           1.6683  -1.8689   0.6142 C.3            1 <1>                0.0000
      6 C6           0.5996  -1.2412  -0.2833 C.3            1 <1>                0.0000
      7 N7           0.5742   0.2123  -0.0671 N.3            1 <1>                0.0000
      8 C8          -0.4797   0.8458  -0.8708 C.3            1 <1>                0.0000
      9 C9          -1.8290   0.3869  -0.3812 C.ar           1 <1>                0.0000
     10 C10         -2.4816   1.0945   0.6110 C.ar           1 <1>                0.0000
     11 C11         -3.7193   0.6735   1.0601 C.ar           1 <1>                0.0000
     12 C12         -4.3047  -0.4547   0.5167 C.ar           1 <1>                0.0000
     13 C13         -3.6526  -1.1617  -0.4762 C.ar           1 <1>                0.0000
     14 C14         -2.4168  -0.7383  -0.9283 C.ar           1 <1>                0.0000
     15 H15          2.8112   2.7513  -0.3018 H              1 <1>                0.0000
     16 H16          1.0832   2.7703  -0.7282 H              1 <1>                0.0000
     17 H17          1.5810   2.4854   0.9568 H              1 <1>                0.0000
     18 H18          2.1420   0.6320  -1.4028 H              1 <1>                0.0000
     19 H19          3.9217   0.5907   0.3168 H              1 <1>                0.0000
     20 H20          2.6971   0.3482   1.5855 H              1 <1>                0.0000
     21 H21          1.6985  -2.9452   0.4450 H              1 <1>                0.0000
     22 H22          1.4269  -1.6720   1.6588 H              1 <1>                0.0000
     23 H23          0.8333  -1.4496  -1.3274 H              1 <1>                0.0000
     24 H24         -0.3752  -1.6625  -0.0374 H              1 <1>                0.0000
     25 H25         -0.4077   1.9292  -0.7753 H              1 <1>                0.0000
     26 H26         -0.3577   0.5644  -1.9167 H              1 <1>                0.0000
     27 H27         -2.0242   1.9759   1.0356 H              1 <1>                0.0000
     28 H28         -4.2288   1.2259   1.8358 H              1 <1>                0.0000
     29 H29         -5.2714  -0.7840   0.8680 H              1 <1>                0.0000
     30 H30         -4.1098  -2.0433  -0.9006 H              1 <1>                0.0000
     31 H31         -1.9073  -1.2906  -1.7040 H              1 <1>                0.0000
     32 H32          3.1967  -1.4586  -0.6737 H              1 <1>                0.0000
     33 H33          3.6850  -1.7093   0.8797 H              1 <1>                0.0000
@<TRIPOS>BOND
    1    1    2 1     
    2    1   15 1     
    3    1   16 1     
    4    1   17 1     
    5    2    3 1     
    6    2    7 1     
    7    2   18 1     
    8    3    4 1     
    9    3   19 1     
   10    3   20 1     
   11    4    5 1     
   12    4   32 1     
   13    4   33 1     
   14    5    6 1     
   15    5   21 1     
   16    5   22 1     
   17    6    7 1     
   18    6   23 1     
   19    6   24 1     
   20    7    8 1     
   21    8    9 1     
   22    8   25 1     
   23    8   26 1     
   24    9   10 ar    
   25    9   14 ar    
   26   10   11 ar    
   27   10   27 1     
   28   11   12 ar    
   29   11   28 1     
   30   12   13 ar    
   31   12   29 1     
   32   13   14 ar    
   33   13   30 1     
   34   14   31 1     
@<TRIPOS>SUBSTRUCTURE
      1 ****           1
@<TRIPOS>SET
DONOR_HYDROGENS      STATIC     ATOMS    <user>   **** ""
2 32 33
ATOM$RED        STATIC     ATOMS    COLORGROUP SYSTEM
2 32 33
