#       Name:                EN300-253816_i003
#       Creating user name   aseyller
#       Creation time:       Sat Apr 22 07:17:45 2023


#       File generated by GOLD software.
#

@<TRIPOS>MOLECULE
EN300-253816_i003|amine_3|mol2|3927|dock17
    33    34     1
SMALL
USER_CHARGES


@<TRIPOS>ATOM
      1 C1          29.0684  36.7081  41.6678 C.3            1 <1>                0.0000
      2 C2          27.9172  36.3656  40.7200 C.3            1 <1>                0.0000
      3 C3          26.6014  36.8796  41.3083 C.3            1 <1>                0.0000
      4 N4          25.4991  36.5683  40.3888 N.4            1 <1>                1.0000
      5 C5          25.7329  37.2313  39.0990 C.3            1 <1>                0.0000
      6 C6          27.0415  36.7201  38.4925 C.3            1 <1>                0.0000
      7 N7          28.1495  37.0024  39.4160 N.3            1 <1>                0.0000
      8 C8          29.4336  36.5767  38.8434 C.3            1 <1>                0.0000
      9 C9          29.8604  37.5580  37.7823 C.ar           1 <1>                0.0000
     10 C10         29.1771  38.7497  37.6280 C.ar           1 <1>                0.0000
     11 C11         29.5687  39.6498  36.6547 C.ar           1 <1>                0.0000
     12 C12         30.6438  39.3585  35.8360 C.ar           1 <1>                0.0000
     13 C13         31.3277  38.1672  35.9911 C.ar           1 <1>                0.0000
     14 C14         30.9388  37.2690  36.9672 C.ar           1 <1>                0.0000
     15 H15         28.8948  36.2373  42.6354 H              1 <1>                0.0000
     16 H16         30.0055  36.3418  41.2485 H              1 <1>                0.0000
     17 H17         29.1252  37.7892  41.7946 H              1 <1>                0.0000
     18 H18         27.8607  35.2846  40.5923 H              1 <1>                0.0000
     19 H19         26.4201  36.3978  42.2690 H              1 <1>                0.0000
     20 H20         26.6634  37.9587  41.4490 H              1 <1>                0.0000
     21 H21         24.9079  37.0102  38.4220 H              1 <1>                0.0000
     22 H22         25.7994  38.3086  39.2511 H              1 <1>                0.0000
     23 H23         26.9704  35.6450  38.3276 H              1 <1>                0.0000
     24 H24         27.2229  37.2229  37.5425 H              1 <1>                0.0000
     25 H25         30.1878  36.5406  39.6295 H              1 <1>                0.0000
     26 H26         29.3234  35.5871  38.4000 H              1 <1>                0.0000
     27 H27         28.3372  38.9773  38.2675 H              1 <1>                0.0000
     28 H28         29.0344  40.5806  36.5336 H              1 <1>                0.0000
     29 H29         30.9493  40.0614  35.0752 H              1 <1>                0.0000
     30 H30         32.1674  37.9394  35.3513 H              1 <1>                0.0000
     31 H31         31.4730  36.3382  37.0883 H              1 <1>                0.0000
     32 H32         25.4492  35.5702  40.2494 H              1 <1>                0.0000
     33 H33         24.6300  36.8964  40.7826 H              1 <1>                0.0000
@<TRIPOS>BOND
    1    1    2 1     
    2    1   15 1     
    3    1   16 1     
    4    1   17 1     
    5    2    3 1     
    6    2    7 1     
    7    2   18 1     
    8    3    4 1     
    9    3   19 1     
   10    3   20 1     
   11    4    5 1     
   12    4   32 1     
   13    4   33 1     
   14    5    6 1     
   15    5   21 1     
   16    5   22 1     
   17    6    7 1     
   18    6   23 1     
   19    6   24 1     
   20    7    8 1     
   21    8    9 1     
   22    8   25 1     
   23    8   26 1     
   24    9   10 ar    
   25    9   14 ar    
   26   10   11 ar    
   27   10   27 1     
   28   11   12 ar    
   29   11   28 1     
   30   12   13 ar    
   31   12   29 1     
   32   13   14 ar    
   33   13   30 1     
   34   14   31 1     
@<TRIPOS>SUBSTRUCTURE
      1 ****           1
@<TRIPOS>SET
DONOR_HYDROGENS      STATIC     ATOMS    <user>   **** ""
2 32 33
ATOM$RED        STATIC     ATOMS    COLORGROUP SYSTEM
2 32 33
@<TRIPOS>COMMENT
> <Gold.Version>
2022.2.0

> <Gold.Id.Protein>
1qkm|1qkm_protein|mol2

> <Gold.Protein.RotatedTorsions>
[  496  491  490  487 ] final  -86.52 input  -89.99 | X-H torsion

> <Gold.Protein.ActiveResidues>
 MET295  LEU298  THR299  LEU301  ALA302  GLU305  TRP335  MET336  LEU339  MET340 
 GLY342  LEU343  ARG346  PHE356  ILE373  ILE376  PHE377  LEU380  LYS471  GLY472 
 MET473  HIS475  LEU476  LEU477  ASN478  MET479  VAL484  VAL487 

> <Gold.Protein.RotatedAtoms>
   36.7253   34.6746   41.1216 H   0  0  0  0  0  0  0  0  0  0  0  0  # atno 496  bound_to 491 

> <Gold.Score>
     Score     S(PLP)   S(hbond)     S(cho)   S(metal)  DE(clash)   DE(tors)     intcor
     48.60     -49.05       0.00       0.00       0.00       0.00       0.23       0.00

> <Gold.PLP.Fitness>
48.6049

> <Gold.PLP.PLP>
-49.0536

> <Gold.PLP.part.hbond>
-0.7825

> <Gold.PLP.part.metal>
0.0000

> <Gold.PLP.part.buried>
-2.0323

> <Gold.PLP.part.nonpolar>
-45.9733

> <Gold.PLP.part.repulsive>
0.1096

> <Gold.PLP.ligand.clash>
0.0000

> <Gold.PLP.ligand.torsion>
0.2264

> <Gold.PLP.Chemscore.Hbond>
0.0000

> <Gold.PLP.Chemscore.CHOScore>
0.0000

> <Gold.PLP.Chemscore.Metal>
0.0000

> <Gold.PLP.Chemscore.Internal.Correction>
0.0041

