#       Name:                EN300-253816_i003
#       Creating user name   aseyller
#       Creation time:       Sat Apr 22 07:17:41 2023


#       File generated by GOLD software.
#

@<TRIPOS>MOLECULE
EN300-253816_i003|amine_3|mol2|3927|dock8
    33    34     1
SMALL
USER_CHARGES


@<TRIPOS>ATOM
      1 C1          32.0878  35.3240  38.2903 C.3            1 <1>                0.0000
      2 C2          31.9087  36.3093  37.1336 C.3            1 <1>                0.0000
      3 C3          32.1025  35.5766  35.8042 C.3            1 <1>                0.0000
      4 N4          31.9108  36.5184  34.6935 N.4            1 <1>                1.0000
      5 C5          30.5473  37.0627  34.7405 C.3            1 <1>                0.0000
      6 C6          30.3406  37.8077  36.0611 C.3            1 <1>                0.0000
      7 N7          30.5558  36.8814  37.1817 N.3            1 <1>                0.0000
      8 C8          30.3107  37.5461  38.4686 C.3            1 <1>                0.0000
      9 C9          29.0574  36.9876  39.0917 C.ar           1 <1>                0.0000
     10 C10         29.0954  36.4638  40.3705 C.ar           1 <1>                0.0000
     11 C11         27.9458  35.9515  40.9420 C.ar           1 <1>                0.0000
     12 C12         26.7579  35.9635  40.2351 C.ar           1 <1>                0.0000
     13 C13         26.7196  36.4882  38.9568 C.ar           1 <1>                0.0000
     14 C14         27.8684  37.0044  38.3868 C.ar           1 <1>                0.0000
     15 H15         33.0905  34.8983  38.2532 H              1 <1>                0.0000
     16 H16         31.9496  35.8461  39.2372 H              1 <1>                0.0000
     17 H17         31.3507  34.5256  38.2049 H              1 <1>                0.0000
     18 H18         32.6451  37.1083  37.2193 H              1 <1>                0.0000
     19 H19         33.1103  35.1637  35.7605 H              1 <1>                0.0000
     20 H20         31.3751  34.7687  35.7252 H              1 <1>                0.0000
     21 H21         30.4021  37.7514  33.9083 H              1 <1>                0.0000
     22 H22         29.8278  36.2472  34.6669 H              1 <1>                0.0000
     23 H23         31.0509  38.6317  36.1288 H              1 <1>                0.0000
     24 H24         29.3241  38.1990  36.1027 H              1 <1>                0.0000
     25 H25         31.1561  37.3720  39.1343 H              1 <1>                0.0000
     26 H26         30.1900  38.6172  38.3072 H              1 <1>                0.0000
     27 H27         30.0235  36.4544  40.9228 H              1 <1>                0.0000
     28 H28         27.9757  35.5416  41.9408 H              1 <1>                0.0000
     29 H29         25.8599  35.5626  40.6814 H              1 <1>                0.0000
     30 H30         25.7917  36.4973  38.4043 H              1 <1>                0.0000
     31 H31         27.8385  37.4143  37.3882 H              1 <1>                0.0000
     32 H32         32.5766  37.2724  34.7733 H              1 <1>                0.0000
     33 H33         32.0508  36.0379  33.8173 H              1 <1>                0.0000
@<TRIPOS>BOND
    1    1    2 1     
    2    1   15 1     
    3    1   16 1     
    4    1   17 1     
    5    2    3 1     
    6    2    7 1     
    7    2   18 1     
    8    3    4 1     
    9    3   19 1     
   10    3   20 1     
   11    4    5 1     
   12    4   32 1     
   13    4   33 1     
   14    5    6 1     
   15    5   21 1     
   16    5   22 1     
   17    6    7 1     
   18    6   23 1     
   19    6   24 1     
   20    7    8 1     
   21    8    9 1     
   22    8   25 1     
   23    8   26 1     
   24    9   10 ar    
   25    9   14 ar    
   26   10   11 ar    
   27   10   27 1     
   28   11   12 ar    
   29   11   28 1     
   30   12   13 ar    
   31   12   29 1     
   32   13   14 ar    
   33   13   30 1     
   34   14   31 1     
@<TRIPOS>SUBSTRUCTURE
      1 ****           1
@<TRIPOS>SET
DONOR_HYDROGENS      STATIC     ATOMS    <user>   **** ""
2 32 33
ATOM$RED        STATIC     ATOMS    COLORGROUP SYSTEM
2 32 33
@<TRIPOS>COMMENT
> <Gold.Version>
2022.2.0

> <Gold.Id.Protein>
1qkm|1qkm_protein|mol2

> <Gold.Protein.RotatedTorsions>
[  496  491  490  487 ] final  -68.38 input  -89.99 | X-H torsion

> <Gold.Protein.ActiveResidues>
 MET295  LEU298  THR299  LEU301  ALA302  GLU305  TRP335  MET336  LEU339  MET340 
 GLY342  LEU343  ARG346  PHE356  ILE373  ILE376  PHE377  LEU380  LYS471  GLY472 
 MET473  HIS475  LEU476  LEU477  ASN478  MET479  VAL484  VAL487 

> <Gold.Protein.RotatedAtoms>
   36.5646   34.7345   41.3646 H   0  0  0  0  0  0  0  0  0  0  0  0  # atno 496  bound_to 491 

> <Gold.Score>
     Score     S(PLP)   S(hbond)     S(cho)   S(metal)  DE(clash)   DE(tors)     intcor
     48.10     -46.60       0.99       0.00       0.00       0.00       0.74       0.00

> <Gold.PLP.Fitness>
48.0981

> <Gold.PLP.PLP>
-46.6027

> <Gold.PLP.part.hbond>
-1.0000

> <Gold.PLP.part.metal>
0.0000

> <Gold.PLP.part.buried>
-3.5804

> <Gold.PLP.part.nonpolar>
-43.2136

> <Gold.PLP.part.repulsive>
0.0413

> <Gold.PLP.ligand.clash>
0.0000

> <Gold.PLP.ligand.torsion>
0.7412

> <Gold.PLP.Chemscore.Hbond>
0.9913

> <Gold.PLP.Chemscore.CHOScore>
0.0000

> <Gold.PLP.Chemscore.Metal>
0.0000

> <Gold.Chemscore.Hbonds>
donor molecule, donor type, donor heavy atom, donor atom, acceptor molecule, acceptor atom, score
      L1  H     4    33       P1  3187  0.99

> <Gold.PLP.Chemscore.Internal.Correction>
0.0041

