#       Name:                EN300-253816_i003
#       Creating user name   aseyller
#       Creation time:       Sat Apr 22 07:17:38 2023


#       File generated by GOLD software.
#

@<TRIPOS>MOLECULE
EN300-253816_i003|amine_3|mol2|3927|dock1
    33    34     1
SMALL
USER_CHARGES


@<TRIPOS>ATOM
      1 C1          26.3987  36.5944  38.3703 C.3            1 <1>                0.0000
      2 C2          27.0563  36.9206  39.7127 C.3            1 <1>                0.0000
      3 C3          26.3058  36.2029  40.8367 C.3            1 <1>                0.0000
      4 N4          26.9495  36.5002  42.1231 N.4            1 <1>                1.0000
      5 C5          28.3383  36.0224  42.0997 C.3            1 <1>                0.0000
      6 C6          29.1056  36.7386  40.9861 C.3            1 <1>                0.0000
      7 N7          28.4552  36.4700  39.6958 N.3            1 <1>                0.0000
      8 C8          29.1964  37.0953  38.5924 C.3            1 <1>                0.0000
      9 C9          30.3834  36.2382  38.2355 C.ar           1 <1>                0.0000
     10 C10         31.3366  36.7106  37.3526 C.ar           1 <1>                0.0000
     11 C11         32.4254  35.9244  37.0253 C.ar           1 <1>                0.0000
     12 C12         32.5615  34.6661  37.5811 C.ar           1 <1>                0.0000
     13 C13         31.6089  34.1941  38.4648 C.ar           1 <1>                0.0000
     14 C14         30.5223  34.9820  38.7954 C.ar           1 <1>                0.0000
     15 H15         25.3607  36.9268  38.3839 H              1 <1>                0.0000
     16 H16         26.9334  37.1058  37.5699 H              1 <1>                0.0000
     17 H17         26.4333  35.5183  38.2007 H              1 <1>                0.0000
     18 H18         27.0225  37.9968  39.8821 H              1 <1>                0.0000
     19 H19         25.2716  36.5463  40.8600 H              1 <1>                0.0000
     20 H20         26.3277  35.1277  40.6594 H              1 <1>                0.0000
     21 H21         28.8108  36.2318  43.0593 H              1 <1>                0.0000
     22 H22         28.3498  34.9480  41.9159 H              1 <1>                0.0000
     23 H23         29.1060  37.8118  41.1769 H              1 <1>                0.0000
     24 H24         30.1323  36.3733  40.9588 H              1 <1>                0.0000
     25 H25         28.5437  37.1914  37.7247 H              1 <1>                0.0000
     26 H26         29.5405  38.0829  38.8994 H              1 <1>                0.0000
     27 H27         31.2302  37.6936  36.9183 H              1 <1>                0.0000
     28 H28         33.1696  36.2931  36.3349 H              1 <1>                0.0000
     29 H29         33.4118  34.0515  37.3249 H              1 <1>                0.0000
     30 H30         31.7150  33.2109  38.8989 H              1 <1>                0.0000
     31 H31         29.7781  34.6133  39.4858 H              1 <1>                0.0000
     32 H32         26.9396  37.4967  42.2816 H              1 <1>                0.0000
     33 H33         26.4471  36.0369  42.8654 H              1 <1>                0.0000
@<TRIPOS>BOND
    1    1    2 1     
    2    1   15 1     
    3    1   16 1     
    4    1   17 1     
    5    2    3 1     
    6    2    7 1     
    7    2   18 1     
    8    3    4 1     
    9    3   19 1     
   10    3   20 1     
   11    4    5 1     
   12    4   32 1     
   13    4   33 1     
   14    5    6 1     
   15    5   21 1     
   16    5   22 1     
   17    6    7 1     
   18    6   23 1     
   19    6   24 1     
   20    7    8 1     
   21    8    9 1     
   22    8   25 1     
   23    8   26 1     
   24    9   10 ar    
   25    9   14 ar    
   26   10   11 ar    
   27   10   27 1     
   28   11   12 ar    
   29   11   28 1     
   30   12   13 ar    
   31   12   29 1     
   32   13   14 ar    
   33   13   30 1     
   34   14   31 1     
@<TRIPOS>SUBSTRUCTURE
      1 ****           1
@<TRIPOS>SET
DONOR_HYDROGENS      STATIC     ATOMS    <user>   **** ""
2 32 33
ATOM$RED        STATIC     ATOMS    COLORGROUP SYSTEM
2 32 33
@<TRIPOS>COMMENT
> <Gold.Version>
2022.2.0

> <Gold.Id.Protein>
1qkm|1qkm_protein|mol2

> <Gold.Protein.RotatedTorsions>
[  496  491  490  487 ] final  100.67 input  -89.99 | X-H torsion

> <Gold.Protein.ActiveResidues>
 MET295  LEU298  THR299  LEU301  ALA302  GLU305  TRP335  MET336  LEU339  MET340 
 GLY342  LEU343  ARG346  PHE356  ILE373  ILE376  PHE377  LEU380  LYS471  GLY472 
 MET473  HIS475  LEU476  LEU477  ASN478  MET479  VAL484  VAL487 

> <Gold.Protein.RotatedAtoms>
   36.9176   32.9665   41.8894 H   0  0  0  0  0  0  0  0  0  0  0  0  # atno 496  bound_to 491 

> <Gold.Score>
     Score     S(PLP)   S(hbond)     S(cho)   S(metal)  DE(clash)   DE(tors)     intcor
     56.65     -51.22       2.00       0.00       0.00       0.00       0.29       0.02

> <Gold.PLP.Fitness>
56.6514

> <Gold.PLP.PLP>
-51.2183

> <Gold.PLP.part.hbond>
-1.0000

> <Gold.PLP.part.metal>
0.0000

> <Gold.PLP.part.buried>
-3.3331

> <Gold.PLP.part.nonpolar>
-47.4721

> <Gold.PLP.part.repulsive>
0.0860

> <Gold.PLP.ligand.clash>
0.0000

> <Gold.PLP.ligand.torsion>
0.2912

> <Gold.PLP.Chemscore.Hbond>
2.0000

> <Gold.PLP.Chemscore.CHOScore>
0.0000

> <Gold.PLP.Chemscore.Metal>
0.0000

> <Gold.Chemscore.Hbonds>
donor molecule, donor type, donor heavy atom, donor atom, acceptor molecule, acceptor atom, score
      L1  H     4    33       P1   582  2.00

> <Gold.PLP.Chemscore.Internal.Correction>
0.0155

