#       Name:                EN300-253816_i003
#       Creating user name   aseyller
#       Creation time:       Sat Apr 22 07:17:45 2023


#       File generated by GOLD software.
#

@<TRIPOS>MOLECULE
EN300-253816_i003|amine_3|mol2|3927|dock18
    33    34     1
SMALL
USER_CHARGES


@<TRIPOS>ATOM
      1 C1          31.4336  37.9335  37.0007 C.3            1 <1>                0.0000
      2 C2          31.2456  36.4274  37.1935 C.3            1 <1>                0.0000
      3 C3          32.5752  35.7964  37.6125 C.3            1 <1>                0.0000
      4 N4          32.3899  34.3537  37.8169 N.4            1 <1>                1.0000
      5 C5          31.4030  34.1311  38.8819 C.3            1 <1>                0.0000
      6 C6          30.0636  34.7483  38.4734 C.3            1 <1>                0.0000
      7 N7          30.2418  36.1884  38.2401 N.3            1 <1>                0.0000
      8 C8          28.9641  36.8288  37.9003 C.3            1 <1>                0.0000
      9 C9          28.0447  36.7796  39.0933 C.ar           1 <1>                0.0000
     10 C10         26.6857  36.9703  38.9268 C.ar           1 <1>                0.0000
     11 C11         25.8423  36.9252  40.0211 C.ar           1 <1>                0.0000
     12 C12         26.3578  36.6889  41.2818 C.ar           1 <1>                0.0000
     13 C13         27.7167  36.4972  41.4481 C.ar           1 <1>                0.0000
     14 C14         28.5595  36.5381  40.3532 C.ar           1 <1>                0.0000
     15 H15         32.1795  38.1104  36.2259 H              1 <1>                0.0000
     16 H16         30.4863  38.3827  36.7023 H              1 <1>                0.0000
     17 H17         31.7687  38.3806  37.9366 H              1 <1>                0.0000
     18 H18         30.9096  35.9802  36.2580 H              1 <1>                0.0000
     19 H19         33.3173  35.9602  36.8311 H              1 <1>                0.0000
     20 H20         32.9179  36.2538  38.5406 H              1 <1>                0.0000
     21 H21         31.2760  33.0605  39.0416 H              1 <1>                0.0000
     22 H22         31.7517  34.5971  39.8036 H              1 <1>                0.0000
     23 H23         29.7079  34.2730  37.5592 H              1 <1>                0.0000
     24 H24         29.3351  34.5963  39.2699 H              1 <1>                0.0000
     25 H25         29.1413  37.8673  37.6206 H              1 <1>                0.0000
     26 H26         28.5041  36.3010  37.0650 H              1 <1>                0.0000
     27 H27         26.2830  37.1550  37.9419 H              1 <1>                0.0000
     28 H28         24.7807  37.0750  39.8912 H              1 <1>                0.0000
     29 H29         25.6990  36.6543  42.1369 H              1 <1>                0.0000
     30 H30         28.1195  36.3129  42.4330 H              1 <1>                0.0000
     31 H31         29.6212  36.3883  40.4831 H              1 <1>                0.0000
     32 H32         32.0615  33.9323  36.9609 H              1 <1>                0.0000
     33 H33         33.2695  33.9359  38.0812 H              1 <1>                0.0000
@<TRIPOS>BOND
    1    1    2 1     
    2    1   15 1     
    3    1   16 1     
    4    1   17 1     
    5    2    3 1     
    6    2    7 1     
    7    2   18 1     
    8    3    4 1     
    9    3   19 1     
   10    3   20 1     
   11    4    5 1     
   12    4   32 1     
   13    4   33 1     
   14    5    6 1     
   15    5   21 1     
   16    5   22 1     
   17    6    7 1     
   18    6   23 1     
   19    6   24 1     
   20    7    8 1     
   21    8    9 1     
   22    8   25 1     
   23    8   26 1     
   24    9   10 ar    
   25    9   14 ar    
   26   10   11 ar    
   27   10   27 1     
   28   11   12 ar    
   29   11   28 1     
   30   12   13 ar    
   31   12   29 1     
   32   13   14 ar    
   33   13   30 1     
   34   14   31 1     
@<TRIPOS>SUBSTRUCTURE
      1 ****           1
@<TRIPOS>SET
DONOR_HYDROGENS      STATIC     ATOMS    <user>   **** ""
2 32 33
ATOM$RED        STATIC     ATOMS    COLORGROUP SYSTEM
2 32 33
@<TRIPOS>COMMENT
> <Gold.Version>
2022.2.0

> <Gold.Id.Protein>
1qkm|1qkm_protein|mol2

> <Gold.Protein.RotatedTorsions>
[  496  491  490  487 ] final   51.94 input  -89.99 | X-H torsion

> <Gold.Protein.ActiveResidues>
 MET295  LEU298  THR299  LEU301  ALA302  GLU305  TRP335  MET336  LEU339  MET340 
 GLY342  LEU343  ARG346  PHE356  ILE373  ILE376  PHE377  LEU380  LYS471  GLY472 
 MET473  HIS475  LEU476  LEU477  ASN478  MET479  VAL484  VAL487 

> <Gold.Protein.RotatedAtoms>
   36.4874   33.4272   42.3456 H   0  0  0  0  0  0  0  0  0  0  0  0  # atno 496  bound_to 491 

> <Gold.Score>
     Score     S(PLP)   S(hbond)     S(cho)   S(metal)  DE(clash)   DE(tors)     intcor
     47.21     -47.77       0.00       0.00       0.00       0.00       0.28       0.00

> <Gold.PLP.Fitness>
47.2132

> <Gold.PLP.PLP>
-47.7719

> <Gold.PLP.part.hbond>
0.0000

> <Gold.PLP.part.metal>
0.0000

> <Gold.PLP.part.buried>
-3.0854

> <Gold.PLP.part.nonpolar>
-45.6484

> <Gold.PLP.part.repulsive>
0.0718

> <Gold.PLP.ligand.clash>
0.0041

> <Gold.PLP.ligand.torsion>
0.2793

> <Gold.PLP.Chemscore.Hbond>
0.0000

> <Gold.PLP.Chemscore.CHOScore>
0.0000

> <Gold.PLP.Chemscore.Metal>
0.0000

> <Gold.PLP.Chemscore.Internal.Correction>
0.0041

