#       Name:                EN300-253816_i003
#       Creating user name   aseyller
#       Creation time:       Sat Apr 22 07:17:41 2023


#       File generated by GOLD software.
#

@<TRIPOS>MOLECULE
EN300-253816_i003|amine_3|mol2|3927|dock7
    33    34     1
SMALL
USER_CHARGES


@<TRIPOS>ATOM
      1 C1          28.4973  36.2787  42.1030 C.3            1 <1>                0.0000
      2 C2          27.4428  36.1499  41.0020 C.3            1 <1>                0.0000
      3 C3          26.2200  36.9954  41.3647 C.3            1 <1>                0.0000
      4 N4          25.2160  36.8876  40.2980 N.4            1 <1>                1.0000
      5 C5          25.7818  37.3881  39.0382 C.3            1 <1>                0.0000
      6 C6          27.0009  36.5458  38.6562 C.3            1 <1>                0.0000
      7 N7          28.0028  36.6245  39.7286 N.3            1 <1>                0.0000
      8 C8          29.2142  35.8732  39.3737 C.3            1 <1>                0.0000
      9 C9          30.0550  36.6930  38.4292 C.ar           1 <1>                0.0000
     10 C10         29.5834  37.9038  37.9575 C.ar           1 <1>                0.0000
     11 C11         30.3547  38.6557  37.0912 C.ar           1 <1>                0.0000
     12 C12         31.5977  38.1972  36.6970 C.ar           1 <1>                0.0000
     13 C13         32.0698  36.9869  37.1695 C.ar           1 <1>                0.0000
     14 C14         31.3003  36.2369  38.0392 C.ar           1 <1>                0.0000
     15 H15         28.0810  35.9285  43.0476 H              1 <1>                0.0000
     16 H16         29.3681  35.6763  41.8443 H              1 <1>                0.0000
     17 H17         28.7941  37.3228  42.2016 H              1 <1>                0.0000
     18 H18         27.1464  35.1057  40.9026 H              1 <1>                0.0000
     19 H19         25.7947  36.6359  42.3016 H              1 <1>                0.0000
     20 H20         26.5194  38.0374  41.4778 H              1 <1>                0.0000
     21 H21         25.0316  37.3197  38.2505 H              1 <1>                0.0000
     22 H22         26.0834  38.4281  39.1632 H              1 <1>                0.0000
     23 H23         26.6971  35.5082  38.5177 H              1 <1>                0.0000
     24 H24         27.4299  36.9264  37.7292 H              1 <1>                0.0000
     25 H25         29.7861  35.6585  40.2763 H              1 <1>                0.0000
     26 H26         28.9329  34.9374  38.8907 H              1 <1>                0.0000
     27 H27         28.6122  38.2620  38.2654 H              1 <1>                0.0000
     28 H28         29.9859  39.6013  36.7220 H              1 <1>                0.0000
     29 H29         32.2001  38.7843  36.0196 H              1 <1>                0.0000
     30 H30         33.0408  36.6285  36.8614 H              1 <1>                0.0000
     31 H31         31.6690  35.2914  38.4084 H              1 <1>                0.0000
     32 H32         24.9476  35.9214  40.1854 H              1 <1>                0.0000
     33 H33         24.4048  37.4353  40.5431 H              1 <1>                0.0000
@<TRIPOS>BOND
    1    1    2 1     
    2    1   15 1     
    3    1   16 1     
    4    1   17 1     
    5    2    3 1     
    6    2    7 1     
    7    2   18 1     
    8    3    4 1     
    9    3   19 1     
   10    3   20 1     
   11    4    5 1     
   12    4   32 1     
   13    4   33 1     
   14    5    6 1     
   15    5   21 1     
   16    5   22 1     
   17    6    7 1     
   18    6   23 1     
   19    6   24 1     
   20    7    8 1     
   21    8    9 1     
   22    8   25 1     
   23    8   26 1     
   24    9   10 ar    
   25    9   14 ar    
   26   10   11 ar    
   27   10   27 1     
   28   11   12 ar    
   29   11   28 1     
   30   12   13 ar    
   31   12   29 1     
   32   13   14 ar    
   33   13   30 1     
   34   14   31 1     
@<TRIPOS>SUBSTRUCTURE
      1 ****           1
@<TRIPOS>SET
DONOR_HYDROGENS      STATIC     ATOMS    <user>   **** ""
2 32 33
ATOM$RED        STATIC     ATOMS    COLORGROUP SYSTEM
2 32 33
@<TRIPOS>COMMENT
> <Gold.Version>
2022.2.0

> <Gold.Id.Protein>
1qkm|1qkm_protein|mol2

> <Gold.Protein.RotatedTorsions>
[  496  491  490  487 ] final   -1.12 input  -89.99 | X-H torsion

> <Gold.Protein.ActiveResidues>
 MET295  LEU298  THR299  LEU301  ALA302  GLU305  TRP335  MET336  LEU339  MET340 
 GLY342  LEU343  ARG346  PHE356  ILE373  ILE376  PHE377  LEU380  LYS471  GLY472 
 MET473  HIS475  LEU476  LEU477  ASN478  MET479  VAL484  VAL487 

> <Gold.Protein.RotatedAtoms>
   36.2592   34.2295   42.2267 H   0  0  0  0  0  0  0  0  0  0  0  0  # atno 496  bound_to 491 

> <Gold.Score>
     Score     S(PLP)   S(hbond)     S(cho)   S(metal)  DE(clash)   DE(tors)     intcor
     50.22     -50.67       0.00       0.00       0.00       0.00       0.23       0.00

> <Gold.PLP.Fitness>
50.2183

> <Gold.PLP.PLP>
-50.6712

> <Gold.PLP.part.hbond>
-1.0000

> <Gold.PLP.part.metal>
0.0000

> <Gold.PLP.part.buried>
-4.0474

> <Gold.PLP.part.nonpolar>
-45.7323

> <Gold.PLP.part.repulsive>
0.1552

> <Gold.PLP.ligand.clash>
0.0000

> <Gold.PLP.ligand.torsion>
0.2285

> <Gold.PLP.Chemscore.Hbond>
0.0000

> <Gold.PLP.Chemscore.CHOScore>
0.0000

> <Gold.PLP.Chemscore.Metal>
0.0000

> <Gold.PLP.Chemscore.Internal.Correction>
0.0041

