#       Name:                EN300-253816_i003
#       Creating user name   aseyller
#       Creation time:       Sat Apr 22 07:17:44 2023


#       File generated by GOLD software.
#

@<TRIPOS>MOLECULE
EN300-253816_i003|amine_3|mol2|3927|dock15
    33    34     1
SMALL
USER_CHARGES


@<TRIPOS>ATOM
      1 C1          32.0361  34.1986  37.8327 C.3            1 <1>                0.0000
      2 C2          32.1730  35.5002  37.0403 C.3            1 <1>                0.0000
      3 C3          32.4452  35.1764  35.5697 C.3            1 <1>                0.0000
      4 N4          32.5567  36.4259  34.8055 N.4            1 <1>                1.0000
      5 C5          31.2964  37.1743  34.9009 C.3            1 <1>                0.0000
      6 C6          31.0147  37.5147  36.3660 C.3            1 <1>                0.0000
      7 N7          30.9270  36.2724  37.1465 N.3            1 <1>                0.0000
      8 C8          30.6007  36.5549  38.5507 C.3            1 <1>                0.0000
      9 C9          29.1039  36.5926  38.7208 C.ar           1 <1>                0.0000
     10 C10         28.3428  37.4558  37.9548 C.ar           1 <1>                0.0000
     11 C11         26.9697  37.4905  38.1108 C.ar           1 <1>                0.0000
     12 C12         26.3577  36.6616  39.0324 C.ar           1 <1>                0.0000
     13 C13         27.1186  35.7977  39.7976 C.ar           1 <1>                0.0000
     14 C14         28.4913  35.7600  39.6385 C.ar           1 <1>                0.0000
     15 H15         32.9595  33.6252  37.7520 H              1 <1>                0.0000
     16 H16         31.8422  34.4296  38.8802 H              1 <1>                0.0000
     17 H17         31.2089  33.6137  37.4306 H              1 <1>                0.0000
     18 H18         32.9996  36.0857  37.4428 H              1 <1>                0.0000
     19 H19         33.3764  34.6159  35.4873 H              1 <1>                0.0000
     20 H20         31.6251  34.5789  35.1714 H              1 <1>                0.0000
     21 H21         31.3758  38.0949  34.3228 H              1 <1>                0.0000
     22 H22         30.4821  36.5666  34.5061 H              1 <1>                0.0000
     23 H23         31.8220  38.1338  36.7572 H              1 <1>                0.0000
     24 H24         30.0720  38.0571  36.4387 H              1 <1>                0.0000
     25 H25         31.0189  35.7734  39.1851 H              1 <1>                0.0000
     26 H26         31.0232  37.5185  38.8352 H              1 <1>                0.0000
     27 H27         28.8210  38.1035  37.2349 H              1 <1>                0.0000
     28 H28         26.3752  38.1654  37.5130 H              1 <1>                0.0000
     29 H29         25.2850  36.6891  39.1547 H              1 <1>                0.0000
     30 H30         26.6405  35.1503  40.5177 H              1 <1>                0.0000
     31 H31         29.0858  35.0851  40.2363 H              1 <1>                0.0000
     32 H32         33.3083  36.9841  35.1818 H              1 <1>                0.0000
     33 H33         32.7484  36.2124  33.8382 H              1 <1>                0.0000
@<TRIPOS>BOND
    1    1    2 1     
    2    1   15 1     
    3    1   16 1     
    4    1   17 1     
    5    2    3 1     
    6    2    7 1     
    7    2   18 1     
    8    3    4 1     
    9    3   19 1     
   10    3   20 1     
   11    4    5 1     
   12    4   32 1     
   13    4   33 1     
   14    5    6 1     
   15    5   21 1     
   16    5   22 1     
   17    6    7 1     
   18    6   23 1     
   19    6   24 1     
   20    7    8 1     
   21    8    9 1     
   22    8   25 1     
   23    8   26 1     
   24    9   10 ar    
   25    9   14 ar    
   26   10   11 ar    
   27   10   27 1     
   28   11   12 ar    
   29   11   28 1     
   30   12   13 ar    
   31   12   29 1     
   32   13   14 ar    
   33   13   30 1     
   34   14   31 1     
@<TRIPOS>SUBSTRUCTURE
      1 ****           1
@<TRIPOS>SET
DONOR_HYDROGENS      STATIC     ATOMS    <user>   **** ""
2 32 33
ATOM$RED        STATIC     ATOMS    COLORGROUP SYSTEM
2 32 33
@<TRIPOS>COMMENT
> <Gold.Version>
2022.2.0

> <Gold.Id.Protein>
1qkm|1qkm_protein|mol2

> <Gold.Protein.RotatedTorsions>
[  496  491  490  487 ] final  -74.93 input  -89.99 | X-H torsion

> <Gold.Protein.ActiveResidues>
 MET295  LEU298  THR299  LEU301  ALA302  GLU305  TRP335  MET336  LEU339  MET340 
 GLY342  LEU343  ARG346  PHE356  ILE373  ILE376  PHE377  LEU380  LYS471  GLY472 
 MET473  HIS475  LEU476  LEU477  ASN478  MET479  VAL484  VAL487 

> <Gold.Protein.RotatedAtoms>
   36.6209   34.7230   41.2734 H   0  0  0  0  0  0  0  0  0  0  0  0  # atno 496  bound_to 491 

> <Gold.Score>
     Score     S(PLP)   S(hbond)     S(cho)   S(metal)  DE(clash)   DE(tors)     intcor
     47.13     -47.03       0.29       0.00       0.00       0.00       0.40       0.00

> <Gold.PLP.Fitness>
47.1301

> <Gold.PLP.PLP>
-47.0329

> <Gold.PLP.part.hbond>
-0.5657

> <Gold.PLP.part.metal>
0.0000

> <Gold.PLP.part.buried>
-3.6327

> <Gold.PLP.part.nonpolar>
-44.6446

> <Gold.PLP.part.repulsive>
0.0530

> <Gold.PLP.ligand.clash>
0.0000

> <Gold.PLP.ligand.torsion>
0.3957

> <Gold.PLP.Chemscore.Hbond>
0.2948

> <Gold.PLP.Chemscore.CHOScore>
0.0000

> <Gold.PLP.Chemscore.Metal>
0.0000

> <Gold.Chemscore.Hbonds>
donor molecule, donor type, donor heavy atom, donor atom, acceptor molecule, acceptor atom, score
      L1  H     4    33       P1  3187  0.29

> <Gold.PLP.Chemscore.Internal.Correction>
0.0041

