#       Name:                EN300-253816_i003
#       Creating user name   aseyller
#       Creation time:       Sat Apr 22 07:17:39 2023


#       File generated by GOLD software.
#

@<TRIPOS>MOLECULE
EN300-253816_i003|amine_3|mol2|3927|dock2
    33    34     1
SMALL
USER_CHARGES


@<TRIPOS>ATOM
      1 C1          26.5039  36.4371  38.2440 C.3            1 <1>                0.0000
      2 C2          27.1563  36.7840  39.5837 C.3            1 <1>                0.0000
      3 C3          26.6851  35.7953  40.6523 C.3            1 <1>                0.0000
      4 N4          27.3271  36.1164  41.9338 N.4            1 <1>                1.0000
      5 C5          28.7851  36.0048  41.7945 C.3            1 <1>                0.0000
      6 C6          29.2737  36.9953  40.7354 C.3            1 <1>                0.0000
      7 N7          28.6179  36.7007  39.4535 N.3            1 <1>                0.0000
      8 C8          29.1042  37.5960  38.3953 C.3            1 <1>                0.0000
      9 C9          30.4769  37.1558  37.9563 C.ar           1 <1>                0.0000
     10 C10         31.1663  37.8863  37.0065 C.ar           1 <1>                0.0000
     11 C11         32.4255  37.4824  36.6039 C.ar           1 <1>                0.0000
     12 C12         32.9955  36.3483  37.1513 C.ar           1 <1>                0.0000
     13 C13         32.3066  35.6183  38.1018 C.ar           1 <1>                0.0000
     14 C14         31.0492  36.0246  38.5075 C.ar           1 <1>                0.0000
     15 H15         25.4199  36.4971  38.3414 H              1 <1>                0.0000
     16 H16         26.8397  37.1416  37.4830 H              1 <1>                0.0000
     17 H17         26.7871  35.4257  37.9530 H              1 <1>                0.0000
     18 H18         26.8739  37.7959  39.8745 H              1 <1>                0.0000
     19 H19         25.6028  35.8657  40.7605 H              1 <1>                0.0000
     20 H20         26.9552  34.7823  40.3543 H              1 <1>                0.0000
     21 H21         29.2596  36.2305  42.7495 H              1 <1>                0.0000
     22 H22         29.0446  34.9906  41.4907 H              1 <1>                0.0000
     23 H23         29.0266  38.0107  41.0455 H              1 <1>                0.0000
     24 H24         30.3538  36.9023  40.6211 H              1 <1>                0.0000
     25 H25         28.4219  37.5590  37.5461 H              1 <1>                0.0000
     26 H26         29.1544  38.6158  38.7768 H              1 <1>                0.0000
     27 H27         30.7209  38.7724  36.5788 H              1 <1>                0.0000
     28 H28         32.9638  38.0528  35.8613 H              1 <1>                0.0000
     29 H29         33.9791  36.0324  36.8362 H              1 <1>                0.0000
     30 H30         32.7518  34.7321  38.5293 H              1 <1>                0.0000
     31 H31         30.5109  35.4543  39.2501 H              1 <1>                0.0000
     32 H32         27.0864  37.0583  42.2037 H              1 <1>                0.0000
     33 H33         27.0068  35.4719  42.6410 H              1 <1>                0.0000
@<TRIPOS>BOND
    1    1    2 1     
    2    1   15 1     
    3    1   16 1     
    4    1   17 1     
    5    2    3 1     
    6    2    7 1     
    7    2   18 1     
    8    3    4 1     
    9    3   19 1     
   10    3   20 1     
   11    4    5 1     
   12    4   32 1     
   13    4   33 1     
   14    5    6 1     
   15    5   21 1     
   16    5   22 1     
   17    6    7 1     
   18    6   23 1     
   19    6   24 1     
   20    7    8 1     
   21    8    9 1     
   22    8   25 1     
   23    8   26 1     
   24    9   10 ar    
   25    9   14 ar    
   26   10   11 ar    
   27   10   27 1     
   28   11   12 ar    
   29   11   28 1     
   30   12   13 ar    
   31   12   29 1     
   32   13   14 ar    
   33   13   30 1     
   34   14   31 1     
@<TRIPOS>SUBSTRUCTURE
      1 ****           1
@<TRIPOS>SET
DONOR_HYDROGENS      STATIC     ATOMS    <user>   **** ""
2 32 33
ATOM$RED        STATIC     ATOMS    COLORGROUP SYSTEM
2 32 33
@<TRIPOS>COMMENT
> <Gold.Version>
2022.2.0

> <Gold.Id.Protein>
1qkm|1qkm_protein|mol2

> <Gold.Protein.RotatedTorsions>
[  496  491  490  487 ] final   78.41 input  -89.99 | X-H torsion

> <Gold.Protein.ActiveResidues>
 MET295  LEU298  THR299  LEU301  ALA302  GLU305  TRP335  MET336  LEU339  MET340 
 GLY342  LEU343  ARG346  PHE356  ILE373  ILE376  PHE377  LEU380  LYS471  GLY472 
 MET473  HIS475  LEU476  LEU477  ASN478  MET479  VAL484  VAL487 

> <Gold.Protein.RotatedAtoms>
   36.7134   33.1141   42.1520 H   0  0  0  0  0  0  0  0  0  0  0  0  # atno 496  bound_to 491 

> <Gold.Score>
     Score     S(PLP)   S(hbond)     S(cho)   S(metal)  DE(clash)   DE(tors)     intcor
     54.57     -48.88       2.00       0.00       0.00       0.00       0.16       0.02

> <Gold.PLP.Fitness>
54.5732

> <Gold.PLP.PLP>
-48.8782

> <Gold.PLP.part.hbond>
-1.0000

> <Gold.PLP.part.metal>
0.0000

> <Gold.PLP.part.buried>
-3.0221

> <Gold.PLP.part.nonpolar>
-45.0938

> <Gold.PLP.part.repulsive>
0.0763

> <Gold.PLP.ligand.clash>
0.0000

> <Gold.PLP.ligand.torsion>
0.1602

> <Gold.PLP.Chemscore.Hbond>
2.0000

> <Gold.PLP.Chemscore.CHOScore>
0.0000

> <Gold.PLP.Chemscore.Metal>
0.0000

> <Gold.Chemscore.Hbonds>
donor molecule, donor type, donor heavy atom, donor atom, acceptor molecule, acceptor atom, score
      L1  H     4    33       P1   582  2.00

> <Gold.PLP.Chemscore.Internal.Correction>
0.0155

