#       Name:                EN300-253816_i003
#       Creating user name   aseyller
#       Creation time:       Sat Apr 22 07:17:41 2023


#       File generated by GOLD software.
#

@<TRIPOS>MOLECULE
EN300-253816_i003|amine_3|mol2|3927|dock9
    33    34     1
SMALL
USER_CHARGES


@<TRIPOS>ATOM
      1 C1          27.9695  35.6128  42.0735 C.3            1 <1>                0.0000
      2 C2          27.0073  35.8107  40.9005 C.3            1 <1>                0.0000
      3 C3          26.1548  37.0579  41.1442 C.3            1 <1>                0.0000
      4 N4          25.2451  37.2589  40.0087 N.4            1 <1>                1.0000
      5 C5          26.0274  37.4520  38.7805 C.3            1 <1>                0.0000
      6 C6          26.8790  36.2081  38.5172 C.3            1 <1>                0.0000
      7 N7          27.7758  35.9809  39.6592 N.3            1 <1>                0.0000
      8 C8          28.6514  34.8260  39.4195 C.3            1 <1>                0.0000
      9 C9          29.9333  35.2920  38.7788 C.ar           1 <1>                0.0000
     10 C10         30.1204  36.6337  38.5034 C.ar           1 <1>                0.0000
     11 C11         31.2963  37.0612  37.9157 C.ar           1 <1>                0.0000
     12 C12         32.2853  36.1471  37.6039 C.ar           1 <1>                0.0000
     13 C13         32.0986  34.8056  37.8802 C.ar           1 <1>                0.0000
     14 C14         30.9244  34.3787  38.4718 C.ar           1 <1>                0.0000
     15 H15         27.3994  35.4887  42.9942 H              1 <1>                0.0000
     16 H16         28.5767  34.7244  41.8996 H              1 <1>                0.0000
     17 H17         28.6181  36.4844  42.1624 H              1 <1>                0.0000
     18 H18         26.3593  34.9389  40.8107 H              1 <1>                0.0000
     19 H19         25.5733  36.9277  42.0569 H              1 <1>                0.0000
     20 H20         26.8041  37.9272  41.2480 H              1 <1>                0.0000
     21 H21         25.3516  37.6140  37.9409 H              1 <1>                0.0000
     22 H22         26.6774  38.3193  38.8964 H              1 <1>                0.0000
     23 H23         26.2286  35.3429  38.3877 H              1 <1>                0.0000
     24 H24         27.4708  36.3570  37.6140 H              1 <1>                0.0000
     25 H25         28.8757  34.3372  40.3675 H              1 <1>                0.0000
     26 H26         28.1495  34.1209  38.7570 H              1 <1>                0.0000
     27 H27         29.3477  37.3479  38.7469 H              1 <1>                0.0000
     28 H28         31.4422  38.1093  37.6998 H              1 <1>                0.0000
     29 H29         33.2037  36.4809  37.1441 H              1 <1>                0.0000
     30 H30         32.8711  34.0913  37.6364 H              1 <1>                0.0000
     31 H31         30.7785  33.3306  38.6878 H              1 <1>                0.0000
     32 H32         24.6521  36.4491  39.9055 H              1 <1>                0.0000
     33 H33         24.6745  38.0742  40.1753 H              1 <1>                0.0000
@<TRIPOS>BOND
    1    1    2 1     
    2    1   15 1     
    3    1   16 1     
    4    1   17 1     
    5    2    3 1     
    6    2    7 1     
    7    2   18 1     
    8    3    4 1     
    9    3   19 1     
   10    3   20 1     
   11    4    5 1     
   12    4   32 1     
   13    4   33 1     
   14    5    6 1     
   15    5   21 1     
   16    5   22 1     
   17    6    7 1     
   18    6   23 1     
   19    6   24 1     
   20    7    8 1     
   21    8    9 1     
   22    8   25 1     
   23    8   26 1     
   24    9   10 ar    
   25    9   14 ar    
   26   10   11 ar    
   27   10   27 1     
   28   11   12 ar    
   29   11   28 1     
   30   12   13 ar    
   31   12   29 1     
   32   13   14 ar    
   33   13   30 1     
   34   14   31 1     
@<TRIPOS>SUBSTRUCTURE
      1 ****           1
@<TRIPOS>SET
DONOR_HYDROGENS      STATIC     ATOMS    <user>   **** ""
2 32 33
ATOM$RED        STATIC     ATOMS    COLORGROUP SYSTEM
2 32 33
@<TRIPOS>COMMENT
> <Gold.Version>
2022.2.0

> <Gold.Id.Protein>
1qkm|1qkm_protein|mol2

> <Gold.Protein.RotatedTorsions>
[  496  491  490  487 ] final -121.38 input  -89.99 | X-H torsion

> <Gold.Protein.ActiveResidues>
 MET295  LEU298  THR299  LEU301  ALA302  GLU305  TRP335  MET336  LEU339  MET340 
 GLY342  LEU343  ARG346  PHE356  ILE373  ILE376  PHE377  LEU380  LYS471  GLY472 
 MET473  HIS475  LEU476  LEU477  ASN478  MET479  VAL484  VAL487 

> <Gold.Protein.RotatedAtoms>
   37.0374   34.3382   40.7920 H   0  0  0  0  0  0  0  0  0  0  0  0  # atno 496  bound_to 491 

> <Gold.Score>
     Score     S(PLP)   S(hbond)     S(cho)   S(metal)  DE(clash)   DE(tors)     intcor
     50.85     -50.72       0.33       0.00       0.00       0.00       0.44       0.00

> <Gold.PLP.Fitness>
50.8549

> <Gold.PLP.PLP>
-50.7242

> <Gold.PLP.part.hbond>
-0.9701

> <Gold.PLP.part.metal>
0.0000

> <Gold.PLP.part.buried>
-0.3075

> <Gold.PLP.part.nonpolar>
-49.6339

> <Gold.PLP.part.repulsive>
0.1561

> <Gold.PLP.ligand.clash>
0.0000

> <Gold.PLP.ligand.torsion>
0.4376

> <Gold.PLP.Chemscore.Hbond>
0.3339

> <Gold.PLP.Chemscore.CHOScore>
0.0000

> <Gold.PLP.Chemscore.Metal>
0.0000

> <Gold.Chemscore.Hbonds>
donor molecule, donor type, donor heavy atom, donor atom, acceptor molecule, acceptor atom, score
      L1  H     4    32       P1  1131  0.33

> <Gold.PLP.Chemscore.Internal.Correction>
0.0041

