#       Name:                EN300-253816_i003
#       Creating user name   aseyller
#       Creation time:       Sat Apr 22 07:17:46 2023


#       File generated by GOLD software.
#

@<TRIPOS>MOLECULE
EN300-253816_i003|amine_3|mol2|3927|dock19
    33    34     1
SMALL
USER_CHARGES


@<TRIPOS>ATOM
      1 C1          32.0197  34.0288  38.0470 C.3            1 <1>                0.0000
      2 C2          32.1302  35.2884  37.1855 C.3            1 <1>                0.0000
      3 C3          32.0467  34.9044  35.7066 C.3            1 <1>                0.0000
      4 N4          32.1327  36.1158  34.8804 N.4            1 <1>                1.0000
      5 C5          31.0128  37.0103  35.2019 C.3            1 <1>                0.0000
      6 C6          31.0877  37.4118  36.6767 C.3            1 <1>                0.0000
      7 N7          31.0291  36.2051  37.5136 N.3            1 <1>                0.0000
      8 C8          31.0413  36.5531  38.9408 C.3            1 <1>                0.0000
      9 C9          29.6756  36.3089  39.5290 C.ar           1 <1>                0.0000
     10 C10         28.6943  35.7005  38.7688 C.ar           1 <1>                0.0000
     11 C11         27.4415  35.4766  39.3084 C.ar           1 <1>                0.0000
     12 C12         27.1700  35.8606  40.6083 C.ar           1 <1>                0.0000
     13 C13         28.1516  36.4681  41.3688 C.ar           1 <1>                0.0000
     14 C14         29.4057  36.6881  40.8306 C.ar           1 <1>                0.0000
     15 H15         32.8351  33.3484  37.8020 H              1 <1>                0.0000
     16 H16         32.0792  34.3027  39.1004 H              1 <1>                0.0000
     17 H17         31.0661  33.5381  37.8525 H              1 <1>                0.0000
     18 H18         33.0833  35.7798  37.3805 H              1 <1>                0.0000
     19 H19         32.8708  34.2357  35.4578 H              1 <1>                0.0000
     20 H20         31.0994  34.4004  35.5150 H              1 <1>                0.0000
     21 H21         31.0704  37.9029  34.5790 H              1 <1>                0.0000
     22 H22         30.0708  36.4955  35.0129 H              1 <1>                0.0000
     23 H23         32.0235  37.9387  36.8631 H              1 <1>                0.0000
     24 H24         30.2484  38.0637  36.9193 H              1 <1>                0.0000
     25 H25         31.7757  35.9363  39.4588 H              1 <1>                0.0000
     26 H26         31.3040  37.6046  39.0561 H              1 <1>                0.0000
     27 H27         28.9063  35.4006  37.7532 H              1 <1>                0.0000
     28 H28         26.6746  35.0019  38.7142 H              1 <1>                0.0000
     29 H29         26.1911  35.6862  41.0296 H              1 <1>                0.0000
     30 H30         27.9395  36.7683  42.3843 H              1 <1>                0.0000
     31 H31         30.1726  37.1627  41.4247 H              1 <1>                0.0000
     32 H32         33.0045  36.5885  35.0665 H              1 <1>                0.0000
     33 H33         32.0900  35.8612  33.9050 H              1 <1>                0.0000
@<TRIPOS>BOND
    1    1    2 1     
    2    1   15 1     
    3    1   16 1     
    4    1   17 1     
    5    2    3 1     
    6    2    7 1     
    7    2   18 1     
    8    3    4 1     
    9    3   19 1     
   10    3   20 1     
   11    4    5 1     
   12    4   32 1     
   13    4   33 1     
   14    5    6 1     
   15    5   21 1     
   16    5   22 1     
   17    6    7 1     
   18    6   23 1     
   19    6   24 1     
   20    7    8 1     
   21    8    9 1     
   22    8   25 1     
   23    8   26 1     
   24    9   10 ar    
   25    9   14 ar    
   26   10   11 ar    
   27   10   27 1     
   28   11   12 ar    
   29   11   28 1     
   30   12   13 ar    
   31   12   29 1     
   32   13   14 ar    
   33   13   30 1     
   34   14   31 1     
@<TRIPOS>SUBSTRUCTURE
      1 ****           1
@<TRIPOS>SET
DONOR_HYDROGENS      STATIC     ATOMS    <user>   **** ""
2 32 33
ATOM$RED        STATIC     ATOMS    COLORGROUP SYSTEM
2 32 33
@<TRIPOS>COMMENT
> <Gold.Version>
2022.2.0

> <Gold.Id.Protein>
1qkm|1qkm_protein|mol2

> <Gold.Protein.RotatedTorsions>
[  496  491  490  487 ] final   10.47 input  -89.99 | X-H torsion

> <Gold.Protein.ActiveResidues>
 MET295  LEU298  THR299  LEU301  ALA302  GLU305  TRP335  MET336  LEU339  MET340 
 GLY342  LEU343  ARG346  PHE356  ILE373  ILE376  PHE377  LEU380  LYS471  GLY472 
 MET473  HIS475  LEU476  LEU477  ASN478  MET479  VAL484  VAL487 

> <Gold.Protein.RotatedAtoms>
   36.2743   34.0591   42.3105 H   0  0  0  0  0  0  0  0  0  0  0  0  # atno 496  bound_to 491 

> <Gold.Score>
     Score     S(PLP)   S(hbond)     S(cho)   S(metal)  DE(clash)   DE(tors)     intcor
     44.76     -43.35       0.96       0.00       0.00       0.00       0.74       0.00

> <Gold.PLP.Fitness>
44.7553

> <Gold.PLP.PLP>
-43.3502

> <Gold.PLP.part.hbond>
-0.9207

> <Gold.PLP.part.metal>
0.0000

> <Gold.PLP.part.buried>
-2.7488

> <Gold.PLP.part.nonpolar>
-40.7036

> <Gold.PLP.part.repulsive>
0.0571

> <Gold.PLP.ligand.clash>
0.0000

> <Gold.PLP.ligand.torsion>
0.7376

> <Gold.PLP.Chemscore.Hbond>
0.9588

> <Gold.PLP.Chemscore.CHOScore>
0.0000

> <Gold.PLP.Chemscore.Metal>
0.0000

> <Gold.Chemscore.Hbonds>
donor molecule, donor type, donor heavy atom, donor atom, acceptor molecule, acceptor atom, score
      L1  H     4    33       P1  3187  0.96

> <Gold.PLP.Chemscore.Internal.Correction>
0.0041

