#       Name:                EN300-253816_i003
#       Creating user name   aseyller
#       Creation time:       Sat Apr 22 07:17:42 2023


#       File generated by GOLD software.
#

@<TRIPOS>MOLECULE
EN300-253816_i003|amine_3|mol2|3927|dock10
    33    34     1
SMALL
USER_CHARGES


@<TRIPOS>ATOM
      1 C1          32.0879  35.1364  37.7296 C.3            1 <1>                0.0000
      2 C2          31.6962  36.6149  37.7674 C.3            1 <1>                0.0000
      3 C3          31.9867  37.2550  36.4082 C.3            1 <1>                0.0000
      4 N4          31.5920  38.6695  36.4385 N.4            1 <1>                1.0000
      5 C5          30.1527  38.7722  36.7131 C.3            1 <1>                0.0000
      6 C6          29.8470  38.1447  38.0748 C.3            1 <1>                0.0000
      7 N7          30.2621  36.7349  38.0658 N.3            1 <1>                0.0000
      8 C8          29.9328  36.0808  39.3393 C.3            1 <1>                0.0000
      9 C9          28.4754  36.2998  39.6542 C.ar           1 <1>                0.0000
     10 C10         28.0734  36.5010  40.9615 C.ar           1 <1>                0.0000
     11 C11         26.7366  36.7018  41.2503 C.ar           1 <1>                0.0000
     12 C12         25.8019  36.7020  40.2320 C.ar           1 <1>                0.0000
     13 C13         26.2040  36.5018  38.9246 C.ar           1 <1>                0.0000
     14 C14         27.5413  36.3053  38.6353 C.ar           1 <1>                0.0000
     15 H15         33.1511  35.0478  37.5063 H              1 <1>                0.0000
     16 H16         31.8809  34.6808  38.6979 H              1 <1>                0.0000
     17 H17         31.5108  34.6273  36.9577 H              1 <1>                0.0000
     18 H18         32.2725  37.1241  38.5399 H              1 <1>                0.0000
     19 H19         33.0523  37.1798  36.1915 H              1 <1>                0.0000
     20 H20         31.4211  36.7365  35.6341 H              1 <1>                0.0000
     21 H21         29.8585  39.8217  36.7224 H              1 <1>                0.0000
     22 H22         29.5963  38.2459  35.9374 H              1 <1>                0.0000
     23 H23         30.3925  38.6795  38.8524 H              1 <1>                0.0000
     24 H24         28.7768  38.2074  38.2722 H              1 <1>                0.0000
     25 H25         30.1309  35.0119  39.2606 H              1 <1>                0.0000
     26 H26         30.5443  36.5061  40.1349 H              1 <1>                0.0000
     27 H27         28.8037  36.5007  41.7571 H              1 <1>                0.0000
     28 H28         26.4225  36.8582  42.2718 H              1 <1>                0.0000
     29 H29         24.7574  36.8582  40.4577 H              1 <1>                0.0000
     30 H30         25.4736  36.5017  38.1290 H              1 <1>                0.0000
     31 H31         27.8555  36.1489  37.6139 H              1 <1>                0.0000
     32 H32         32.1072  39.1469  37.1629 H              1 <1>                0.0000
     33 H33         31.7951  39.0944  35.5461 H              1 <1>                0.0000
@<TRIPOS>BOND
    1    1    2 1     
    2    1   15 1     
    3    1   16 1     
    4    1   17 1     
    5    2    3 1     
    6    2    7 1     
    7    2   18 1     
    8    3    4 1     
    9    3   19 1     
   10    3   20 1     
   11    4    5 1     
   12    4   32 1     
   13    4   33 1     
   14    5    6 1     
   15    5   21 1     
   16    5   22 1     
   17    6    7 1     
   18    6   23 1     
   19    6   24 1     
   20    7    8 1     
   21    8    9 1     
   22    8   25 1     
   23    8   26 1     
   24    9   10 ar    
   25    9   14 ar    
   26   10   11 ar    
   27   10   27 1     
   28   11   12 ar    
   29   11   28 1     
   30   12   13 ar    
   31   12   29 1     
   32   13   14 ar    
   33   13   30 1     
   34   14   31 1     
@<TRIPOS>SUBSTRUCTURE
      1 ****           1
@<TRIPOS>SET
DONOR_HYDROGENS      STATIC     ATOMS    <user>   **** ""
2 32 33
ATOM$RED        STATIC     ATOMS    COLORGROUP SYSTEM
2 32 33
@<TRIPOS>COMMENT
> <Gold.Version>
2022.2.0

> <Gold.Id.Protein>
1qkm|1qkm_protein|mol2

> <Gold.Protein.RotatedTorsions>
[  496  491  490  487 ] final -174.36 input  -89.99 | X-H torsion

> <Gold.Protein.ActiveResidues>
 MET295  LEU298  THR299  LEU301  ALA302  GLU305  TRP335  MET336  LEU339  MET340 
 GLY342  LEU343  ARG346  PHE356  ILE373  ILE376  PHE377  LEU380  LYS471  GLY472 
 MET473  HIS475  LEU476  LEU477  ASN478  MET479  VAL484  VAL487 

> <Gold.Protein.RotatedAtoms>
   37.3122   33.5436   40.8243 H   0  0  0  0  0  0  0  0  0  0  0  0  # atno 496  bound_to 491 

> <Gold.Score>
     Score     S(PLP)   S(hbond)     S(cho)   S(metal)  DE(clash)   DE(tors)     intcor
     48.42     -49.12       0.00       0.00       0.00       0.00       0.35       0.00

> <Gold.PLP.Fitness>
48.4231

> <Gold.PLP.PLP>
-49.1156

> <Gold.PLP.part.hbond>
0.0000

> <Gold.PLP.part.metal>
0.0000

> <Gold.PLP.part.buried>
-3.4018

> <Gold.PLP.part.nonpolar>
-46.4527

> <Gold.PLP.part.repulsive>
0.0190

> <Gold.PLP.ligand.clash>
0.0000

> <Gold.PLP.ligand.torsion>
0.3483

> <Gold.PLP.Chemscore.Hbond>
0.0000

> <Gold.PLP.Chemscore.CHOScore>
0.0000

> <Gold.PLP.Chemscore.Metal>
0.0000

> <Gold.PLP.Chemscore.Internal.Correction>
0.0041

