#       Name:                EN300-253816_i003
#       Creating user name   aseyller
#       Creation time:       Sat Apr 22 07:17:39 2023


#       File generated by GOLD software.
#

@<TRIPOS>MOLECULE
EN300-253816_i003|amine_3|mol2|3927|dock4
    33    34     1
SMALL
USER_CHARGES


@<TRIPOS>ATOM
      1 C1          27.8788  37.5536  37.3565 C.3            1 <1>                0.0000
      2 C2          27.3775  37.4420  38.7977 C.3            1 <1>                0.0000
      3 C3          25.9735  36.8336  38.8043 C.3            1 <1>                0.0000
      4 N4          25.5006  36.7081  40.1893 N.4            1 <1>                1.0000
      5 C5          26.4037  35.8247  40.9387 C.3            1 <1>                0.0000
      6 C6          27.8113  36.4248  40.9498 C.3            1 <1>                0.0000
      7 N7          28.2856  36.5799  39.5674 N.3            1 <1>                0.0000
      8 C8          29.6585  37.1016  39.5373 C.3            1 <1>                0.0000
      9 C9          30.5592  36.1059  38.8530 C.ar           1 <1>                0.0000
     10 C10         31.5337  36.5441  37.9758 C.ar           1 <1>                0.0000
     11 C11         32.3599  35.6307  37.3481 C.ar           1 <1>                0.0000
     12 C12         32.2121  34.2792  37.5979 C.ar           1 <1>                0.0000
     13 C13         31.2383  33.8411  38.4759 C.ar           1 <1>                0.0000
     14 C14         30.4149  34.7548  39.1069 C.ar           1 <1>                0.0000
     15 H15         27.2040  38.1913  36.7854 H              1 <1>                0.0000
     16 H16         28.8789  37.9870  37.3521 H              1 <1>                0.0000
     17 H17         27.9106  36.5620  36.9051 H              1 <1>                0.0000
     18 H18         27.3464  38.4334  39.2497 H              1 <1>                0.0000
     19 H19         25.2953  37.4788  38.2459 H              1 <1>                0.0000
     20 H20         26.0024  35.8481  38.3395 H              1 <1>                0.0000
     21 H21         26.0444  35.7219  41.9626 H              1 <1>                0.0000
     22 H22         26.4304  34.8443  40.4630 H              1 <1>                0.0000
     23 H23         27.7874  37.3992  41.4377 H              1 <1>                0.0000
     24 H24         28.4850  35.7621  41.4931 H              1 <1>                0.0000
     25 H25         29.6771  38.0442  38.9903 H              1 <1>                0.0000
     26 H26         30.0071  37.2662  40.5567 H              1 <1>                0.0000
     27 H27         31.6491  37.6000  37.7805 H              1 <1>                0.0000
     28 H28         33.1206  35.9731  36.6622 H              1 <1>                0.0000
     29 H29         32.8571  33.5656  37.1071 H              1 <1>                0.0000
     30 H30         31.1226  32.7852  38.6710 H              1 <1>                0.0000
     31 H31         29.6542  34.4125  39.7928 H              1 <1>                0.0000
     32 H32         25.4850  37.6189  40.6231 H              1 <1>                0.0000
     33 H33         24.5699  36.3183  40.1927 H              1 <1>                0.0000
@<TRIPOS>BOND
    1    1    2 1     
    2    1   15 1     
    3    1   16 1     
    4    1   17 1     
    5    2    3 1     
    6    2    7 1     
    7    2   18 1     
    8    3    4 1     
    9    3   19 1     
   10    3   20 1     
   11    4    5 1     
   12    4   32 1     
   13    4   33 1     
   14    5    6 1     
   15    5   21 1     
   16    5   22 1     
   17    6    7 1     
   18    6   23 1     
   19    6   24 1     
   20    7    8 1     
   21    8    9 1     
   22    8   25 1     
   23    8   26 1     
   24    9   10 ar    
   25    9   14 ar    
   26   10   11 ar    
   27   10   27 1     
   28   11   12 ar    
   29   11   28 1     
   30   12   13 ar    
   31   12   29 1     
   32   13   14 ar    
   33   13   30 1     
   34   14   31 1     
@<TRIPOS>SUBSTRUCTURE
      1 ****           1
@<TRIPOS>SET
DONOR_HYDROGENS      STATIC     ATOMS    <user>   **** ""
2 32 33
ATOM$RED        STATIC     ATOMS    COLORGROUP SYSTEM
2 32 33
@<TRIPOS>COMMENT
> <Gold.Version>
2022.2.0

> <Gold.Id.Protein>
1qkm|1qkm_protein|mol2

> <Gold.Protein.RotatedTorsions>
[  496  491  490  487 ] final -179.94 input  -89.99 | X-H torsion

> <Gold.Protein.ActiveResidues>
 MET295  LEU298  THR299  LEU301  ALA302  GLU305  TRP335  MET336  LEU339  MET340 
 GLY342  LEU343  ARG346  PHE356  ILE373  ILE376  PHE377  LEU380  LYS471  GLY472 
 MET473  HIS475  LEU476  LEU477  ASN478  MET479  VAL484  VAL487 

> <Gold.Protein.RotatedAtoms>
   37.3178   33.4624   40.8670 H   0  0  0  0  0  0  0  0  0  0  0  0  # atno 496  bound_to 491 

> <Gold.Score>
     Score     S(PLP)   S(hbond)     S(cho)   S(metal)  DE(clash)   DE(tors)     intcor
     49.84     -49.94       0.64       0.00       0.00       0.00       1.01       0.00

> <Gold.PLP.Fitness>
49.8351

> <Gold.PLP.PLP>
-49.9415

> <Gold.PLP.part.hbond>
-0.7760

> <Gold.PLP.part.metal>
0.0000

> <Gold.PLP.part.buried>
-2.9073

> <Gold.PLP.part.nonpolar>
-47.0027

> <Gold.PLP.part.repulsive>
0.1273

> <Gold.PLP.ligand.clash>
0.0000

> <Gold.PLP.ligand.torsion>
1.0108

> <Gold.PLP.Chemscore.Hbond>
0.6370

> <Gold.PLP.Chemscore.CHOScore>
0.0000

> <Gold.PLP.Chemscore.Metal>
0.0000

> <Gold.Chemscore.Hbonds>
donor molecule, donor type, donor heavy atom, donor atom, acceptor molecule, acceptor atom, score
      L1  H     4    33       P1  1131  0.64

> <Gold.PLP.Chemscore.Internal.Correction>
0.0041

