#       Name:                EN300-253816_i003
#       Creating user name   aseyller
#       Creation time:       Sat Apr 22 07:17:42 2023


#       File generated by GOLD software.
#

@<TRIPOS>MOLECULE
EN300-253816_i003|amine_3|mol2|3927|dock11
    33    34     1
SMALL
USER_CHARGES


@<TRIPOS>ATOM
      1 C1          31.2722  33.1531  38.2964 C.3            1 <1>                0.0000
      2 C2          31.4712  34.6474  38.5574 C.3            1 <1>                0.0000
      3 C3          32.3052  35.2564  37.4282 C.3            1 <1>                0.0000
      4 N4          32.4791  36.6950  37.6686 N.4            1 <1>                1.0000
      5 C5          31.1652  37.3512  37.6947 C.3            1 <1>                0.0000
      6 C6          30.3217  36.7596  38.8261 C.3            1 <1>                0.0000
      7 N7          30.1626  35.3145  38.6108 N.3            1 <1>                0.0000
      8 C8          29.3097  34.7184  39.6477 C.3            1 <1>                0.0000
      9 C9          28.0603  35.5458  39.8072 C.ar           1 <1>                0.0000
     10 C10         27.6792  35.9874  41.0605 C.ar           1 <1>                0.0000
     11 C11         26.5331  36.7464  41.2068 C.ar           1 <1>                0.0000
     12 C12         25.7685  37.0642  40.1000 C.ar           1 <1>                0.0000
     13 C13         26.1502  36.6234  38.8466 C.ar           1 <1>                0.0000
     14 C14         27.2986  35.8681  38.6996 C.ar           1 <1>                0.0000
     15 H15         32.2429  32.6590  38.2549 H              1 <1>                0.0000
     16 H16         30.6781  32.7196  39.1010 H              1 <1>                0.0000
     17 H17         30.7538  33.0158  37.3475 H              1 <1>                0.0000
     18 H18         31.9888  34.7850  39.5068 H              1 <1>                0.0000
     19 H19         33.2815  34.7728  37.3961 H              1 <1>                0.0000
     20 H20         31.7939  35.1062  36.4773 H              1 <1>                0.0000
     21 H21         31.2963  38.4205  37.8601 H              1 <1>                0.0000
     22 H22         30.6597  37.1902  36.7424 H              1 <1>                0.0000
     23 H23         30.8203  36.9324  39.7800 H              1 <1>                0.0000
     24 H24         29.3413  37.2359  38.8363 H              1 <1>                0.0000
     25 H25         29.0387  33.7037  39.3562 H              1 <1>                0.0000
     26 H26         29.8514  34.6923  40.5931 H              1 <1>                0.0000
     27 H27         28.2765  35.7391  41.9253 H              1 <1>                0.0000
     28 H28         26.2349  37.0908  42.1861 H              1 <1>                0.0000
     29 H29         24.8728  37.6566  40.2143 H              1 <1>                0.0000
     30 H30         25.5528  36.8715  37.9818 H              1 <1>                0.0000
     31 H31         27.5968  35.5237  37.7205 H              1 <1>                0.0000
     32 H32         32.9419  36.8342  38.5544 H              1 <1>                0.0000
     33 H33         33.0394  37.0939  36.9303 H              1 <1>                0.0000
@<TRIPOS>BOND
    1    1    2 1     
    2    1   15 1     
    3    1   16 1     
    4    1   17 1     
    5    2    3 1     
    6    2    7 1     
    7    2   18 1     
    8    3    4 1     
    9    3   19 1     
   10    3   20 1     
   11    4    5 1     
   12    4   32 1     
   13    4   33 1     
   14    5    6 1     
   15    5   21 1     
   16    5   22 1     
   17    6    7 1     
   18    6   23 1     
   19    6   24 1     
   20    7    8 1     
   21    8    9 1     
   22    8   25 1     
   23    8   26 1     
   24    9   10 ar    
   25    9   14 ar    
   26   10   11 ar    
   27   10   27 1     
   28   11   12 ar    
   29   11   28 1     
   30   12   13 ar    
   31   12   29 1     
   32   13   14 ar    
   33   13   30 1     
   34   14   31 1     
@<TRIPOS>SUBSTRUCTURE
      1 ****           1
@<TRIPOS>SET
DONOR_HYDROGENS      STATIC     ATOMS    <user>   **** ""
2 32 33
ATOM$RED        STATIC     ATOMS    COLORGROUP SYSTEM
2 32 33
@<TRIPOS>COMMENT
> <Gold.Version>
2022.2.0

> <Gold.Id.Protein>
1qkm|1qkm_protein|mol2

> <Gold.Protein.RotatedTorsions>
[  496  491  490  487 ] final  -52.39 input  -89.99 | X-H torsion

> <Gold.Protein.ActiveResidues>
 MET295  LEU298  THR299  LEU301  ALA302  GLU305  TRP335  MET336  LEU339  MET340 
 GLY342  LEU343  ARG346  PHE356  ILE373  ILE376  PHE377  LEU380  LYS471  GLY472 
 MET473  HIS475  LEU476  LEU477  ASN478  MET479  VAL484  VAL487 

> <Gold.Protein.RotatedAtoms>
   36.4410   34.7133   41.5951 H   0  0  0  0  0  0  0  0  0  0  0  0  # atno 496  bound_to 491 

> <Gold.Score>
     Score     S(PLP)   S(hbond)     S(cho)   S(metal)  DE(clash)   DE(tors)     intcor
     50.25     -50.57       0.00       0.00       0.00       0.08       0.12       0.00

> <Gold.PLP.Fitness>
50.2495

> <Gold.PLP.PLP>
-50.5652

> <Gold.PLP.part.hbond>
0.0000

> <Gold.PLP.part.metal>
0.0000

> <Gold.PLP.part.buried>
-4.3785

> <Gold.PLP.part.nonpolar>
-47.4377

> <Gold.PLP.part.repulsive>
0.0806

> <Gold.PLP.ligand.clash>
0.0842

> <Gold.PLP.ligand.torsion>
0.1178

> <Gold.PLP.Chemscore.Hbond>
0.0000

> <Gold.PLP.Chemscore.CHOScore>
0.0000

> <Gold.PLP.Chemscore.Metal>
0.0000

> <Gold.PLP.Chemscore.Internal.Correction>
0.0041

