#       Name:                EN300-50872_i001
#       Creating user name   aseyller
#       Creation time:       Fri Apr 21 16:33:45 2023


#       File generated by GOLD software.
#

@<TRIPOS>MOLECULE
EN300-50872_i001|aminophenols|mol2|55|dock7
    18    18     1
SMALL
USER_CHARGES


@<TRIPOS>ATOM
      1 C1          26.1594  37.7783  37.8225 C.3            1 <1>                0.0000
      2 C2          26.9317  37.1696  38.9644 C.ar           1 <1>                0.0000
      3 C3          26.3209  36.9895  40.1916 C.ar           1 <1>                0.0000
      4 C4          27.0246  36.4319  41.2432 C.ar           1 <1>                0.0000
      5 C5          28.3450  36.0516  41.0691 C.ar           1 <1>                0.0000
      6 O6          29.0382  35.5026  42.1026 O.3            1 <1>                0.0000
      7 C7          28.9611  36.2322  39.8328 C.ar           1 <1>                0.0000
      8 N8          30.2952  35.8497  39.6511 N.pl3          1 <1>                0.0000
      9 C9          28.2473  36.7875  38.7808 C.ar           1 <1>                0.0000
     10 H10         26.2813  38.8614  37.8379 H              1 <1>                0.0000
     11 H11         26.5353  37.3838  36.8785 H              1 <1>                0.0000
     12 H12         25.1030  37.5300  37.9251 H              1 <1>                0.0000
     13 H13         25.2913  37.2855  40.3293 H              1 <1>                0.0000
     14 H14         26.5446  36.2932  42.2008 H              1 <1>                0.0000
     15 H15         28.7220  36.9290  37.8211 H              1 <1>                0.0000
     16 H16         29.9964  35.4942  41.9731 H              1 <1>                0.0000
     17 H17         30.7920  35.4583  40.3866 H              1 <1>                0.0000
     18 H18         30.7230  35.9762  38.7898 H              1 <1>                0.0000
@<TRIPOS>BOND
    1    1    2 1     
    2    1   10 1     
    3    1   11 1     
    4    1   12 1     
    5    2    3 ar    
    6    2    9 ar    
    7    3    4 ar    
    8    3   13 1     
    9    4    5 ar    
   10    4   14 1     
   11    5    6 1     
   12    5    7 ar    
   13    6   16 1     
   14    7    8 1     
   15    7    9 ar    
   16    8   17 1     
   17    8   18 1     
   18    9   15 1     
@<TRIPOS>SUBSTRUCTURE
      1 ****           1
@<TRIPOS>SET
DONOR_HYDROGENS      STATIC     ATOMS    <user>   **** ""
3 16 17 18
ATOM$RED        STATIC     ATOMS    COLORGROUP SYSTEM
3 16 17 18
@<TRIPOS>COMMENT
> <Gold.Version>
2022.2.0

> <Gold.Id.Protein>
1qkm|1qkm_protein|mol2

> <Gold.Protein.RotatedTorsions>
[  496  491  490  487 ] final   54.43 input  -89.99 | X-H torsion

> <Gold.Protein.ActiveResidues>
 MET295  LEU298  THR299  LEU301  ALA302  GLU305  TRP335  MET336  LEU339  MET340 
 GLY342  LEU343  ARG346  PHE356  ILE373  ILE376  PHE377  LEU380  LYS471  GLY472 
 MET473  HIS475  LEU476  LEU477  ASN478  MET479  VAL484  VAL487 

> <Gold.Protein.RotatedAtoms>
   36.5066   33.3929   42.3341 H   0  0  0  0  0  0  0  0  0  0  0  0  # atno 496  bound_to 491 

> <Gold.Score>
     Score     S(PLP)   S(hbond)     S(cho)   S(metal)  DE(clash)   DE(tors)     intcor
     37.88     -31.88       2.00       0.00       0.00       0.00       0.00       0.00

> <Gold.PLP.Fitness>
37.8837

> <Gold.PLP.PLP>
-31.8837

> <Gold.PLP.part.hbond>
-3.0000

> <Gold.PLP.part.metal>
0.0000

> <Gold.PLP.part.buried>
-3.5102

> <Gold.PLP.part.nonpolar>
-26.7375

> <Gold.PLP.part.repulsive>
0.0481

> <Gold.PLP.ligand.clash>
0.0000

> <Gold.PLP.ligand.torsion>
0.0000

> <Gold.PLP.Chemscore.Hbond>
2.0000

> <Gold.PLP.Chemscore.CHOScore>
0.0000

> <Gold.PLP.Chemscore.Metal>
0.0000

> <Gold.Chemscore.Hbonds>
donor molecule, donor type, donor heavy atom, donor atom, acceptor molecule, acceptor atom, score
      L1  H     6    16       P1   470  1.00
      L1  H     8    17       P1   470  1.00

> <Gold.PLP.Chemscore.Internal.Correction>
0.0000

