#       Name:                EN300-50872_i001
#       Creating user name   aseyller
#       Creation time:       Fri Apr 21 16:33:44 2023


#       File generated by GOLD software.
#

@<TRIPOS>MOLECULE
EN300-50872_i001|aminophenols|mol2|55|dock5
    18    18     1
SMALL
USER_CHARGES


@<TRIPOS>ATOM
      1 C1          25.3684  37.5684  39.6309 C.3            1 <1>                0.0000
      2 C2          26.7639  37.0001  39.6523 C.ar           1 <1>                0.0000
      3 C3          27.4514  36.8149  38.4672 C.ar           1 <1>                0.0000
      4 C4          28.7320  36.2934  38.4806 C.ar           1 <1>                0.0000
      5 C5          29.3299  35.9552  39.6832 C.ar           1 <1>                0.0000
      6 O6          30.5896  35.4425  39.6978 O.3            1 <1>                0.0000
      7 C7          28.6381  36.1418  40.8780 C.ar           1 <1>                0.0000
      8 N8          29.2373  35.8018  42.0963 N.pl3          1 <1>                0.0000
      9 C9          27.3556  36.6703  40.8572 C.ar           1 <1>                0.0000
     10 H10         24.6463  36.7558  39.5504 H              1 <1>                0.0000
     11 H11         25.1884  38.1245  40.5509 H              1 <1>                0.0000
     12 H12         25.2610  38.2359  38.7759 H              1 <1>                0.0000
     13 H13         26.9868  37.0781  37.5283 H              1 <1>                0.0000
     14 H14         29.2660  36.1494  37.5528 H              1 <1>                0.0000
     15 H15         26.8165  36.8162  41.7816 H              1 <1>                0.0000
     16 H16         30.8984  35.1826  40.5766 H              1 <1>                0.0000
     17 H17         30.1355  35.4356  42.1095 H              1 <1>                0.0000
     18 H18         28.7544  35.9321  42.9274 H              1 <1>                0.0000
@<TRIPOS>BOND
    1    1    2 1     
    2    1   10 1     
    3    1   11 1     
    4    1   12 1     
    5    2    3 ar    
    6    2    9 ar    
    7    3    4 ar    
    8    3   13 1     
    9    4    5 ar    
   10    4   14 1     
   11    5    6 1     
   12    5    7 ar    
   13    6   16 1     
   14    7    8 1     
   15    7    9 ar    
   16    8   17 1     
   17    8   18 1     
   18    9   15 1     
@<TRIPOS>SUBSTRUCTURE
      1 ****           1
@<TRIPOS>SET
DONOR_HYDROGENS      STATIC     ATOMS    <user>   **** ""
3 16 17 18
ATOM$RED        STATIC     ATOMS    COLORGROUP SYSTEM
3 16 17 18
@<TRIPOS>COMMENT
> <Gold.Version>
2022.2.0

> <Gold.Id.Protein>
1qkm|1qkm_protein|mol2

> <Gold.Protein.RotatedTorsions>
[  496  491  490  487 ] final  -88.46 input  -89.99 | X-H torsion

> <Gold.Protein.ActiveResidues>
 MET295  LEU298  THR299  LEU301  ALA302  GLU305  TRP335  MET336  LEU339  MET340 
 GLY342  LEU343  ARG346  PHE356  ILE373  ILE376  PHE377  LEU380  LYS471  GLY472 
 MET473  HIS475  LEU476  LEU477  ASN478  MET479  VAL484  VAL487 

> <Gold.Protein.RotatedAtoms>
   36.7431   34.6631   41.0978 H   0  0  0  0  0  0  0  0  0  0  0  0  # atno 496  bound_to 491 

> <Gold.Score>
     Score     S(PLP)   S(hbond)     S(cho)   S(metal)  DE(clash)   DE(tors)     intcor
     37.27     -31.27       2.00       0.00       0.00       0.00       0.00       0.00

> <Gold.PLP.Fitness>
37.2738

> <Gold.PLP.PLP>
-31.2738

> <Gold.PLP.part.hbond>
-2.0000

> <Gold.PLP.part.metal>
0.0000

> <Gold.PLP.part.buried>
-2.8571

> <Gold.PLP.part.nonpolar>
-26.0284

> <Gold.PLP.part.repulsive>
0.1527

> <Gold.PLP.ligand.clash>
0.0000

> <Gold.PLP.ligand.torsion>
0.0000

> <Gold.PLP.Chemscore.Hbond>
2.0000

> <Gold.PLP.Chemscore.CHOScore>
0.0000

> <Gold.PLP.Chemscore.Metal>
0.0000

> <Gold.Chemscore.Hbonds>
donor molecule, donor type, donor heavy atom, donor atom, acceptor molecule, acceptor atom, score
      L1  H     6    16       P1   470  1.00
      L1  H     8    17       P1   470  1.00

> <Gold.PLP.Chemscore.Internal.Correction>
0.0000

