#       Name:                EN300-50872_i001
#       Creating user name   aseyller
#       Creation time:       Fri Apr 21 16:33:46 2023


#       File generated by GOLD software.
#

@<TRIPOS>MOLECULE
EN300-50872_i001|aminophenols|mol2|55|dock11
    18    18     1
SMALL
USER_CHARGES


@<TRIPOS>ATOM
      1 C1          30.2982  35.3376  39.3860 C.3            1 <1>                0.0000
      2 C2          28.8919  35.8767  39.4375 C.ar           1 <1>                0.0000
      3 C3          28.4140  36.6568  38.4009 C.ar           1 <1>                0.0000
      4 C4          27.1247  37.1547  38.4428 C.ar           1 <1>                0.0000
      5 C5          26.3076  36.8722  39.5248 C.ar           1 <1>                0.0000
      6 O6          25.0390  37.3609  39.5670 O.3            1 <1>                0.0000
      7 C7          26.7881  36.0858  40.5696 C.ar           1 <1>                0.0000
      8 N8          25.9669  35.7971  41.6656 N.pl3          1 <1>                0.0000
      9 C9          28.0810  35.5855  40.5183 C.ar           1 <1>                0.0000
     10 H10         30.9781  36.0512  39.8514 H              1 <1>                0.0000
     11 H11         30.3437  34.3896  39.9222 H              1 <1>                0.0000
     12 H12         30.5898  35.1819  38.3474 H              1 <1>                0.0000
     13 H13         29.0497  36.8782  37.5562 H              1 <1>                0.0000
     14 H14         26.7547  37.7643  37.6316 H              1 <1>                0.0000
     15 H15         28.4566  34.9756  41.3266 H              1 <1>                0.0000
     16 H16         24.3853  36.7302  39.8988 H              1 <1>                0.0000
     17 H17         25.0618  36.1447  41.6985 H              1 <1>                0.0000
     18 H18         26.3028  35.2496  42.3925 H              1 <1>                0.0000
@<TRIPOS>BOND
    1    1    2 1     
    2    1   10 1     
    3    1   11 1     
    4    1   12 1     
    5    2    3 ar    
    6    2    9 ar    
    7    3    4 ar    
    8    3   13 1     
    9    4    5 ar    
   10    4   14 1     
   11    5    6 1     
   12    5    7 ar    
   13    6   16 1     
   14    7    8 1     
   15    7    9 ar    
   16    8   17 1     
   17    8   18 1     
   18    9   15 1     
@<TRIPOS>SUBSTRUCTURE
      1 ****           1
@<TRIPOS>SET
DONOR_HYDROGENS      STATIC     ATOMS    <user>   **** ""
3 16 17 18
ATOM$RED        STATIC     ATOMS    COLORGROUP SYSTEM
3 16 17 18
@<TRIPOS>COMMENT
> <Gold.Version>
2022.2.0

> <Gold.Id.Protein>
1qkm|1qkm_protein|mol2

> <Gold.Protein.RotatedTorsions>
[  496  491  490  487 ] final  140.59 input  -89.99 | X-H torsion

> <Gold.Protein.ActiveResidues>
 MET295  LEU298  THR299  LEU301  ALA302  GLU305  TRP335  MET336  LEU339  MET340 
 GLY342  LEU343  ARG346  PHE356  ILE373  ILE376  PHE377  LEU380  LYS471  GLY472 
 MET473  HIS475  LEU476  LEU477  ASN478  MET479  VAL484  VAL487 

> <Gold.Protein.RotatedAtoms>
   37.2176   33.0293   41.3229 H   0  0  0  0  0  0  0  0  0  0  0  0  # atno 496  bound_to 491 

> <Gold.Score>
     Score     S(PLP)   S(hbond)     S(cho)   S(metal)  DE(clash)   DE(tors)     intcor
     34.99     -29.04       1.98       0.00       0.00       0.00       0.00       0.00

> <Gold.PLP.Fitness>
34.9910

> <Gold.PLP.PLP>
-29.0390

> <Gold.PLP.part.hbond>
-1.7419

> <Gold.PLP.part.metal>
0.0000

> <Gold.PLP.part.buried>
-0.3906

> <Gold.PLP.part.nonpolar>
-27.4999

> <Gold.PLP.part.repulsive>
0.0618

> <Gold.PLP.ligand.clash>
0.0000

> <Gold.PLP.ligand.torsion>
0.0000

> <Gold.PLP.Chemscore.Hbond>
1.9840

> <Gold.PLP.Chemscore.CHOScore>
0.0000

> <Gold.PLP.Chemscore.Metal>
0.0000

> <Gold.Chemscore.Hbonds>
donor molecule, donor type, donor heavy atom, donor atom, acceptor molecule, acceptor atom, score
      L1  H     6    16       P1  1131  0.99
      L1  H     8    18       P1   582  0.99

> <Gold.PLP.Chemscore.Internal.Correction>
0.0000

