#       Name:                EN300-50872_i001
#       Creating user name   aseyller
#       Creation time:       Fri Apr 21 16:33:48 2023


#       File generated by GOLD software.
#

@<TRIPOS>MOLECULE
EN300-50872_i001|aminophenols|mol2|55|dock18
    18    18     1
SMALL
USER_CHARGES


@<TRIPOS>ATOM
      1 C1          30.3444  38.7192  36.9899 C.3            1 <1>                0.0000
      2 C2          29.3796  37.9651  37.8682 C.ar           1 <1>                0.0000
      3 C3          28.0263  37.9905  37.5865 C.ar           1 <1>                0.0000
      4 C4          27.1362  37.3008  38.3892 C.ar           1 <1>                0.0000
      5 C5          27.5992  36.5815  39.4784 C.ar           1 <1>                0.0000
      6 O6          26.7247  35.9024  40.2684 O.3            1 <1>                0.0000
      7 C7          28.9628  36.5550  39.7627 C.ar           1 <1>                0.0000
      8 N8          29.4363  35.8299  40.8622 N.pl3          1 <1>                0.0000
      9 C9          29.8504  37.2451  38.9501 C.ar           1 <1>                0.0000
     10 H10         30.4689  39.7321  37.3730 H              1 <1>                0.0000
     11 H11         31.3084  38.2104  36.9885 H              1 <1>                0.0000
     12 H12         29.9540  38.7607  35.9731 H              1 <1>                0.0000
     13 H13         27.6633  38.5508  36.7375 H              1 <1>                0.0000
     14 H14         26.0795  37.3232  38.1667 H              1 <1>                0.0000
     15 H15         30.9081  37.2267  39.1677 H              1 <1>                0.0000
     16 H16         26.4297  35.0604  39.8953 H              1 <1>                0.0000
     17 H17         28.8148  35.3449  41.4275 H              1 <1>                0.0000
     18 H18         30.3860  35.8124  41.0591 H              1 <1>                0.0000
@<TRIPOS>BOND
    1    1    2 1     
    2    1   10 1     
    3    1   11 1     
    4    1   12 1     
    5    2    3 ar    
    6    2    9 ar    
    7    3    4 ar    
    8    3   13 1     
    9    4    5 ar    
   10    4   14 1     
   11    5    6 1     
   12    5    7 ar    
   13    6   16 1     
   14    7    8 1     
   15    7    9 ar    
   16    8   17 1     
   17    8   18 1     
   18    9   15 1     
@<TRIPOS>SUBSTRUCTURE
      1 ****           1
@<TRIPOS>SET
DONOR_HYDROGENS      STATIC     ATOMS    <user>   **** ""
3 16 17 18
ATOM$RED        STATIC     ATOMS    COLORGROUP SYSTEM
3 16 17 18
@<TRIPOS>COMMENT
> <Gold.Version>
2022.2.0

> <Gold.Id.Protein>
1qkm|1qkm_protein|mol2

> <Gold.Protein.RotatedTorsions>
[  496  491  490  487 ] final -137.66 input  -89.99 | X-H torsion

> <Gold.Protein.ActiveResidues>
 MET295  LEU298  THR299  LEU301  ALA302  GLU305  TRP335  MET336  LEU339  MET340 
 GLY342  LEU343  ARG346  PHE356  ILE373  ILE376  PHE377  LEU380  LYS471  GLY472 
 MET473  HIS475  LEU476  LEU477  ASN478  MET479  VAL484  VAL487 

> <Gold.Protein.RotatedAtoms>
   37.1586   34.1092   40.7277 H   0  0  0  0  0  0  0  0  0  0  0  0  # atno 496  bound_to 491 

> <Gold.Score>
     Score     S(PLP)   S(hbond)     S(cho)   S(metal)  DE(clash)   DE(tors)     intcor
     31.76     -28.78       0.99       0.00       0.00       0.00       0.00       0.00

> <Gold.PLP.Fitness>
31.7603

> <Gold.PLP.PLP>
-28.7843

> <Gold.PLP.part.hbond>
-1.0000

> <Gold.PLP.part.metal>
0.0000

> <Gold.PLP.part.buried>
-2.8387

> <Gold.PLP.part.nonpolar>
-24.8309

> <Gold.PLP.part.repulsive>
0.0739

> <Gold.PLP.ligand.clash>
0.0000

> <Gold.PLP.ligand.torsion>
0.0000

> <Gold.PLP.Chemscore.Hbond>
0.9920

> <Gold.PLP.Chemscore.CHOScore>
0.0000

> <Gold.PLP.Chemscore.Metal>
0.0000

> <Gold.Chemscore.Hbonds>
donor molecule, donor type, donor heavy atom, donor atom, acceptor molecule, acceptor atom, score
      L1  H     8    18       P1   470  0.99

> <Gold.PLP.Chemscore.Internal.Correction>
0.0000

