#       Name:                EN300-50872_i001
#       Creating user name   aseyller
#       Creation time:       Fri Apr 21 16:33:46 2023


#       File generated by GOLD software.
#

@<TRIPOS>MOLECULE
EN300-50872_i001|aminophenols|mol2|55|dock9
    18    18     1
SMALL
USER_CHARGES


@<TRIPOS>ATOM
      1 C1          30.2193  37.9144  37.6497 C.3            1 <1>                0.0000
      2 C2          29.2034  37.3052  38.5812 C.ar           1 <1>                0.0000
      3 C3          27.8793  37.2149  38.1937 C.ar           1 <1>                0.0000
      4 C4          26.9425  36.6573  39.0444 C.ar           1 <1>                0.0000
      5 C5          27.3293  36.1870  40.2884 C.ar           1 <1>                0.0000
      6 O6          26.4089  35.6379  41.1259 O.3            1 <1>                0.0000
      7 C7          28.6634  36.2772  40.6795 C.ar           1 <1>                0.0000
      8 N8          29.0599  35.8035  41.9355 N.pl3          1 <1>                0.0000
      9 C9          29.5985  36.8331  39.8187 C.ar           1 <1>                0.0000
     10 H10         30.2820  38.9873  37.8319 H              1 <1>                0.0000
     11 H11         31.1935  37.4584  37.8262 H              1 <1>                0.0000
     12 H12         29.9173  37.7383  36.6173 H              1 <1>                0.0000
     13 H13         27.5758  37.5812  37.2241 H              1 <1>                0.0000
     14 H14         25.9088  36.5889  38.7388 H              1 <1>                0.0000
     15 H15         30.6335  36.9046  40.1189 H              1 <1>                0.0000
     16 H16         26.7688  35.3640  41.9806 H              1 <1>                0.0000
     17 H17         28.4055  35.4118  42.5348 H              1 <1>                0.0000
     18 H18         29.9891  35.8671  42.2065 H              1 <1>                0.0000
@<TRIPOS>BOND
    1    1    2 1     
    2    1   10 1     
    3    1   11 1     
    4    1   12 1     
    5    2    3 ar    
    6    2    9 ar    
    7    3    4 ar    
    8    3   13 1     
    9    4    5 ar    
   10    4   14 1     
   11    5    6 1     
   12    5    7 ar    
   13    6   16 1     
   14    7    8 1     
   15    7    9 ar    
   16    8   17 1     
   17    8   18 1     
   18    9   15 1     
@<TRIPOS>SUBSTRUCTURE
      1 ****           1
@<TRIPOS>SET
DONOR_HYDROGENS      STATIC     ATOMS    <user>   **** ""
3 16 17 18
ATOM$RED        STATIC     ATOMS    COLORGROUP SYSTEM
3 16 17 18
@<TRIPOS>COMMENT
> <Gold.Version>
2022.2.0

> <Gold.Id.Protein>
1qkm|1qkm_protein|mol2

> <Gold.Protein.RotatedTorsions>
[  496  491  490  487 ] final  -25.18 input  -89.99 | X-H torsion

> <Gold.Protein.ActiveResidues>
 MET295  LEU298  THR299  LEU301  ALA302  GLU305  TRP335  MET336  LEU339  MET340 
 GLY342  LEU343  ARG346  PHE356  ILE373  ILE376  PHE377  LEU380  LYS471  GLY472 
 MET473  HIS475  LEU476  LEU477  ASN478  MET479  VAL484  VAL487 

> <Gold.Protein.RotatedAtoms>
   36.2966   34.5249   41.9700 H   0  0  0  0  0  0  0  0  0  0  0  0  # atno 496  bound_to 491 

> <Gold.Score>
     Score     S(PLP)   S(hbond)     S(cho)   S(metal)  DE(clash)   DE(tors)     intcor
     36.13     -31.25       1.62       0.00       0.00       0.00       0.00       0.00

> <Gold.PLP.Fitness>
36.1287

> <Gold.PLP.PLP>
-31.2538

> <Gold.PLP.part.hbond>
-2.0000

> <Gold.PLP.part.metal>
0.0000

> <Gold.PLP.part.buried>
-3.5601

> <Gold.PLP.part.nonpolar>
-26.2382

> <Gold.PLP.part.repulsive>
0.0936

> <Gold.PLP.ligand.clash>
0.0000

> <Gold.PLP.ligand.torsion>
0.0000

> <Gold.PLP.Chemscore.Hbond>
1.6250

> <Gold.PLP.Chemscore.CHOScore>
0.0000

> <Gold.PLP.Chemscore.Metal>
0.0000

> <Gold.Chemscore.Hbonds>
donor molecule, donor type, donor heavy atom, donor atom, acceptor molecule, acceptor atom, score
      L1  H     6    16       P1   582  0.65
      L1  H     8    18       P1   470  0.98

> <Gold.PLP.Chemscore.Internal.Correction>
0.0000

