#       Name:                EN300-50872_i001
#       Creating user name   aseyller
#       Creation time:       Fri Apr 21 16:33:49 2023


#       File generated by GOLD software.
#

@<TRIPOS>MOLECULE
EN300-50872_i001|aminophenols|mol2|55|dock20
    18    18     1
SMALL
USER_CHARGES


@<TRIPOS>ATOM
      1 C1          27.0468  38.7036  37.2947 C.3            1 <1>                0.0000
      2 C2          27.2350  37.7584  38.4531 C.ar           1 <1>                0.0000
      3 C3          26.1405  37.3418  39.1880 C.ar           1 <1>                0.0000
      4 C4          26.3070  36.4749  40.2523 C.ar           1 <1>                0.0000
      5 C5          27.5725  36.0209  40.5848 C.ar           1 <1>                0.0000
      6 O6          27.7376  35.1678  41.6313 O.3            1 <1>                0.0000
      7 C7          28.6759  36.4398  39.8446 C.ar           1 <1>                0.0000
      8 N8          29.9571  35.9842  40.1761 N.pl3          1 <1>                0.0000
      9 C9          28.5006  37.3056  38.7749 C.ar           1 <1>                0.0000
     10 H10         27.1222  39.7318  37.6487 H              1 <1>                0.0000
     11 H11         27.8180  38.5196  36.5466 H              1 <1>                0.0000
     12 H12         26.0644  38.5433  36.8507 H              1 <1>                0.0000
     13 H13         25.1528  37.6947  38.9302 H              1 <1>                0.0000
     14 H14         25.4499  36.1519  40.8248 H              1 <1>                0.0000
     15 H15         29.3539  37.6322  38.1991 H              1 <1>                0.0000
     16 H16         26.9639  35.0975  42.2072 H              1 <1>                0.0000
     17 H17         30.0777  35.3761  40.9221 H              1 <1>                0.0000
     18 H18         30.7245  36.2768  39.6599 H              1 <1>                0.0000
@<TRIPOS>BOND
    1    1    2 1     
    2    1   10 1     
    3    1   11 1     
    4    1   12 1     
    5    2    3 ar    
    6    2    9 ar    
    7    3    4 ar    
    8    3   13 1     
    9    4    5 ar    
   10    4   14 1     
   11    5    6 1     
   12    5    7 ar    
   13    6   16 1     
   14    7    8 1     
   15    7    9 ar    
   16    8   17 1     
   17    8   18 1     
   18    9   15 1     
@<TRIPOS>SUBSTRUCTURE
      1 ****           1
@<TRIPOS>SET
DONOR_HYDROGENS      STATIC     ATOMS    <user>   **** ""
3 16 17 18
ATOM$RED        STATIC     ATOMS    COLORGROUP SYSTEM
3 16 17 18
@<TRIPOS>COMMENT
> <Gold.Version>
2022.2.0

> <Gold.Id.Protein>
1qkm|1qkm_protein|mol2

> <Gold.Protein.RotatedTorsions>
[  496  491  490  487 ] final  -31.71 input  -89.99 | X-H torsion

> <Gold.Protein.ActiveResidues>
 MET295  LEU298  THR299  LEU301  ALA302  GLU305  TRP335  MET336  LEU339  MET340 
 GLY342  LEU343  ARG346  PHE356  ILE373  ILE376  PHE377  LEU380  LYS471  GLY472 
 MET473  HIS475  LEU476  LEU477  ASN478  MET479  VAL484  VAL487 

> <Gold.Protein.RotatedAtoms>
   36.3222   34.5862   41.8855 H   0  0  0  0  0  0  0  0  0  0  0  0  # atno 496  bound_to 491 

> <Gold.Score>
     Score     S(PLP)   S(hbond)     S(cho)   S(metal)  DE(clash)   DE(tors)     intcor
     35.35     -31.03       1.44       0.00       0.00       0.00       0.00       0.00

> <Gold.PLP.Fitness>
35.3519

> <Gold.PLP.PLP>
-31.0259

> <Gold.PLP.part.hbond>
-2.0000

> <Gold.PLP.part.metal>
0.0000

> <Gold.PLP.part.buried>
-3.4988

> <Gold.PLP.part.nonpolar>
-25.2970

> <Gold.PLP.part.repulsive>
0.0601

> <Gold.PLP.ligand.clash>
0.0000

> <Gold.PLP.ligand.torsion>
0.0000

> <Gold.PLP.Chemscore.Hbond>
1.4420

> <Gold.PLP.Chemscore.CHOScore>
0.0000

> <Gold.PLP.Chemscore.Metal>
0.0000

> <Gold.Chemscore.Hbonds>
donor molecule, donor type, donor heavy atom, donor atom, acceptor molecule, acceptor atom, score
      L1  H     6    16       P1   582  1.00
      L1  H     8    17       P1   470  0.44

> <Gold.PLP.Chemscore.Internal.Correction>
0.0000

