#       Name:                EN300-50872_i001
#       Creating user name   aseyller
#       Creation time:       Fri Apr 21 16:33:43 2023


#       File generated by GOLD software.
#

@<TRIPOS>MOLECULE
EN300-50872_i001
    18    18     1
SMALL
USER_CHARGES


@<TRIPOS>ATOM
      1 C1           2.7117  -0.2646   0.0308 C.3            1 <1>                0.0000
      2 C2           1.2403   0.0607   0.0418 C.ar           1 <1>                0.0000
      3 C3           0.8257   1.3796   0.0506 C.ar           1 <1>                0.0000
      4 C4          -0.5231   1.6842   0.0612 C.ar           1 <1>                0.0000
      5 C5          -1.4632   0.6672   0.0626 C.ar           1 <1>                0.0000
      6 O6          -2.7902   0.9655   0.0726 O.3            1 <1>                0.0000
      7 C7          -1.0463  -0.6622   0.0533 C.ar           1 <1>                0.0000
      8 N8          -1.9919  -1.6941   0.0547 N.pl3          1 <1>                0.0000
      9 C9           0.3085  -0.9601   0.0375 C.ar           1 <1>                0.0000
     10 H10          3.0731  -0.3478   1.0558 H              1 <1>                0.0000
     11 H11          2.8710  -1.2097  -0.4884 H              1 <1>                0.0000
     12 H12          3.2553   0.5283  -0.4829 H              1 <1>                0.0000
     13 H13          1.5573   2.1742   0.0495 H              1 <1>                0.0000
     14 H14         -0.8436   2.7156   0.0687 H              1 <1>                0.0000
     15 H15          0.6350  -1.9895   0.0303 H              1 <1>                0.0000
     16 H16         -3.1797   1.0557  -0.8079 H              1 <1>                0.0000
     17 H17         -2.9389  -1.4841   0.0621 H              1 <1>                0.0000
     18 H18         -1.7002  -2.6192   0.0483 H              1 <1>                0.0000
@<TRIPOS>BOND
    1    1    2 1     
    2    1   10 1     
    3    1   11 1     
    4    1   12 1     
    5    2    3 ar    
    6    2    9 ar    
    7    3    4 ar    
    8    3   13 1     
    9    4    5 ar    
   10    4   14 1     
   11    5    6 1     
   12    5    7 ar    
   13    6   16 1     
   14    7    8 1     
   15    7    9 ar    
   16    8   17 1     
   17    8   18 1     
   18    9   15 1     
@<TRIPOS>SUBSTRUCTURE
      1 ****           1
@<TRIPOS>SET
DONOR_HYDROGENS      STATIC     ATOMS    <user>   **** ""
3 16 17 18
ATOM$RED        STATIC     ATOMS    COLORGROUP SYSTEM
3 16 17 18
