#       Name:                EN300-50872_i001
#       Creating user name   aseyller
#       Creation time:       Fri Apr 21 16:33:43 2023


#       File generated by GOLD software.
#

@<TRIPOS>MOLECULE
EN300-50872_i001|aminophenols|mol2|55|dock1
    18    18     1
SMALL
USER_CHARGES


@<TRIPOS>ATOM
      1 C1          28.6224  37.2875  37.6387 C.3            1 <1>                0.0000
      2 C2          27.7050  37.0552  38.8115 C.ar           1 <1>                0.0000
      3 C3          26.3994  37.5077  38.7659 C.ar           1 <1>                0.0000
      4 C4          25.5531  37.2978  39.8392 C.ar           1 <1>                0.0000
      5 C5          26.0121  36.6325  40.9638 C.ar           1 <1>                0.0000
      6 O6          25.1806  36.4251  42.0200 O.3            1 <1>                0.0000
      7 C7          27.3275  36.1758  41.0105 C.ar           1 <1>                0.0000
      8 N8          27.7968  35.5029  42.1444 N.pl3          1 <1>                0.0000
      9 C9          28.1693  36.3854  39.9279 C.ar           1 <1>                0.0000
     10 H10         29.1396  38.2387  37.7648 H              1 <1>                0.0000
     11 H11         29.3536  36.4809  37.5841 H              1 <1>                0.0000
     12 H12         28.0378  37.3109  36.7191 H              1 <1>                0.0000
     13 H13         26.0396  38.0267  37.8897 H              1 <1>                0.0000
     14 H14         24.5339  37.6531  39.8005 H              1 <1>                0.0000
     15 H15         29.1895  36.0327  39.9608 H              1 <1>                0.0000
     16 H16         25.4402  35.6850  42.5856 H              1 <1>                0.0000
     17 H17         27.2060  35.3539  42.8992 H              1 <1>                0.0000
     18 H18         28.7129  35.1856  42.1756 H              1 <1>                0.0000
@<TRIPOS>BOND
    1    1    2 1     
    2    1   10 1     
    3    1   11 1     
    4    1   12 1     
    5    2    3 ar    
    6    2    9 ar    
    7    3    4 ar    
    8    3   13 1     
    9    4    5 ar    
   10    4   14 1     
   11    5    6 1     
   12    5    7 ar    
   13    6   16 1     
   14    7    8 1     
   15    7    9 ar    
   16    8   17 1     
   17    8   18 1     
   18    9   15 1     
@<TRIPOS>SUBSTRUCTURE
      1 ****           1
@<TRIPOS>SET
DONOR_HYDROGENS      STATIC     ATOMS    <user>   **** ""
3 16 17 18
ATOM$RED        STATIC     ATOMS    COLORGROUP SYSTEM
3 16 17 18
@<TRIPOS>COMMENT
> <Gold.Version>
2022.2.0

> <Gold.Id.Protein>
1qkm|1qkm_protein|mol2

> <Gold.Protein.RotatedTorsions>
[  496  491  490  487 ] final  -27.73 input  -89.99 | X-H torsion

> <Gold.Protein.ActiveResidues>
 MET295  LEU298  THR299  LEU301  ALA302  GLU305  TRP335  MET336  LEU339  MET340 
 GLY342  LEU343  ARG346  PHE356  ILE373  ILE376  PHE377  LEU380  LYS471  GLY472 
 MET473  HIS475  LEU476  LEU477  ASN478  MET479  VAL484  VAL487 

> <Gold.Protein.RotatedAtoms>
   36.3059   34.5500   41.9375 H   0  0  0  0  0  0  0  0  0  0  0  0  # atno 496  bound_to 491 

> <Gold.Score>
     Score     S(PLP)   S(hbond)     S(cho)   S(metal)  DE(clash)   DE(tors)     intcor
     42.98     -35.11       2.62       0.00       0.00       0.00       0.00       0.00

> <Gold.PLP.Fitness>
42.9779

> <Gold.PLP.PLP>
-35.1059

> <Gold.PLP.part.hbond>
-3.0000

> <Gold.PLP.part.metal>
0.0000

> <Gold.PLP.part.buried>
-4.2336

> <Gold.PLP.part.nonpolar>
-28.6467

> <Gold.PLP.part.repulsive>
0.0744

> <Gold.PLP.ligand.clash>
0.0000

> <Gold.PLP.ligand.torsion>
0.0000

> <Gold.PLP.Chemscore.Hbond>
2.6240

> <Gold.PLP.Chemscore.CHOScore>
0.0000

> <Gold.PLP.Chemscore.Metal>
0.0000

> <Gold.Chemscore.Hbonds>
donor molecule, donor type, donor heavy atom, donor atom, acceptor molecule, acceptor atom, score
      L1  H     6    16       P1   582  1.00
      L1  H     8    17       P1   582  1.00
      P1  H  1258  1270       L1     6  0.62

> <Gold.PLP.Chemscore.Internal.Correction>
0.0000

