#       Name:                EN300-50872_i001
#       Creating user name   aseyller
#       Creation time:       Fri Apr 21 16:33:47 2023


#       File generated by GOLD software.
#

@<TRIPOS>MOLECULE
EN300-50872_i001|aminophenols|mol2|55|dock14
    18    18     1
SMALL
USER_CHARGES


@<TRIPOS>ATOM
      1 C1          25.6857  36.8424  41.2008 C.3            1 <1>                0.0000
      2 C2          26.7559  36.8458  40.1399 C.ar           1 <1>                0.0000
      3 C3          26.4687  37.3168  38.8722 C.ar           1 <1>                0.0000
      4 C4          27.4465  37.3220  37.8944 C.ar           1 <1>                0.0000
      5 C5          28.7180  36.8550  38.1835 C.ar           1 <1>                0.0000
      6 O6          29.6808  36.8600  37.2228 O.3            1 <1>                0.0000
      7 C7          29.0084  36.3807  39.4608 C.ar           1 <1>                0.0000
      8 N8          30.2916  35.9075  39.7586 N.pl3          1 <1>                0.0000
      9 C9          28.0238  36.3833  40.4381 C.ar           1 <1>                0.0000
     10 H10         25.1458  35.8960  41.1692 H              1 <1>                0.0000
     11 H11         26.1457  36.9656  42.1813 H              1 <1>                0.0000
     12 H12         24.9916  37.6629  41.0194 H              1 <1>                0.0000
     13 H13         25.4777  37.6814  38.6448 H              1 <1>                0.0000
     14 H14         27.2186  37.6900  36.9049 H              1 <1>                0.0000
     15 H15         28.2457  36.0162  41.4293 H              1 <1>                0.0000
     16 H16         30.0271  35.9829  37.0085 H              1 <1>                0.0000
     17 H17         30.9800  35.9096  39.0752 H              1 <1>                0.0000
     18 H18         30.4924  35.5774  40.6483 H              1 <1>                0.0000
@<TRIPOS>BOND
    1    1    2 1     
    2    1   10 1     
    3    1   11 1     
    4    1   12 1     
    5    2    3 ar    
    6    2    9 ar    
    7    3    4 ar    
    8    3   13 1     
    9    4    5 ar    
   10    4   14 1     
   11    5    6 1     
   12    5    7 ar    
   13    6   16 1     
   14    7    8 1     
   15    7    9 ar    
   16    8   17 1     
   17    8   18 1     
   18    9   15 1     
@<TRIPOS>SUBSTRUCTURE
      1 ****           1
@<TRIPOS>SET
DONOR_HYDROGENS      STATIC     ATOMS    <user>   **** ""
3 16 17 18
ATOM$RED        STATIC     ATOMS    COLORGROUP SYSTEM
3 16 17 18
@<TRIPOS>COMMENT
> <Gold.Version>
2022.2.0

> <Gold.Id.Protein>
1qkm|1qkm_protein|mol2

> <Gold.Protein.RotatedTorsions>
[  496  491  490  487 ] final  -17.63 input  -89.99 | X-H torsion

> <Gold.Protein.ActiveResidues>
 MET295  LEU298  THR299  LEU301  ALA302  GLU305  TRP335  MET336  LEU339  MET340 
 GLY342  LEU343  ARG346  PHE356  ILE373  ILE376  PHE377  LEU380  LYS471  GLY472 
 MET473  HIS475  LEU476  LEU477  ASN478  MET479  VAL484  VAL487 

> <Gold.Protein.RotatedAtoms>
   36.2750   34.4430   42.0608 H   0  0  0  0  0  0  0  0  0  0  0  0  # atno 496  bound_to 491 

> <Gold.Score>
     Score     S(PLP)   S(hbond)     S(cho)   S(metal)  DE(clash)   DE(tors)     intcor
     35.36     -32.36       1.00       0.00       0.00       0.00       0.00       0.00

> <Gold.PLP.Fitness>
35.3617

> <Gold.PLP.PLP>
-32.3617

> <Gold.PLP.part.hbond>
-1.0000

> <Gold.PLP.part.metal>
0.0000

> <Gold.PLP.part.buried>
-2.9171

> <Gold.PLP.part.nonpolar>
-29.0582

> <Gold.PLP.part.repulsive>
0.0531

> <Gold.PLP.ligand.clash>
0.0000

> <Gold.PLP.ligand.torsion>
0.0000

> <Gold.PLP.Chemscore.Hbond>
1.0000

> <Gold.PLP.Chemscore.CHOScore>
0.0000

> <Gold.PLP.Chemscore.Metal>
0.0000

> <Gold.Chemscore.Hbonds>
donor molecule, donor type, donor heavy atom, donor atom, acceptor molecule, acceptor atom, score
      L1  H     8    18       P1   470  1.00

> <Gold.PLP.Chemscore.Internal.Correction>
0.0000

