#       Name:                EN300-50872_i001
#       Creating user name   aseyller
#       Creation time:       Fri Apr 21 16:33:44 2023


#       File generated by GOLD software.
#

@<TRIPOS>MOLECULE
EN300-50872_i001|aminophenols|mol2|55|dock3
    18    18     1
SMALL
USER_CHARGES


@<TRIPOS>ATOM
      1 C1          29.0226  36.9916  37.2636 C.3            1 <1>                0.0000
      2 C2          28.3499  36.8373  38.6032 C.ar           1 <1>                0.0000
      3 C3          26.9789  36.9821  38.7072 C.ar           1 <1>                0.0000
      4 C4          26.3562  36.8422  39.9339 C.ar           1 <1>                0.0000
      5 C5          27.1057  36.5558  41.0628 C.ar           1 <1>                0.0000
      6 O6          26.4943  36.4176  42.2699 O.3            1 <1>                0.0000
      7 C7          28.4872  36.4094  40.9589 C.ar           1 <1>                0.0000
      8 N8          29.2496  36.1200  42.0964 N.pl3          1 <1>                0.0000
      9 C9          29.1045  36.5460  39.7241 C.ar           1 <1>                0.0000
     10 H10         29.3043  38.0342  37.1163 H              1 <1>                0.0000
     11 H11         29.9147  36.3661  37.2308 H              1 <1>                0.0000
     12 H12         28.3354  36.6859  36.4746 H              1 <1>                0.0000
     13 H13         26.3928  37.2054  37.8279 H              1 <1>                0.0000
     14 H14         25.2850  36.9566  40.0117 H              1 <1>                0.0000
     15 H15         30.1752  36.4331  39.6401 H              1 <1>                0.0000
     16 H16         26.5291  35.5199  42.6279 H              1 <1>                0.0000
     17 H17         28.8162  36.0212  42.9586 H              1 <1>                0.0000
     18 H18         30.2115  36.0184  42.0226 H              1 <1>                0.0000
@<TRIPOS>BOND
    1    1    2 1     
    2    1   10 1     
    3    1   11 1     
    4    1   12 1     
    5    2    3 ar    
    6    2    9 ar    
    7    3    4 ar    
    8    3   13 1     
    9    4    5 ar    
   10    4   14 1     
   11    5    6 1     
   12    5    7 ar    
   13    6   16 1     
   14    7    8 1     
   15    7    9 ar    
   16    8   17 1     
   17    8   18 1     
   18    9   15 1     
@<TRIPOS>SUBSTRUCTURE
      1 ****           1
@<TRIPOS>SET
DONOR_HYDROGENS      STATIC     ATOMS    <user>   **** ""
3 16 17 18
ATOM$RED        STATIC     ATOMS    COLORGROUP SYSTEM
3 16 17 18
@<TRIPOS>COMMENT
> <Gold.Version>
2022.2.0

> <Gold.Id.Protein>
1qkm|1qkm_protein|mol2

> <Gold.Protein.RotatedTorsions>
[  496  491  490  487 ] final  -25.15 input  -89.99 | X-H torsion

> <Gold.Protein.ActiveResidues>
 MET295  LEU298  THR299  LEU301  ALA302  GLU305  TRP335  MET336  LEU339  MET340 
 GLY342  LEU343  ARG346  PHE356  ILE373  ILE376  PHE377  LEU380  LYS471  GLY472 
 MET473  HIS475  LEU476  LEU477  ASN478  MET479  VAL484  VAL487 

> <Gold.Protein.RotatedAtoms>
   36.2965   34.5246   41.9704 H   0  0  0  0  0  0  0  0  0  0  0  0  # atno 496  bound_to 491 

> <Gold.Score>
     Score     S(PLP)   S(hbond)     S(cho)   S(metal)  DE(clash)   DE(tors)     intcor
     38.18     -32.40       1.93       0.00       0.00       0.00       0.00       0.00

> <Gold.PLP.Fitness>
38.1814

> <Gold.PLP.PLP>
-32.3974

> <Gold.PLP.part.hbond>
-1.6878

> <Gold.PLP.part.metal>
0.0000

> <Gold.PLP.part.buried>
-3.4702

> <Gold.PLP.part.nonpolar>
-27.4964

> <Gold.PLP.part.repulsive>
0.0941

> <Gold.PLP.ligand.clash>
0.0000

> <Gold.PLP.ligand.torsion>
0.0000

> <Gold.PLP.Chemscore.Hbond>
1.9280

> <Gold.PLP.Chemscore.CHOScore>
0.0000

> <Gold.PLP.Chemscore.Metal>
0.0000

> <Gold.Chemscore.Hbonds>
donor molecule, donor type, donor heavy atom, donor atom, acceptor molecule, acceptor atom, score
      L1  H     6    16       P1   582  0.93
      L1  H     8    18       P1   470  1.00

> <Gold.PLP.Chemscore.Internal.Correction>
0.0000

