#       Name:                EN300-50872_i001
#       Creating user name   aseyller
#       Creation time:       Fri Apr 21 16:33:48 2023


#       File generated by GOLD software.
#

@<TRIPOS>MOLECULE
EN300-50872_i001|aminophenols|mol2|55|dock17
    18    18     1
SMALL
USER_CHARGES


@<TRIPOS>ATOM
      1 C1          28.6122  37.6691  37.2319 C.3            1 <1>                0.0000
      2 C2          28.6003  37.0677  38.6136 C.ar           1 <1>                0.0000
      3 C3          29.7931  36.7927  39.2563 C.ar           1 <1>                0.0000
      4 C4          29.7883  36.2404  40.5240 C.ar           1 <1>                0.0000
      5 C5          28.5868  35.9613  41.1538 C.ar           1 <1>                0.0000
      6 O6          28.5808  35.4184  42.4009 O.3            1 <1>                0.0000
      7 C7          27.3844  36.2384  40.5070 C.ar           1 <1>                0.0000
      8 N8          26.1671  35.9584  41.1387 N.pl3          1 <1>                0.0000
      9 C9          27.3968  36.7973  39.2374 C.ar           1 <1>                0.0000
     10 H10         28.6190  36.8719  36.4886 H              1 <1>                0.0000
     11 H11         27.7232  38.2850  37.0960 H              1 <1>                0.0000
     12 H12         29.5031  38.2855  37.1116 H              1 <1>                0.0000
     13 H13         30.7310  37.0097  38.7669 H              1 <1>                0.0000
     14 H14         30.7219  36.0262  41.0231 H              1 <1>                0.0000
     15 H15         26.4665  37.0133  38.7332 H              1 <1>                0.0000
     16 H16         27.6958  35.2489  42.7519 H              1 <1>                0.0000
     17 H17         26.1600  35.5710  42.0279 H              1 <1>                0.0000
     18 H18         25.3307  36.1518  40.6871 H              1 <1>                0.0000
@<TRIPOS>BOND
    1    1    2 1     
    2    1   10 1     
    3    1   11 1     
    4    1   12 1     
    5    2    3 ar    
    6    2    9 ar    
    7    3    4 ar    
    8    3   13 1     
    9    4    5 ar    
   10    4   14 1     
   11    5    6 1     
   12    5    7 ar    
   13    6   16 1     
   14    7    8 1     
   15    7    9 ar    
   16    8   17 1     
   17    8   18 1     
   18    9   15 1     
@<TRIPOS>SUBSTRUCTURE
      1 ****           1
@<TRIPOS>SET
DONOR_HYDROGENS      STATIC     ATOMS    <user>   **** ""
3 16 17 18
ATOM$RED        STATIC     ATOMS    COLORGROUP SYSTEM
3 16 17 18
@<TRIPOS>COMMENT
> <Gold.Version>
2022.2.0

> <Gold.Id.Protein>
1qkm|1qkm_protein|mol2

> <Gold.Protein.RotatedTorsions>
[  496  491  490  487 ] final   18.39 input  -89.99 | X-H torsion

> <Gold.Protein.ActiveResidues>
 MET295  LEU298  THR299  LEU301  ALA302  GLU305  TRP335  MET336  LEU339  MET340 
 GLY342  LEU343  ARG346  PHE356  ILE373  ILE376  PHE377  LEU380  LYS471  GLY472 
 MET473  HIS475  LEU476  LEU477  ASN478  MET479  VAL484  VAL487 

> <Gold.Protein.RotatedAtoms>
   36.2967   33.9371   42.3502 H   0  0  0  0  0  0  0  0  0  0  0  0  # atno 496  bound_to 491 

> <Gold.Score>
     Score     S(PLP)   S(hbond)     S(cho)   S(metal)  DE(clash)   DE(tors)     intcor
     33.36     -27.39       1.99       0.00       0.00       0.00       0.00       0.00

> <Gold.PLP.Fitness>
33.3644

> <Gold.PLP.PLP>
-27.3907

> <Gold.PLP.part.hbond>
-3.2667

> <Gold.PLP.part.metal>
0.0000

> <Gold.PLP.part.buried>
2.0940

> <Gold.PLP.part.nonpolar>
-26.7657

> <Gold.PLP.part.repulsive>
0.0472

> <Gold.PLP.ligand.clash>
0.0000

> <Gold.PLP.ligand.torsion>
0.0000

> <Gold.PLP.Chemscore.Hbond>
1.9913

> <Gold.PLP.Chemscore.CHOScore>
0.0000

> <Gold.PLP.Chemscore.Metal>
0.0000

> <Gold.Chemscore.Hbonds>
donor molecule, donor type, donor heavy atom, donor atom, acceptor molecule, acceptor atom, score
      L1  H     6    16       P1   582  0.99
      L1  H     8    17       P1   582  1.00

> <Gold.PLP.Chemscore.Internal.Correction>
0.0000

