#       Name:                EN300-50872_i001
#       Creating user name   aseyller
#       Creation time:       Fri Apr 21 16:33:45 2023


#       File generated by GOLD software.
#

@<TRIPOS>MOLECULE
EN300-50872_i001|aminophenols|mol2|55|dock6
    18    18     1
SMALL
USER_CHARGES


@<TRIPOS>ATOM
      1 C1          25.9756  38.5091  37.5396 C.3            1 <1>                0.0000
      2 C2          26.3863  37.6005  38.6696 C.ar           1 <1>                0.0000
      3 C3          27.6447  37.0278  38.6714 C.ar           1 <1>                0.0000
      4 C4          28.0269  36.1930  39.7053 C.ar           1 <1>                0.0000
      5 C5          27.1488  35.9285  40.7432 C.ar           1 <1>                0.0000
      6 O6          27.5237  35.1078  41.7610 O.3            1 <1>                0.0000
      7 C7          25.8807  36.5056  40.7424 C.ar           1 <1>                0.0000
      8 N8          24.9892  36.2419  41.7887 N.pl3          1 <1>                0.0000
      9 C9          25.5060  37.3462  39.7044 C.ar           1 <1>                0.0000
     10 H10         25.5093  37.9194  36.7504 H              1 <1>                0.0000
     11 H11         25.2652  39.2491  37.9082 H              1 <1>                0.0000
     12 H12         26.8553  39.0160  37.1429 H              1 <1>                0.0000
     13 H13         28.3308  37.2329  37.8629 H              1 <1>                0.0000
     14 H14         29.0105  35.7467  39.7034 H              1 <1>                0.0000
     15 H15         24.5238  37.7951  39.7008 H              1 <1>                0.0000
     16 H16         26.7844  34.7583  42.2772 H              1 <1>                0.0000
     17 H17         25.2539  35.6567  42.5156 H              1 <1>                0.0000
     18 H18         24.1066  36.6442  41.7867 H              1 <1>                0.0000
@<TRIPOS>BOND
    1    1    2 1     
    2    1   10 1     
    3    1   11 1     
    4    1   12 1     
    5    2    3 ar    
    6    2    9 ar    
    7    3    4 ar    
    8    3   13 1     
    9    4    5 ar    
   10    4   14 1     
   11    5    6 1     
   12    5    7 ar    
   13    6   16 1     
   14    7    8 1     
   15    7    9 ar    
   16    8   17 1     
   17    8   18 1     
   18    9   15 1     
@<TRIPOS>SUBSTRUCTURE
      1 ****           1
@<TRIPOS>SET
DONOR_HYDROGENS      STATIC     ATOMS    <user>   **** ""
3 16 17 18
ATOM$RED        STATIC     ATOMS    COLORGROUP SYSTEM
3 16 17 18
@<TRIPOS>COMMENT
> <Gold.Version>
2022.2.0

> <Gold.Id.Protein>
1qkm|1qkm_protein|mol2

> <Gold.Protein.RotatedTorsions>
[  496  491  490  487 ] final  -70.32 input  -89.99 | X-H torsion

> <Gold.Protein.ActiveResidues>
 MET295  LEU298  THR299  LEU301  ALA302  GLU305  TRP335  MET336  LEU339  MET340 
 GLY342  LEU343  ARG346  PHE356  ILE373  ILE376  PHE377  LEU380  LYS471  GLY472 
 MET473  HIS475  LEU476  LEU477  ASN478  MET479  VAL484  VAL487 

> <Gold.Protein.RotatedAtoms>
   36.5810   34.7323   41.3373 H   0  0  0  0  0  0  0  0  0  0  0  0  # atno 496  bound_to 491 

> <Gold.Score>
     Score     S(PLP)   S(hbond)     S(cho)   S(metal)  DE(clash)   DE(tors)     intcor
     36.23     -30.30       1.98       0.00       0.00       0.00       0.00       0.00

> <Gold.PLP.Fitness>
36.2324

> <Gold.PLP.PLP>
-30.3044

> <Gold.PLP.part.hbond>
-2.4876

> <Gold.PLP.part.metal>
0.0000

> <Gold.PLP.part.buried>
-4.3200

> <Gold.PLP.part.nonpolar>
-25.0135

> <Gold.PLP.part.repulsive>
1.6102

> <Gold.PLP.ligand.clash>
0.0000

> <Gold.PLP.ligand.torsion>
0.0000

> <Gold.PLP.Chemscore.Hbond>
1.9760

> <Gold.PLP.Chemscore.CHOScore>
0.0000

> <Gold.PLP.Chemscore.Metal>
0.0000

> <Gold.Chemscore.Hbonds>
donor molecule, donor type, donor heavy atom, donor atom, acceptor molecule, acceptor atom, score
      L1  H     6    16       P1   582  0.98
      L1  H     8    17       P1   582  1.00

> <Gold.PLP.Chemscore.Internal.Correction>
0.0000

