#       Name:                EN300-50872_i001
#       Creating user name   aseyller
#       Creation time:       Fri Apr 21 16:33:47 2023


#       File generated by GOLD software.
#

@<TRIPOS>MOLECULE
EN300-50872_i001|aminophenols|mol2|55|dock13
    18    18     1
SMALL
USER_CHARGES


@<TRIPOS>ATOM
      1 C1          29.8779  35.5626  39.4940 C.3            1 <1>                0.0000
      2 C2          28.4869  35.8840  39.9764 C.ar           1 <1>                0.0000
      3 C3          28.0653  35.4349  41.2141 C.ar           1 <1>                0.0000
      4 C4          26.7899  35.7263  41.6619 C.ar           1 <1>                0.0000
      5 C5          25.9307  36.4702  40.8703 C.ar           1 <1>                0.0000
      6 O6          24.6760  36.7579  41.3097 O.3            1 <1>                0.0000
      7 C7          26.3548  36.9236  39.6231 C.ar           1 <1>                0.0000
      8 N8          25.4908  37.6757  38.8189 N.pl3          1 <1>                0.0000
      9 C9          27.6376  36.6317  39.1826 C.ar           1 <1>                0.0000
     10 H10         29.8636  34.6210  38.9450 H              1 <1>                0.0000
     11 H11         30.2285  36.3599  38.8386 H              1 <1>                0.0000
     12 H12         30.5478  35.4744  40.3493 H              1 <1>                0.0000
     13 H13         28.7339  34.8546  41.8328 H              1 <1>                0.0000
     14 H14         26.4635  35.3734  42.6291 H              1 <1>                0.0000
     15 H15         27.9695  36.9816  38.2163 H              1 <1>                0.0000
     16 H16         23.9735  36.4639  40.7138 H              1 <1>                0.0000
     17 H17         24.5954  37.8820  39.1297 H              1 <1>                0.0000
     18 H18         25.7874  37.9906  37.9507 H              1 <1>                0.0000
@<TRIPOS>BOND
    1    1    2 1     
    2    1   10 1     
    3    1   11 1     
    4    1   12 1     
    5    2    3 ar    
    6    2    9 ar    
    7    3    4 ar    
    8    3   13 1     
    9    4    5 ar    
   10    4   14 1     
   11    5    6 1     
   12    5    7 ar    
   13    6   16 1     
   14    7    8 1     
   15    7    9 ar    
   16    8   17 1     
   17    8   18 1     
   18    9   15 1     
@<TRIPOS>SUBSTRUCTURE
      1 ****           1
@<TRIPOS>SET
DONOR_HYDROGENS      STATIC     ATOMS    <user>   **** ""
3 16 17 18
ATOM$RED        STATIC     ATOMS    COLORGROUP SYSTEM
3 16 17 18
@<TRIPOS>COMMENT
> <Gold.Version>
2022.2.0

> <Gold.Id.Protein>
1qkm|1qkm_protein|mol2

> <Gold.Protein.RotatedTorsions>
[  496  491  490  487 ] final  -25.30 input  -89.99 | X-H torsion

> <Gold.Protein.ActiveResidues>
 MET295  LEU298  THR299  LEU301  ALA302  GLU305  TRP335  MET336  LEU339  MET340 
 GLY342  LEU343  ARG346  PHE356  ILE373  ILE376  PHE377  LEU380  LYS471  GLY472 
 MET473  HIS475  LEU476  LEU477  ASN478  MET479  VAL484  VAL487 

> <Gold.Protein.RotatedAtoms>
   36.2970   34.5262   41.9685 H   0  0  0  0  0  0  0  0  0  0  0  0  # atno 496  bound_to 491 

> <Gold.Score>
     Score     S(PLP)   S(hbond)     S(cho)   S(metal)  DE(clash)   DE(tors)     intcor
     34.13     -29.44       1.56       0.00       0.00       0.00       0.00       0.00

> <Gold.PLP.Fitness>
34.1250

> <Gold.PLP.PLP>
-29.4356

> <Gold.PLP.part.hbond>
-2.0000

> <Gold.PLP.part.metal>
0.0000

> <Gold.PLP.part.buried>
1.8873

> <Gold.PLP.part.nonpolar>
-30.4539

> <Gold.PLP.part.repulsive>
0.0662

> <Gold.PLP.ligand.clash>
0.0000

> <Gold.PLP.ligand.torsion>
0.0000

> <Gold.PLP.Chemscore.Hbond>
1.5632

> <Gold.PLP.Chemscore.CHOScore>
0.0000

> <Gold.PLP.Chemscore.Metal>
0.0000

> <Gold.Chemscore.Hbonds>
donor molecule, donor type, donor heavy atom, donor atom, acceptor molecule, acceptor atom, score
      L1  H     6    16       P1  1131  1.00
      P1  H  1258  1270       L1     6  0.56

> <Gold.PLP.Chemscore.Internal.Correction>
0.0000

