#       Name:                EN300-50872_i001
#       Creating user name   aseyller
#       Creation time:       Fri Apr 21 16:33:44 2023


#       File generated by GOLD software.
#

@<TRIPOS>MOLECULE
EN300-50872_i001|aminophenols|mol2|55|dock2
    18    18     1
SMALL
USER_CHARGES


@<TRIPOS>ATOM
      1 C1          29.9754  36.7682  38.1116 C.3            1 <1>                0.0000
      2 C2          28.7531  36.5693  38.9702 C.ar           1 <1>                0.0000
      3 C3          27.4956  36.7991  38.4437 C.ar           1 <1>                0.0000
      4 C4          26.3703  36.6187  39.2269 C.ar           1 <1>                0.0000
      5 C5          26.5008  36.2063  40.5427 C.ar           1 <1>                0.0000
      6 O6          25.3948  36.0281  41.3140 O.3            1 <1>                0.0000
      7 C7          27.7675  35.9740  41.0740 C.ar           1 <1>                0.0000
      8 N8          27.9053  35.5571  42.4029 N.pl3          1 <1>                0.0000
      9 C9          28.8916  36.1521  40.2807 C.ar           1 <1>                0.0000
     10 H10         30.3228  37.7970  38.2068 H              1 <1>                0.0000
     11 H11         30.7623  36.0875  38.4364 H              1 <1>                0.0000
     12 H12         29.7252  36.5641  37.0705 H              1 <1>                0.0000
     13 H13         27.3918  37.1208  37.4179 H              1 <1>                0.0000
     14 H14         25.3895  36.7998  38.8126 H              1 <1>                0.0000
     15 H15         29.8750  35.9730  40.6895 H              1 <1>                0.0000
     16 H16         25.4828  35.3241  41.9712 H              1 <1>                0.0000
     17 H17         27.1182  35.4296  42.9554 H              1 <1>                0.0000
     18 H18         28.7879  35.3959  42.7716 H              1 <1>                0.0000
@<TRIPOS>BOND
    1    1    2 1     
    2    1   10 1     
    3    1   11 1     
    4    1   12 1     
    5    2    3 ar    
    6    2    9 ar    
    7    3    4 ar    
    8    3   13 1     
    9    4    5 ar    
   10    4   14 1     
   11    5    6 1     
   12    5    7 ar    
   13    6   16 1     
   14    7    8 1     
   15    7    9 ar    
   16    8   17 1     
   17    8   18 1     
   18    9   15 1     
@<TRIPOS>SUBSTRUCTURE
      1 ****           1
@<TRIPOS>SET
DONOR_HYDROGENS      STATIC     ATOMS    <user>   **** ""
3 16 17 18
ATOM$RED        STATIC     ATOMS    COLORGROUP SYSTEM
3 16 17 18
@<TRIPOS>COMMENT
> <Gold.Version>
2022.2.0

> <Gold.Id.Protein>
1qkm|1qkm_protein|mol2

> <Gold.Protein.RotatedTorsions>
[  496  491  490  487 ] final  -52.34 input  -89.99 | X-H torsion

> <Gold.Protein.ActiveResidues>
 MET295  LEU298  THR299  LEU301  ALA302  GLU305  TRP335  MET336  LEU339  MET340 
 GLY342  LEU343  ARG346  PHE356  ILE373  ILE376  PHE377  LEU380  LYS471  GLY472 
 MET473  HIS475  LEU476  LEU477  ASN478  MET479  VAL484  VAL487 

> <Gold.Protein.RotatedAtoms>
   36.4406   34.7131   41.5958 H   0  0  0  0  0  0  0  0  0  0  0  0  # atno 496  bound_to 491 

> <Gold.Score>
     Score     S(PLP)   S(hbond)     S(cho)   S(metal)  DE(clash)   DE(tors)     intcor
     39.07     -33.14       1.98       0.00       0.00       0.00       0.00       0.00

> <Gold.PLP.Fitness>
39.0699

> <Gold.PLP.PLP>
-33.1449

> <Gold.PLP.part.hbond>
-2.1836

> <Gold.PLP.part.metal>
0.0000

> <Gold.PLP.part.buried>
-2.1660

> <Gold.PLP.part.nonpolar>
-28.4613

> <Gold.PLP.part.repulsive>
0.0813

> <Gold.PLP.ligand.clash>
0.0000

> <Gold.PLP.ligand.torsion>
0.0000

> <Gold.PLP.Chemscore.Hbond>
1.9750

> <Gold.PLP.Chemscore.CHOScore>
0.0000

> <Gold.PLP.Chemscore.Metal>
0.0000

> <Gold.Chemscore.Hbonds>
donor molecule, donor type, donor heavy atom, donor atom, acceptor molecule, acceptor atom, score
      L1  H     6    16       P1   582  0.98
      L1  H     8    17       P1   582  1.00

> <Gold.PLP.Chemscore.Internal.Correction>
0.0000

