#       Name:                EN300-50872_i001
#       Creating user name   aseyller
#       Creation time:       Fri Apr 21 16:33:48 2023


#       File generated by GOLD software.
#

@<TRIPOS>MOLECULE
EN300-50872_i001|aminophenols|mol2|55|dock15
    18    18     1
SMALL
USER_CHARGES


@<TRIPOS>ATOM
      1 C1          30.7553  36.0360  38.9918 C.3            1 <1>                0.0000
      2 C2          31.4338  36.2159  37.6583 C.ar           1 <1>                0.0000
      3 C3          32.5695  35.4868  37.3585 C.ar           1 <1>                0.0000
      4 C4          33.1967  35.6480  36.1367 C.ar           1 <1>                0.0000
      5 C5          32.6874  36.5414  35.2089 C.ar           1 <1>                0.0000
      6 O6          33.3031  36.7005  34.0066 O.3            1 <1>                0.0000
      7 C7          31.5427  37.2762  35.5100 C.ar           1 <1>                0.0000
      8 N8          31.0236  38.1804  34.5762 N.pl3          1 <1>                0.0000
      9 C9          30.9159  37.1054  36.7358 C.ar           1 <1>                0.0000
     10 H10         31.1757  36.7388  39.7112 H              1 <1>                0.0000
     11 H11         29.6867  36.2223  38.8839 H              1 <1>                0.0000
     12 H12         30.9126  35.0169  39.3450 H              1 <1>                0.0000
     13 H13         32.9681  34.7896  38.0807 H              1 <1>                0.0000
     14 H14         34.0841  35.0773  35.9059 H              1 <1>                0.0000
     15 H15         30.0284  37.6735  36.9723 H              1 <1>                0.0000
     16 H16         32.8283  36.3000  33.2654 H              1 <1>                0.0000
     17 H17         31.4609  38.2961  33.7182 H              1 <1>                0.0000
     18 H18         30.2266  38.6915  34.7873 H              1 <1>                0.0000
@<TRIPOS>BOND
    1    1    2 1     
    2    1   10 1     
    3    1   11 1     
    4    1   12 1     
    5    2    3 ar    
    6    2    9 ar    
    7    3    4 ar    
    8    3   13 1     
    9    4    5 ar    
   10    4   14 1     
   11    5    6 1     
   12    5    7 ar    
   13    6   16 1     
   14    7    8 1     
   15    7    9 ar    
   16    8   17 1     
   17    8   18 1     
   18    9   15 1     
@<TRIPOS>SUBSTRUCTURE
      1 ****           1
@<TRIPOS>SET
DONOR_HYDROGENS      STATIC     ATOMS    <user>   **** ""
3 16 17 18
ATOM$RED        STATIC     ATOMS    COLORGROUP SYSTEM
3 16 17 18
@<TRIPOS>COMMENT
> <Gold.Version>
2022.2.0

> <Gold.Id.Protein>
1qkm|1qkm_protein|mol2

> <Gold.Protein.RotatedTorsions>
[  496  491  490  487 ] final  -84.01 input  -89.99 | X-H torsion

> <Gold.Protein.ActiveResidues>
 MET295  LEU298  THR299  LEU301  ALA302  GLU305  TRP335  MET336  LEU339  MET340 
 GLY342  LEU343  ARG346  PHE356  ILE373  ILE376  PHE377  LEU380  LYS471  GLY472 
 MET473  HIS475  LEU476  LEU477  ASN478  MET479  VAL484  VAL487 

> <Gold.Protein.RotatedAtoms>
   36.7023   34.6881   41.1533 H   0  0  0  0  0  0  0  0  0  0  0  0  # atno 496  bound_to 491 

> <Gold.Score>
     Score     S(PLP)   S(hbond)     S(cho)   S(metal)  DE(clash)   DE(tors)     intcor
     32.92     -29.92       1.00       0.00       0.00       0.00       0.00       0.00

> <Gold.PLP.Fitness>
32.9190

> <Gold.PLP.PLP>
-29.9190

> <Gold.PLP.part.hbond>
-2.5989

> <Gold.PLP.part.metal>
0.0000

> <Gold.PLP.part.buried>
-3.5024

> <Gold.PLP.part.nonpolar>
-23.9908

> <Gold.PLP.part.repulsive>
0.0034

> <Gold.PLP.ligand.clash>
0.0000

> <Gold.PLP.ligand.torsion>
0.0000

> <Gold.PLP.Chemscore.Hbond>
1.0000

> <Gold.PLP.Chemscore.CHOScore>
0.0000

> <Gold.PLP.Chemscore.Metal>
0.0000

> <Gold.Chemscore.Hbonds>
donor molecule, donor type, donor heavy atom, donor atom, acceptor molecule, acceptor atom, score
      L1  H     6    16       P1  3187  1.00

> <Gold.PLP.Chemscore.Internal.Correction>
0.0000

