#       Name:                EN300-50872_i001
#       Creating user name   aseyller
#       Creation time:       Fri Apr 21 16:33:49 2023


#       File generated by GOLD software.
#

@<TRIPOS>MOLECULE
EN300-50872_i001|aminophenols|mol2|55|dock19
    18    18     1
SMALL
USER_CHARGES


@<TRIPOS>ATOM
      1 C1          33.5917  36.4079  35.2054 C.3            1 <1>                0.0000
      2 C2          32.7137  36.1656  36.4060 C.ar           1 <1>                0.0000
      3 C3          31.9763  37.2050  36.9420 C.ar           1 <1>                0.0000
      4 C4          31.1692  36.9888  38.0439 C.ar           1 <1>                0.0000
      5 C5          31.0974  35.7285  38.6136 C.ar           1 <1>                0.0000
      6 O6          30.3037  35.5145  39.6972 O.3            1 <1>                0.0000
      7 C7          31.8399  34.6804  38.0739 C.ar           1 <1>                0.0000
      8 N8          31.7712  33.4047  38.6456 N.pl3          1 <1>                0.0000
      9 C9          32.6434  34.9036  36.9653 C.ar           1 <1>                0.0000
     10 H10         34.5875  36.7023  35.5370 H              1 <1>                0.0000
     11 H11         33.6608  35.4939  34.6155 H              1 <1>                0.0000
     12 H12         33.1621  37.2025  34.5955 H              1 <1>                0.0000
     13 H13         32.0309  38.1885  36.4990 H              1 <1>                0.0000
     14 H14         30.5949  37.8032  38.4605 H              1 <1>                0.0000
     15 H15         33.2202  34.0933  36.5445 H              1 <1>                0.0000
     16 H16         30.7885  35.4329  40.5300 H              1 <1>                0.0000
     17 H17         31.2062  33.2494  39.4186 H              1 <1>                0.0000
     18 H18         32.2888  32.6760  38.2689 H              1 <1>                0.0000
@<TRIPOS>BOND
    1    1    2 1     
    2    1   10 1     
    3    1   11 1     
    4    1   12 1     
    5    2    3 ar    
    6    2    9 ar    
    7    3    4 ar    
    8    3   13 1     
    9    4    5 ar    
   10    4   14 1     
   11    5    6 1     
   12    5    7 ar    
   13    6   16 1     
   14    7    8 1     
   15    7    9 ar    
   16    8   17 1     
   17    8   18 1     
   18    9   15 1     
@<TRIPOS>SUBSTRUCTURE
      1 ****           1
@<TRIPOS>SET
DONOR_HYDROGENS      STATIC     ATOMS    <user>   **** ""
3 16 17 18
ATOM$RED        STATIC     ATOMS    COLORGROUP SYSTEM
3 16 17 18
@<TRIPOS>COMMENT
> <Gold.Version>
2022.2.0

> <Gold.Id.Protein>
1qkm|1qkm_protein|mol2

> <Gold.Protein.RotatedTorsions>
[  496  491  490  487 ] final  141.39 input  -89.99 | X-H torsion

> <Gold.Protein.ActiveResidues>
 MET295  LEU298  THR299  LEU301  ALA302  GLU305  TRP335  MET336  LEU339  MET340 
 GLY342  LEU343  ARG346  PHE356  ILE373  ILE376  PHE377  LEU380  LYS471  GLY472 
 MET473  HIS475  LEU476  LEU477  ASN478  MET479  VAL484  VAL487 

> <Gold.Protein.RotatedAtoms>
   37.2218   33.0348   41.3118 H   0  0  0  0  0  0  0  0  0  0  0  0  # atno 496  bound_to 491 

> <Gold.Score>
     Score     S(PLP)   S(hbond)     S(cho)   S(metal)  DE(clash)   DE(tors)     intcor
     33.48     -30.48       1.00       0.00       0.00       0.00       0.00       0.00

> <Gold.PLP.Fitness>
33.4773

> <Gold.PLP.PLP>
-30.4773

> <Gold.PLP.part.hbond>
-1.0000

> <Gold.PLP.part.metal>
0.0000

> <Gold.PLP.part.buried>
-3.4740

> <Gold.PLP.part.nonpolar>
-26.3464

> <Gold.PLP.part.repulsive>
0.0410

> <Gold.PLP.ligand.clash>
0.0000

> <Gold.PLP.ligand.torsion>
0.0000

> <Gold.PLP.Chemscore.Hbond>
1.0000

> <Gold.PLP.Chemscore.CHOScore>
0.0000

> <Gold.PLP.Chemscore.Metal>
0.0000

> <Gold.Chemscore.Hbonds>
donor molecule, donor type, donor heavy atom, donor atom, acceptor molecule, acceptor atom, score
      L1  H     6    16       P1   470  1.00

> <Gold.PLP.Chemscore.Internal.Correction>
0.0000

