#       Name:                EN300-50872_i001
#       Creating user name   aseyller
#       Creation time:       Fri Apr 21 16:33:45 2023


#       File generated by GOLD software.
#

@<TRIPOS>MOLECULE
EN300-50872_i001|aminophenols|mol2|55|dock8
    18    18     1
SMALL
USER_CHARGES


@<TRIPOS>ATOM
      1 C1          30.0337  36.6949  38.6761 C.3            1 <1>                0.0000
      2 C2          28.8239  36.6969  39.5746 C.ar           1 <1>                0.0000
      3 C3          28.9635  36.4096  40.9198 C.ar           1 <1>                0.0000
      4 C4          27.8570  36.4095  41.7490 C.ar           1 <1>                0.0000
      5 C5          26.6044  36.6979  41.2332 C.ar           1 <1>                0.0000
      6 O6          25.5153  36.6985  42.0479 O.3            1 <1>                0.0000
      7 C7          26.4629  36.9879  39.8779 C.ar           1 <1>                0.0000
      8 N8          25.1995  37.2801  39.3511 N.pl3          1 <1>                0.0000
      9 C9          27.5782  36.9913  39.0530 C.ar           1 <1>                0.0000
     10 H10         30.1770  35.6969  38.2618 H              1 <1>                0.0000
     11 H11         29.8847  37.4072  37.8645 H              1 <1>                0.0000
     12 H12         30.9145  36.9792  39.2519 H              1 <1>                0.0000
     13 H13         29.9395  36.1845  41.3239 H              1 <1>                0.0000
     14 H14         27.9695  36.1840  42.7993 H              1 <1>                0.0000
     15 H15         27.4720  37.2156  38.0019 H              1 <1>                0.0000
     16 H16         25.6152  36.1507  42.8385 H              1 <1>                0.0000
     17 H17         24.4210  37.2809  39.9298 H              1 <1>                0.0000
     18 H18         25.1024  37.4817  38.4073 H              1 <1>                0.0000
@<TRIPOS>BOND
    1    1    2 1     
    2    1   10 1     
    3    1   11 1     
    4    1   12 1     
    5    2    3 ar    
    6    2    9 ar    
    7    3    4 ar    
    8    3   13 1     
    9    4    5 ar    
   10    4   14 1     
   11    5    6 1     
   12    5    7 ar    
   13    6   16 1     
   14    7    8 1     
   15    7    9 ar    
   16    8   17 1     
   17    8   18 1     
   18    9   15 1     
@<TRIPOS>SUBSTRUCTURE
      1 ****           1
@<TRIPOS>SET
DONOR_HYDROGENS      STATIC     ATOMS    <user>   **** ""
3 16 17 18
ATOM$RED        STATIC     ATOMS    COLORGROUP SYSTEM
3 16 17 18
@<TRIPOS>COMMENT
> <Gold.Version>
2022.2.0

> <Gold.Id.Protein>
1qkm|1qkm_protein|mol2

> <Gold.Protein.RotatedTorsions>
[  496  491  490  487 ] final  102.29 input  -89.99 | X-H torsion

> <Gold.Protein.ActiveResidues>
 MET295  LEU298  THR299  LEU301  ALA302  GLU305  TRP335  MET336  LEU339  MET340 
 GLY342  LEU343  ARG346  PHE356  ILE373  ILE376  PHE377  LEU380  LYS471  GLY472 
 MET473  HIS475  LEU476  LEU477  ASN478  MET479  VAL484  VAL487 

> <Gold.Protein.RotatedAtoms>
   36.9322   32.9606   41.8677 H   0  0  0  0  0  0  0  0  0  0  0  0  # atno 496  bound_to 491 

> <Gold.Score>
     Score     S(PLP)   S(hbond)     S(cho)   S(metal)  DE(clash)   DE(tors)     intcor
     38.08     -34.70       1.12       0.00       0.00       0.00       0.00       0.00

> <Gold.PLP.Fitness>
38.0759

> <Gold.PLP.PLP>
-34.7046

> <Gold.PLP.part.hbond>
-3.0000

> <Gold.PLP.part.metal>
0.0000

> <Gold.PLP.part.buried>
-3.0815

> <Gold.PLP.part.nonpolar>
-29.2217

> <Gold.PLP.part.repulsive>
0.1170

> <Gold.PLP.ligand.clash>
0.0000

> <Gold.PLP.ligand.torsion>
0.0000

> <Gold.PLP.Chemscore.Hbond>
1.1238

> <Gold.PLP.Chemscore.CHOScore>
0.0000

> <Gold.PLP.Chemscore.Metal>
0.0000

> <Gold.Chemscore.Hbonds>
donor molecule, donor type, donor heavy atom, donor atom, acceptor molecule, acceptor atom, score
      L1  H     6    16       P1   582  1.00
      L1  H     8    17       P1  1131  0.12

> <Gold.PLP.Chemscore.Internal.Correction>
0.0000

