#       Name:                EN300-50872_i001
#       Creating user name   aseyller
#       Creation time:       Fri Apr 21 16:33:46 2023


#       File generated by GOLD software.
#

@<TRIPOS>MOLECULE
EN300-50872_i001|aminophenols|mol2|55|dock10
    18    18     1
SMALL
USER_CHARGES


@<TRIPOS>ATOM
      1 C1          33.2110  36.7089  34.9321 C.3            1 <1>                0.0000
      2 C2          32.4319  36.4656  36.1989 C.ar           1 <1>                0.0000
      3 C3          32.7907  35.4294  37.0409 C.ar           1 <1>                0.0000
      4 C4          32.0792  35.2011  38.2044 C.ar           1 <1>                0.0000
      5 C5          31.0041  36.0115  38.5296 C.ar           1 <1>                0.0000
      6 O6          30.3037  35.7881  39.6740 O.3            1 <1>                0.0000
      7 C7          30.6421  37.0561  37.6819 C.ar           1 <1>                0.0000
      8 N8          29.5566  37.8782  38.0055 N.pl3          1 <1>                0.0000
      9 C9          31.3637  37.2824  36.5189 C.ar           1 <1>                0.0000
     10 H10         32.7684  36.1355  34.1175 H              1 <1>                0.0000
     11 H11         33.1827  37.7705  34.6863 H              1 <1>                0.0000
     12 H12         34.2454  36.3967  35.0760 H              1 <1>                0.0000
     13 H13         33.6288  34.7964  36.7890 H              1 <1>                0.0000
     14 H14         32.3618  34.3903  38.8597 H              1 <1>                0.0000
     15 H15         31.0857  38.0913  35.8596 H              1 <1>                0.0000
     16 H16         30.8005  35.3103  40.3523 H              1 <1>                0.0000
     17 H17         29.0551  37.7210  38.8208 H              1 <1>                0.0000
     18 H18         29.3055  38.6051  37.4143 H              1 <1>                0.0000
@<TRIPOS>BOND
    1    1    2 1     
    2    1   10 1     
    3    1   11 1     
    4    1   12 1     
    5    2    3 ar    
    6    2    9 ar    
    7    3    4 ar    
    8    3   13 1     
    9    4    5 ar    
   10    4   14 1     
   11    5    6 1     
   12    5    7 ar    
   13    6   16 1     
   14    7    8 1     
   15    7    9 ar    
   16    8   17 1     
   17    8   18 1     
   18    9   15 1     
@<TRIPOS>SUBSTRUCTURE
      1 ****           1
@<TRIPOS>SET
DONOR_HYDROGENS      STATIC     ATOMS    <user>   **** ""
3 16 17 18
ATOM$RED        STATIC     ATOMS    COLORGROUP SYSTEM
3 16 17 18
@<TRIPOS>COMMENT
> <Gold.Version>
2022.2.0

> <Gold.Id.Protein>
1qkm|1qkm_protein|mol2

> <Gold.Protein.RotatedTorsions>
[  496  491  490  487 ] final -155.76 input  -89.99 | X-H torsion

> <Gold.Protein.ActiveResidues>
 MET295  LEU298  THR299  LEU301  ALA302  GLU305  TRP335  MET336  LEU339  MET340 
 GLY342  LEU343  ARG346  PHE356  ILE373  ILE376  PHE377  LEU380  LYS471  GLY472 
 MET473  HIS475  LEU476  LEU477  ASN478  MET479  VAL484  VAL487 

> <Gold.Protein.RotatedAtoms>
   37.2583   33.8297   40.7338 H   0  0  0  0  0  0  0  0  0  0  0  0  # atno 496  bound_to 491 

> <Gold.Score>
     Score     S(PLP)   S(hbond)     S(cho)   S(metal)  DE(clash)   DE(tors)     intcor
     32.94     -29.94       1.00       0.00       0.00       0.00       0.00       0.00

> <Gold.PLP.Fitness>
32.9412

> <Gold.PLP.PLP>
-29.9412

> <Gold.PLP.part.hbond>
-1.0000

> <Gold.PLP.part.metal>
0.0000

> <Gold.PLP.part.buried>
-2.9059

> <Gold.PLP.part.nonpolar>
-26.1721

> <Gold.PLP.part.repulsive>
0.0000

> <Gold.PLP.ligand.clash>
0.0000

> <Gold.PLP.ligand.torsion>
0.0000

> <Gold.PLP.Chemscore.Hbond>
1.0000

> <Gold.PLP.Chemscore.CHOScore>
0.0000

> <Gold.PLP.Chemscore.Metal>
0.0000

> <Gold.Chemscore.Hbonds>
donor molecule, donor type, donor heavy atom, donor atom, acceptor molecule, acceptor atom, score
      L1  H     6    16       P1   470  1.00

> <Gold.PLP.Chemscore.Internal.Correction>
0.0000

