#       Name:                EN300-50872_i001
#       Creating user name   aseyller
#       Creation time:       Fri Apr 21 16:33:48 2023


#       File generated by GOLD software.
#

@<TRIPOS>MOLECULE
EN300-50872_i001|aminophenols|mol2|55|dock16
    18    18     1
SMALL
USER_CHARGES


@<TRIPOS>ATOM
      1 C1          29.7507  37.1525  37.3212 C.3            1 <1>                0.0000
      2 C2          28.5437  37.0287  38.2150 C.ar           1 <1>                0.0000
      3 C3          27.3798  37.7049  37.8994 C.ar           1 <1>                0.0000
      4 C4          26.2692  37.5956  38.7160 C.ar           1 <1>                0.0000
      5 C5          26.3203  36.8069  39.8533 C.ar           1 <1>                0.0000
      6 O6          25.2284  36.6983  40.6571 O.3            1 <1>                0.0000
      7 C7          27.4926  36.1249  40.1718 C.ar           1 <1>                0.0000
      8 N8          27.5499  35.3264  41.3200 N.pl3          1 <1>                0.0000
      9 C9          28.6012  36.2352  39.3452 C.ar           1 <1>                0.0000
     10 H10         30.3635  37.9910  37.6522 H              1 <1>                0.0000
     11 H11         30.3352  36.2337  37.3707 H              1 <1>                0.0000
     12 H12         29.4267  37.3221  36.2944 H              1 <1>                0.0000
     13 H13         27.3381  38.3204  37.0129 H              1 <1>                0.0000
     14 H14         25.3617  38.1257  38.4669 H              1 <1>                0.0000
     15 H15         29.5115  35.7078  39.5893 H              1 <1>                0.0000
     16 H16         24.3952  36.5964  40.1770 H              1 <1>                0.0000
     17 H17         26.7728  35.2474  41.8951 H              1 <1>                0.0000
     18 H18         28.3668  34.8522  41.5406 H              1 <1>                0.0000
@<TRIPOS>BOND
    1    1    2 1     
    2    1   10 1     
    3    1   11 1     
    4    1   12 1     
    5    2    3 ar    
    6    2    9 ar    
    7    3    4 ar    
    8    3   13 1     
    9    4    5 ar    
   10    4   14 1     
   11    5    6 1     
   12    5    7 ar    
   13    6   16 1     
   14    7    8 1     
   15    7    9 ar    
   16    8   17 1     
   17    8   18 1     
   18    9   15 1     
@<TRIPOS>SUBSTRUCTURE
      1 ****           1
@<TRIPOS>SET
DONOR_HYDROGENS      STATIC     ATOMS    <user>   **** ""
3 16 17 18
ATOM$RED        STATIC     ATOMS    COLORGROUP SYSTEM
3 16 17 18
@<TRIPOS>COMMENT
> <Gold.Version>
2022.2.0

> <Gold.Id.Protein>
1qkm|1qkm_protein|mol2

> <Gold.Protein.RotatedTorsions>
[  496  491  490  487 ] final  105.74 input  -89.99 | X-H torsion

> <Gold.Protein.ActiveResidues>
 MET295  LEU298  THR299  LEU301  ALA302  GLU305  TRP335  MET336  LEU339  MET340 
 GLY342  LEU343  ARG346  PHE356  ILE373  ILE376  PHE377  LEU380  LYS471  GLY472 
 MET473  HIS475  LEU476  LEU477  ASN478  MET479  VAL484  VAL487 

> <Gold.Protein.RotatedAtoms>
   36.9626   32.9506   41.8209 H   0  0  0  0  0  0  0  0  0  0  0  0  # atno 496  bound_to 491 

> <Gold.Score>
     Score     S(PLP)   S(hbond)     S(cho)   S(metal)  DE(clash)   DE(tors)     intcor
     35.73     -30.68       1.68       0.00       0.00       0.00       0.00       0.00

> <Gold.PLP.Fitness>
35.7313

> <Gold.PLP.PLP>
-30.6784

> <Gold.PLP.part.hbond>
-2.0000

> <Gold.PLP.part.metal>
0.0000

> <Gold.PLP.part.buried>
-3.5776

> <Gold.PLP.part.nonpolar>
-26.0057

> <Gold.PLP.part.repulsive>
0.0502

> <Gold.PLP.ligand.clash>
0.0000

> <Gold.PLP.ligand.torsion>
0.0000

> <Gold.PLP.Chemscore.Hbond>
1.6843

> <Gold.PLP.Chemscore.CHOScore>
0.0000

> <Gold.PLP.Chemscore.Metal>
0.0000

> <Gold.Chemscore.Hbonds>
donor molecule, donor type, donor heavy atom, donor atom, acceptor molecule, acceptor atom, score
      L1  H     6    16       P1  1131  1.00
      L1  H     8    17       P1   582  0.68

> <Gold.PLP.Chemscore.Internal.Correction>
0.0000

