#       Name:                EN300-344045_i001
#       Creating user name   fsindt
#       Creation time:       Tue Feb 28 20:12:01 2023


#       File generated by GOLD software.
#

@<TRIPOS>MOLECULE
EN300-344045_i001|acide_2|mol2|6937|dock14
    30    31     1
SMALL
USER_CHARGES


@<TRIPOS>ATOM
      1 O1           0.7338 -11.7446   6.4617 O.co2          1 <1>               -1.0000
      2 C2           0.6467 -12.3072   7.5398 C.2            1 <1>                0.0000
      3 O3           0.3766 -13.4952   7.5875 O.co2          1 <1>                0.0000
      4 C4           0.8790 -11.5357   8.8133 C.3            1 <1>                0.0000
      5 C5          -0.2658 -11.8086   9.7910 C.3            1 <1>                0.0000
      6 C6          -0.3890 -10.6465  10.7981 C.3            1 <1>                0.0000
      7 C7          -1.4840  -9.7336  10.1926 C.3            1 <1>                0.0000
      8 C8          -2.4914 -10.7524   9.6041 C.3            1 <1>                0.0000
      9 C9          -1.6025 -11.8759   9.0319 C.3            1 <1>                0.0000
     10 C10         -0.0212 -13.1027  10.5235 C.ar           1 <1>                0.0000
     11 C11         -0.9073 -13.5239  11.4972 C.ar           1 <1>                0.0000
     12 C12         -0.6829 -14.7109  12.1691 C.ar           1 <1>                0.0000
     13 C13          0.4274 -15.4770  11.8669 C.ar           1 <1>                0.0000
     14 C14          1.3131 -15.0562  10.8926 C.ar           1 <1>                0.0000
     15 C15          1.0863 -13.8713  10.2176 C.ar           1 <1>                0.0000
     16 H16          1.8220 -11.8493   9.2613 H              1 <1>                0.0000
     17 H17          0.9197 -10.4695   8.5900 H              1 <1>                0.0000
     18 H18         -0.6996 -11.0190  11.7742 H              1 <1>                0.0000
     19 H19          0.5556 -10.1082  10.8771 H              1 <1>                0.0000
     20 H20         -1.9547  -9.1287  10.9677 H              1 <1>                0.0000
     21 H21         -1.0695  -9.1022   9.4067 H              1 <1>                0.0000
     22 H22         -3.1416 -11.1420  10.3874 H              1 <1>                0.0000
     23 H23         -3.0811 -10.2916   8.8116 H              1 <1>                0.0000
     24 H24         -1.4357 -11.7141   7.9669 H              1 <1>                0.0000
     25 H25         -2.0751 -12.8448   9.1932 H              1 <1>                0.0000
     26 H26         -1.7748 -12.9255  11.7333 H              1 <1>                0.0000
     27 H27         -1.3748 -15.0397  12.9304 H              1 <1>                0.0000
     28 H28          0.6031 -16.4040  12.3923 H              1 <1>                0.0000
     29 H29          2.1807 -15.6545  10.6566 H              1 <1>                0.0000
     30 H30          1.7783 -13.5425   9.4563 H              1 <1>                0.0000
@<TRIPOS>BOND
    1    1    2 ar    
    2    2    3 ar    
    3    2    4 1     
    4    4    5 1     
    5    4   16 1     
    6    4   17 1     
    7    5    6 1     
    8    5    9 1     
    9    5   10 1     
   10    6    7 1     
   11    6   18 1     
   12    6   19 1     
   13    7    8 1     
   14    7   20 1     
   15    7   21 1     
   16    8    9 1     
   17    8   22 1     
   18    8   23 1     
   19    9   24 1     
   20    9   25 1     
   21   10   11 ar    
   22   10   15 ar    
   23   11   12 ar    
   24   11   26 1     
   25   12   13 ar    
   26   12   27 1     
   27   13   14 ar    
   28   13   28 1     
   29   14   15 ar    
   30   14   29 1     
   31   15   30 1     
@<TRIPOS>SUBSTRUCTURE
      1 ****           1
@<TRIPOS>COMMENT
> <Gold.Version>
2022.2.0

> <Gold.Id.Protein>
3pbl|protein|mol2

> <Gold.Protein.RotatedTorsions>
[ 1303 1298 1297 1294 ] final  -78.98 input  179.99 | X-H torsion
[ 2461 2456 2455 2452 ] final  -41.81 input   30.03 | X-H torsion
[ 2515 2510 2509 2506 ] final  -62.25 input  -89.99 | X-H torsion
[ 3721 3712 3711 3710 ] final  155.41 input -179.91 | X-H torsion
[ 3841 3832 3831 3830 ] final  -12.07 input -179.91 | X-H torsion
[ 3767 3762 3761 3758 ] final  174.36 input  -89.99 | X-H torsion
[ 2472 2467 2466 2463 ] final -119.02 input  -89.97 | X-H torsion

> <Gold.Protein.ActiveResidues>
 VAL82   VAL86   LEU89   PHE106  VAL107  ASP110  VAL111  MET112  CYS114  THR115 
 CYS181  SER182  ILE183  PHE188  VAL189  ILE190  SER192  SER193  SER196  TRP342 
 PHE345  PHE346  HIS349  VAL350  TYR365  THR369  GLY372  TYR373 

> <Gold.Protein.RotatedAtoms>
    3.6914   -8.7360    3.8185 H   0  0  0  0  0  0  0  0  0  0  0  0  # atno 1303 bound_to 1298
    0.4983   -8.3481    7.2007 H   0  0  0  0  0  0  0  0  0  0  0  0  # atno 2461 bound_to 2456
   -4.4855   -5.4415    9.4324 H   0  0  0  0  0  0  0  0  0  0  0  0  # atno 2472 bound_to 2467
    2.8268   -8.5354    4.3935 H   0  0  0  0  0  0  0  0  0  0  0  0  # atno 2515 bound_to 2510
   -3.2338  -16.8073   13.2493 H   0  0  0  0  0  0  0  0  0  0  0  0  # atno 3721 bound_to 3712
   -4.0469  -22.6023   11.5279 H   0  0  0  0  0  0  0  0  0  0  0  0  # atno 3767 bound_to 3762
    1.6467  -20.3453    9.4876 H   0  0  0  0  0  0  0  0  0  0  0  0  # atno 3841 bound_to 3832
    4.9111   -9.1449    4.8241 LP  0  0  0  0  0  0  0  0  0  0  0  0  # atno 4297 bound_to 1298
    3.7598  -10.2406    4.4492 LP  0  0  0  0  0  0  0  0  0  0  0  0  # atno 4298 bound_to 1298
    1.1621   -9.2816    8.3649 LP  0  0  0  0  0  0  0  0  0  0  0  0  # atno 4299 bound_to 2456
    2.0772   -8.1784    7.5824 LP  0  0  0  0  0  0  0  0  0  0  0  0  # atno 4300 bound_to 2456
    2.3084   -9.0132    5.8661 LP  0  0  0  0  0  0  0  0  0  0  0  0  # atno 4301 bound_to 2510
    2.1613   -7.4504    5.4160 LP  0  0  0  0  0  0  0  0  0  0  0  0  # atno 4302 bound_to 2510
   -2.6301  -18.2110   13.7421 LP  0  0  0  0  0  0  0  0  0  0  0  0  # atno 4306 bound_to 3712
   -3.1641  -17.1110   14.8244 LP  0  0  0  0  0  0  0  0  0  0  0  0  # atno 4307 bound_to 3712
    2.3273  -19.7061    8.1822 LP  0  0  0  0  0  0  0  0  0  0  0  0  # atno 4314 bound_to 3832
    2.9998  -20.9973    8.9218 LP  0  0  0  0  0  0  0  0  0  0  0  0  # atno 4315 bound_to 3832
   -4.6477  -23.2514   10.1551 LP  0  0  0  0  0  0  0  0  0  0  0  0  # atno 4318 bound_to 3762
   -5.4325  -22.0213   10.8883 LP  0  0  0  0  0  0  0  0  0  0  0  0  # atno 4319 bound_to 3762
   -5.4244   -5.0804    8.1461 LP  0  0  0  0  0  0  0  0  0  0  0  0  # atno 4320 bound_to 2467
   -3.8070   -4.8717    8.0607 LP  0  0  0  0  0  0  0  0  0  0  0  0  # atno 4321 bound_to 2467

> <Gold.Score>
     Score     S(PLP)   S(hbond)     S(cho)   S(metal)  DE(clash)   DE(tors)     intcor
     43.73     -45.47       0.00       0.00       0.00       1.22       0.48       0.44

> <Gold.PLP.Fitness>
43.7307

> <Gold.PLP.PLP>
-45.4675

> <Gold.PLP.part.hbond>
0.0000

> <Gold.PLP.part.metal>
0.0000

> <Gold.PLP.part.buried>
-1.9286

> <Gold.PLP.part.nonpolar>
-44.4875

> <Gold.PLP.part.repulsive>
0.0432

> <Gold.PLP.ligand.clash>
1.2170

> <Gold.PLP.ligand.torsion>
0.4776

> <Gold.PLP.Chemscore.Hbond>
0.0000

> <Gold.PLP.Chemscore.CHOScore>
0.0000

> <Gold.PLP.Chemscore.Metal>
0.0000

> <Gold.PLP.Chemscore.Internal.Correction>
0.4354

