#       Name:                EN300-344045_i001
#       Creating user name   fsindt
#       Creation time:       Tue Feb 28 20:11:55 2023


#       File generated by GOLD software.
#

@<TRIPOS>MOLECULE
EN300-344045_i001|acide_2|mol2|6937|dock4
    30    31     1
SMALL
USER_CHARGES


@<TRIPOS>ATOM
      1 O1          -0.9415 -17.2386  12.5728 O.co2          1 <1>               -1.0000
      2 C2          -0.6967 -18.0795  11.7246 C.2            1 <1>                0.0000
      3 O3          -0.4217 -17.7362  10.5874 O.co2          1 <1>                0.0000
      4 C4          -0.7278 -19.5429  12.0833 C.3            1 <1>                0.0000
      5 C5           0.4242 -19.8581  13.0395 C.3            1 <1>                0.0000
      6 C6           1.7722 -19.5057  12.3772 C.3            1 <1>                0.0000
      7 C7           2.0894 -18.0813  12.8961 C.3            1 <1>                0.0000
      8 C8           1.5989 -18.1352  14.3643 C.3            1 <1>                0.0000
      9 C9           0.3140 -18.9868  14.3029 C.3            1 <1>                0.0000
     10 C10          0.3990 -21.3177  13.4139 C.ar           1 <1>                0.0000
     11 C11         -0.6944 -22.0969  13.0851 C.ar           1 <1>                0.0000
     12 C12         -0.7175 -23.4356  13.4286 C.ar           1 <1>                0.0000
     13 C13          0.3532 -23.9954  14.1005 C.ar           1 <1>                0.0000
     14 C14          1.4470 -23.2164  14.4285 C.ar           1 <1>                0.0000
     15 C15          1.4719 -21.8786  14.0811 C.ar           1 <1>                0.0000
     16 H16         -1.6760 -19.7785  12.5666 H              1 <1>                0.0000
     17 H17         -0.6228 -20.1411  11.1781 H              1 <1>                0.0000
     18 H18          2.5458 -20.2068  12.6902 H              1 <1>                0.0000
     19 H19          1.6748 -19.5033  11.2915 H              1 <1>                0.0000
     20 H20          3.1607 -17.8843  12.8537 H              1 <1>                0.0000
     21 H21          1.5351 -17.3319  12.3310 H              1 <1>                0.0000
     22 H22          2.3446 -18.6150  14.9983 H              1 <1>                0.0000
     23 H23          1.3751 -17.1327  14.7288 H              1 <1>                0.0000
     24 H24         -0.5601 -18.3393  14.2348 H              1 <1>                0.0000
     25 H25          0.2426 -19.6193  15.1876 H              1 <1>                0.0000
     26 H26         -1.5309 -21.6596  12.5603 H              1 <1>                0.0000
     27 H27         -1.5721 -24.0442  13.1725 H              1 <1>                0.0000
     28 H28          0.3349 -25.0411  14.3695 H              1 <1>                0.0000
     29 H29          2.2834 -23.6535  14.9537 H              1 <1>                0.0000
     30 H30          2.3266 -21.2699  14.3374 H              1 <1>                0.0000
@<TRIPOS>BOND
    1    1    2 ar    
    2    2    3 ar    
    3    2    4 1     
    4    4    5 1     
    5    4   16 1     
    6    4   17 1     
    7    5    6 1     
    8    5    9 1     
    9    5   10 1     
   10    6    7 1     
   11    6   18 1     
   12    6   19 1     
   13    7    8 1     
   14    7   20 1     
   15    7   21 1     
   16    8    9 1     
   17    8   22 1     
   18    8   23 1     
   19    9   24 1     
   20    9   25 1     
   21   10   11 ar    
   22   10   15 ar    
   23   11   12 ar    
   24   11   26 1     
   25   12   13 ar    
   26   12   27 1     
   27   13   14 ar    
   28   13   28 1     
   29   14   15 ar    
   30   14   29 1     
   31   15   30 1     
@<TRIPOS>SUBSTRUCTURE
      1 ****           1
@<TRIPOS>COMMENT
> <Gold.Version>
2022.2.0

> <Gold.Id.Protein>
3pbl|protein|mol2

> <Gold.Protein.RotatedTorsions>
[ 1303 1298 1297 1294 ] final  116.13 input  179.99 | X-H torsion
[ 2461 2456 2455 2452 ] final   -9.41 input   30.03 | X-H torsion
[ 2515 2510 2509 2506 ] final  -72.17 input  -89.99 | X-H torsion
[ 3721 3712 3711 3710 ] final   81.41 input -179.91 | X-H torsion
[ 3841 3832 3831 3830 ] final   68.02 input -179.91 | X-H torsion
[ 3767 3762 3761 3758 ] final -121.45 input  -89.99 | X-H torsion
[ 2472 2467 2466 2463 ] final   10.62 input  -89.97 | X-H torsion

> <Gold.Protein.ActiveResidues>
 VAL82   VAL86   LEU89   PHE106  VAL107  ASP110  VAL111  MET112  CYS114  THR115 
 CYS181  SER182  ILE183  PHE188  VAL189  ILE190  SER192  SER193  SER196  TRP342 
 PHE345  PHE346  HIS349  VAL350  TYR365  THR369  GLY372  TYR373 

> <Gold.Protein.RotatedAtoms>
    4.7080   -9.8245    4.9473 H   0  0  0  0  0  0  0  0  0  0  0  0  # atno 1303 bound_to 1298
    0.8979   -8.0463    7.0388 H   0  0  0  0  0  0  0  0  0  0  0  0  # atno 2461 bound_to 2456
   -3.9086   -4.8412    7.9429 H   0  0  0  0  0  0  0  0  0  0  0  0  # atno 2472 bound_to 2467
    2.8356   -8.6878    4.4507 H   0  0  0  0  0  0  0  0  0  0  0  0  # atno 2515 bound_to 2510
   -2.7228  -17.7121   13.1649 H   0  0  0  0  0  0  0  0  0  0  0  0  # atno 3721 bound_to 3712
   -4.8285  -21.9755   11.5301 H   0  0  0  0  0  0  0  0  0  0  0  0  # atno 3767 bound_to 3762
    2.5779  -20.9559    9.4577 H   0  0  0  0  0  0  0  0  0  0  0  0  # atno 3841 bound_to 3832
    3.3680   -9.8211    4.0142 LP  0  0  0  0  0  0  0  0  0  0  0  0  # atno 4297 bound_to 1298
    4.2859   -8.4755    4.1299 LP  0  0  0  0  0  0  0  0  0  0  0  0  # atno 4298 bound_to 1298
    0.6867   -9.2284    8.1458 LP  0  0  0  0  0  0  0  0  0  0  0  0  # atno 4299 bound_to 2456
    2.1531   -8.5333    7.9633 LP  0  0  0  0  0  0  0  0  0  0  0  0  # atno 4300 bound_to 2456
    2.2440   -8.8951    5.9583 LP  0  0  0  0  0  0  0  0  0  0  0  0  # atno 4301 bound_to 2510
    2.2169   -7.4161    5.2667 LP  0  0  0  0  0  0  0  0  0  0  0  0  # atno 4302 bound_to 2510
   -2.8199  -17.7205   14.7675 LP  0  0  0  0  0  0  0  0  0  0  0  0  # atno 4306 bound_to 3712
   -3.5642  -16.5568   13.8965 LP  0  0  0  0  0  0  0  0  0  0  0  0  # atno 4307 bound_to 3712
    1.4170  -19.9594    8.9727 LP  0  0  0  0  0  0  0  0  0  0  0  0  # atno 4314 bound_to 3832
    2.8345  -20.0387    8.1659 LP  0  0  0  0  0  0  0  0  0  0  0  0  # atno 4315 bound_to 3832
   -3.9626  -23.2001   10.8841 LP  0  0  0  0  0  0  0  0  0  0  0  0  # atno 4318 bound_to 3762
   -5.3363  -22.6992   10.1571 LP  0  0  0  0  0  0  0  0  0  0  0  0  # atno 4319 bound_to 3762
   -4.3303   -5.4162    9.4118 LP  0  0  0  0  0  0  0  0  0  0  0  0  # atno 4320 bound_to 2467
   -5.4779   -5.1361    8.2843 LP  0  0  0  0  0  0  0  0  0  0  0  0  # atno 4321 bound_to 2467

> <Gold.Score>
     Score     S(PLP)   S(hbond)     S(cho)   S(metal)  DE(clash)   DE(tors)     intcor
     39.93     -38.13       0.78       0.00       0.00       0.23       0.39       0.46

> <Gold.PLP.Fitness>
39.9275

> <Gold.PLP.PLP>
-38.1313

> <Gold.PLP.part.hbond>
-1.0000

> <Gold.PLP.part.metal>
0.0000

> <Gold.PLP.part.buried>
-4.3683

> <Gold.PLP.part.nonpolar>
-33.4568

> <Gold.PLP.part.repulsive>
0.1570

> <Gold.PLP.ligand.clash>
0.2294

> <Gold.PLP.ligand.torsion>
0.3948

> <Gold.PLP.Chemscore.Hbond>
0.7840

> <Gold.PLP.Chemscore.CHOScore>
0.0000

> <Gold.PLP.Chemscore.Metal>
0.0000

> <Gold.Chemscore.Hbonds>
donor molecule, donor type, donor heavy atom, donor atom, acceptor molecule, acceptor atom, score
      P1  H  3712  3721       L1     1  0.78

> <Gold.PLP.Chemscore.Internal.Correction>
0.4633

