#       Name:                EN300-344045_i001
#       Creating user name   fsindt
#       Creation time:       Tue Feb 28 20:11:57 2023


#       File generated by GOLD software.
#

@<TRIPOS>MOLECULE
EN300-344045_i001|acide_2|mol2|6937|dock8
    30    31     1
SMALL
USER_CHARGES


@<TRIPOS>ATOM
      1 O1           0.1977 -15.0634  12.4746 O.co2          1 <1>               -1.0000
      2 C2          -0.1011 -15.8922  13.3172 C.2            1 <1>                0.0000
      3 O3          -0.0626 -15.6000  14.5004 O.co2          1 <1>                0.0000
      4 C4          -0.5242 -17.2760  12.8963 C.3            1 <1>                0.0000
      5 C5           0.5490 -18.2852  13.3093 C.3            1 <1>                0.0000
      6 C6           1.8848 -17.9504  12.6139 C.3            1 <1>                0.0000
      7 C7           2.6573 -17.1093  13.6602 C.3            1 <1>                0.0000
      8 C8           2.2891 -17.8025  14.9954 C.3            1 <1>                0.0000
      9 C9           0.8061 -18.1912  14.8234 C.3            1 <1>                0.0000
     10 C10          0.1126 -19.6807  12.9444 C.ar           1 <1>                0.0000
     11 C11         -1.0025 -20.2352  13.5441 C.ar           1 <1>                0.0000
     12 C12         -1.4027 -21.5153  13.2094 C.ar           1 <1>                0.0000
     13 C13         -0.6881 -22.2407  12.2744 C.ar           1 <1>                0.0000
     14 C14          0.4266 -21.6858  11.6741 C.ar           1 <1>                0.0000
     15 C15          0.8243 -20.4040  12.0056 C.ar           1 <1>                0.0000
     16 H16         -1.4675 -17.5304  13.3797 H              1 <1>                0.0000
     17 H17         -0.6516 -17.3036  11.8140 H              1 <1>                0.0000
     18 H18          2.4319 -18.8634  12.3791 H              1 <1>                0.0000
     19 H19          1.7087 -17.3669  11.7102 H              1 <1>                0.0000
     20 H20          3.7313 -17.1616  13.4811 H              1 <1>                0.0000
     21 H21          2.3136 -16.0749  13.6543 H              1 <1>                0.0000
     22 H22          2.9015 -18.6917  15.1453 H              1 <1>                0.0000
     23 H23          2.4080 -17.1112  15.8297 H              1 <1>                0.0000
     24 H24          0.1663 -17.4266  15.2641 H              1 <1>                0.0000
     25 H25          0.6156 -19.1552  15.2951 H              1 <1>                0.0000
     26 H26         -1.5609 -19.6686  14.2745 H              1 <1>                0.0000
     27 H27         -2.2735 -21.9489  13.6785 H              1 <1>                0.0000
     28 H28         -1.0003 -23.2410  12.0135 H              1 <1>                0.0000
     29 H29          0.9852 -22.2526  10.9438 H              1 <1>                0.0000
     30 H30          1.6951 -19.9705  11.5365 H              1 <1>                0.0000
@<TRIPOS>BOND
    1    1    2 ar    
    2    2    3 ar    
    3    2    4 1     
    4    4    5 1     
    5    4   16 1     
    6    4   17 1     
    7    5    6 1     
    8    5    9 1     
    9    5   10 1     
   10    6    7 1     
   11    6   18 1     
   12    6   19 1     
   13    7    8 1     
   14    7   20 1     
   15    7   21 1     
   16    8    9 1     
   17    8   22 1     
   18    8   23 1     
   19    9   24 1     
   20    9   25 1     
   21   10   11 ar    
   22   10   15 ar    
   23   11   12 ar    
   24   11   26 1     
   25   12   13 ar    
   26   12   27 1     
   27   13   14 ar    
   28   13   28 1     
   29   14   15 ar    
   30   14   29 1     
   31   15   30 1     
@<TRIPOS>SUBSTRUCTURE
      1 ****           1
@<TRIPOS>COMMENT
> <Gold.Version>
2022.2.0

> <Gold.Id.Protein>
3pbl|protein|mol2

> <Gold.Protein.RotatedTorsions>
[ 1303 1298 1297 1294 ] final   75.29 input  179.99 | X-H torsion
[ 2461 2456 2455 2452 ] final  -64.70 input   30.03 | X-H torsion
[ 2515 2510 2509 2506 ] final   97.25 input  -89.99 | X-H torsion
[ 3721 3712 3711 3710 ] final   73.15 input -179.91 | X-H torsion
[ 3841 3832 3831 3830 ] final -169.87 input -179.91 | X-H torsion
[ 3767 3762 3761 3758 ] final -163.31 input  -89.99 | X-H torsion
[ 2472 2467 2466 2463 ] final   42.60 input  -89.97 | X-H torsion

> <Gold.Protein.ActiveResidues>
 VAL82   VAL86   LEU89   PHE106  VAL107  ASP110  VAL111  MET112  CYS114  THR115 
 CYS181  SER182  ILE183  PHE188  VAL189  ILE190  SER192  SER193  SER196  TRP342 
 PHE345  PHE346  HIS349  VAL350  TYR365  THR369  GLY372  TYR373 

> <Gold.Protein.RotatedAtoms>
    4.2186  -10.2227    4.7617 H   0  0  0  0  0  0  0  0  0  0  0  0  # atno 1303 bound_to 1298
    0.3516   -8.6160    7.4171 H   0  0  0  0  0  0  0  0  0  0  0  0  # atno 2461 bound_to 2456
   -4.3601   -4.7996    7.6897 H   0  0  0  0  0  0  0  0  0  0  0  0  # atno 2472 bound_to 2467
    2.0331   -7.8275    5.9131 H   0  0  0  0  0  0  0  0  0  0  0  0  # atno 2515 bound_to 2510
   -2.6680  -17.7964   13.2389 H   0  0  0  0  0  0  0  0  0  0  0  0  # atno 3721 bound_to 3712
   -4.2686  -22.3342   11.6384 H   0  0  0  0  0  0  0  0  0  0  0  0  # atno 3767 bound_to 3762
    2.8612  -19.9385    8.3714 H   0  0  0  0  0  0  0  0  0  0  0  0  # atno 3841 bound_to 3832
    3.3918   -9.2029    3.7908 LP  0  0  0  0  0  0  0  0  0  0  0  0  # atno 4297 bound_to 1298
    4.7517   -8.6954    4.5389 LP  0  0  0  0  0  0  0  0  0  0  0  0  # atno 4298 bound_to 1298
    1.5233   -9.1900    8.3995 LP  0  0  0  0  0  0  0  0  0  0  0  0  # atno 4299 bound_to 2456
    1.8627   -8.0022    7.3314 LP  0  0  0  0  0  0  0  0  0  0  0  0  # atno 4300 bound_to 2456
    2.6827   -7.9154    4.4178 LP  0  0  0  0  0  0  0  0  0  0  0  0  # atno 4301 bound_to 2510
    2.5811   -9.2564    5.3441 LP  0  0  0  0  0  0  0  0  0  0  0  0  # atno 4302 bound_to 2510
   -2.8801  -17.6076   14.8191 LP  0  0  0  0  0  0  0  0  0  0  0  0  # atno 4306 bound_to 3712
   -3.5674  -16.5725   13.7595 LP  0  0  0  0  0  0  0  0  0  0  0  0  # atno 4307 bound_to 3712
    2.5231  -21.1570    9.3600 LP  0  0  0  0  0  0  0  0  0  0  0  0  # atno 4314 bound_to 3832
    1.4011  -20.0163    9.0334 LP  0  0  0  0  0  0  0  0  0  0  0  0  # atno 4315 bound_to 3832
   -4.3486  -23.3320   10.3481 LP  0  0  0  0  0  0  0  0  0  0  0  0  # atno 4318 bound_to 3762
   -5.5100  -22.2087   10.5848 LP  0  0  0  0  0  0  0  0  0  0  0  0  # atno 4319 bound_to 3762
   -3.8873   -5.2825    9.1761 LP  0  0  0  0  0  0  0  0  0  0  0  0  # atno 4320 bound_to 2467
   -5.4695   -5.3113    8.7732 LP  0  0  0  0  0  0  0  0  0  0  0  0  # atno 4321 bound_to 2467

> <Gold.Score>
     Score     S(PLP)   S(hbond)     S(cho)   S(metal)  DE(clash)   DE(tors)     intcor
     38.05     -35.18       1.00       0.00       0.00       0.31       0.14       0.46

> <Gold.PLP.Fitness>
38.0514

> <Gold.PLP.PLP>
-35.1817

> <Gold.PLP.part.hbond>
-1.0000

> <Gold.PLP.part.metal>
0.0000

> <Gold.PLP.part.buried>
-1.0984

> <Gold.PLP.part.nonpolar>
-33.6758

> <Gold.PLP.part.repulsive>
0.1487

> <Gold.PLP.ligand.clash>
0.3140

> <Gold.PLP.ligand.torsion>
0.1382

> <Gold.PLP.Chemscore.Hbond>
1.0000

> <Gold.PLP.Chemscore.CHOScore>
0.0000

> <Gold.PLP.Chemscore.Metal>
0.0000

> <Gold.Chemscore.Hbonds>
donor molecule, donor type, donor heavy atom, donor atom, acceptor molecule, acceptor atom, score
      P1  H  2305  2313       L1     3  1.00

> <Gold.PLP.Chemscore.Internal.Correction>
0.4601

