#       Name:                EN300-344045_i001
#       Creating user name   fsindt
#       Creation time:       Tue Feb 28 20:12:00 2023


#       File generated by GOLD software.
#

@<TRIPOS>MOLECULE
EN300-344045_i001|acide_2|mol2|6937|dock13
    30    31     1
SMALL
USER_CHARGES


@<TRIPOS>ATOM
      1 O1           0.8004 -12.4121   5.9549 O.co2          1 <1>               -1.0000
      2 C2           1.0270 -11.7003   6.9184 C.2            1 <1>                0.0000
      3 O3           0.9076 -10.4905   6.8242 O.co2          1 <1>                0.0000
      4 C4           1.4486 -12.3162   8.2276 C.3            1 <1>                0.0000
      5 C5           0.2338 -12.9514   8.9070 C.3            1 <1>                0.0000
      6 C6          -0.5346 -13.8318   7.8999 C.3            1 <1>                0.0000
      7 C7           0.0118 -15.2595   8.1493 C.3            1 <1>                0.0000
      8 C8           0.1862 -15.2948   9.6880 C.3            1 <1>                0.0000
      9 C9           0.6921 -13.8815  10.0439 C.3            1 <1>                0.0000
     10 C10         -0.6731 -11.8777   9.4510 C.ar           1 <1>                0.0000
     11 C11         -2.0150 -11.8730   9.1193 C.ar           1 <1>                0.0000
     12 C12         -2.8468 -10.8881   9.6182 C.ar           1 <1>                0.0000
     13 C13         -2.3368  -9.9082  10.4493 C.ar           1 <1>                0.0000
     14 C14         -0.9951  -9.9135  10.7817 C.ar           1 <1>                0.0000
     15 C15         -0.1641 -10.9009  10.2862 C.ar           1 <1>                0.0000
     16 H16          2.2030 -13.0811   8.0431 H              1 <1>                0.0000
     17 H17          1.8647 -11.5442   8.8750 H              1 <1>                0.0000
     18 H18         -1.6056 -13.7931   8.0988 H              1 <1>                0.0000
     19 H19         -0.3237 -13.5158   6.8782 H              1 <1>                0.0000
     20 H20         -0.7082 -16.0109   7.8248 H              1 <1>                0.0000
     21 H21          0.9699 -15.3994   7.6487 H              1 <1>                0.0000
     22 H22         -0.7683 -15.4923  10.1757 H              1 <1>                0.0000
     23 H23          0.9231 -16.0463   9.9713 H              1 <1>                0.0000
     24 H24          1.7799 -13.8805  10.1116 H              1 <1>                0.0000
     25 H25          0.2584 -13.5568  10.9897 H              1 <1>                0.0000
     26 H26         -2.4135 -12.6385   8.4700 H              1 <1>                0.0000
     27 H27         -3.8951 -10.8840   9.3584 H              1 <1>                0.0000
     28 H28         -2.9866  -9.1384  10.8385 H              1 <1>                0.0000
     29 H29         -0.5965  -9.1478  11.4308 H              1 <1>                0.0000
     30 H30          0.8842 -10.9050  10.5460 H              1 <1>                0.0000
@<TRIPOS>BOND
    1    1    2 ar    
    2    2    3 ar    
    3    2    4 1     
    4    4    5 1     
    5    4   16 1     
    6    4   17 1     
    7    5    6 1     
    8    5    9 1     
    9    5   10 1     
   10    6    7 1     
   11    6   18 1     
   12    6   19 1     
   13    7    8 1     
   14    7   20 1     
   15    7   21 1     
   16    8    9 1     
   17    8   22 1     
   18    8   23 1     
   19    9   24 1     
   20    9   25 1     
   21   10   11 ar    
   22   10   15 ar    
   23   11   12 ar    
   24   11   26 1     
   25   12   13 ar    
   26   12   27 1     
   27   13   14 ar    
   28   13   28 1     
   29   14   15 ar    
   30   14   29 1     
   31   15   30 1     
@<TRIPOS>SUBSTRUCTURE
      1 ****           1
@<TRIPOS>COMMENT
> <Gold.Version>
2022.2.0

> <Gold.Id.Protein>
3pbl|protein|mol2

> <Gold.Protein.RotatedTorsions>
[ 1303 1298 1297 1294 ] final -114.51 input  179.99 | X-H torsion
[ 2461 2456 2455 2452 ] final -122.24 input   30.03 | X-H torsion
[ 2515 2510 2509 2506 ] final  177.12 input  -89.99 | X-H torsion
[ 3721 3712 3711 3710 ] final  123.47 input -179.91 | X-H torsion
[ 3841 3832 3831 3830 ] final -143.93 input -179.91 | X-H torsion
[ 3767 3762 3761 3758 ] final   41.51 input  -89.99 | X-H torsion
[ 2472 2467 2466 2463 ] final   -0.09 input  -89.97 | X-H torsion

> <Gold.Protein.ActiveResidues>
 VAL82   VAL86   LEU89   PHE106  VAL107  ASP110  VAL111  MET112  CYS114  THR115 
 CYS181  SER182  ILE183  PHE188  VAL189  ILE190  SER192  SER193  SER196  TRP342 
 PHE345  PHE346  HIS349  VAL350  TYR365  THR369  GLY372  TYR373 

> <Gold.Protein.RotatedAtoms>
    4.1576   -8.4872    4.0459 H   0  0  0  0  0  0  0  0  0  0  0  0  # atno 1303 bound_to 1298
    0.6005   -9.1886    8.0760 H   0  0  0  0  0  0  0  0  0  0  0  0  # atno 2461 bound_to 2456
   -3.7969   -4.8763    8.0744 H   0  0  0  0  0  0  0  0  0  0  0  0  # atno 2472 bound_to 2467
    2.3044   -9.0059    5.8724 H   0  0  0  0  0  0  0  0  0  0  0  0  # atno 2515 bound_to 2510
   -3.0341  -17.1878   13.0433 H   0  0  0  0  0  0  0  0  0  0  0  0  # atno 3721 bound_to 3712
   -4.8269  -23.1606   10.0899 H   0  0  0  0  0  0  0  0  0  0  0  0  # atno 3767 bound_to 3762
    2.5493  -19.7073    8.3575 H   0  0  0  0  0  0  0  0  0  0  0  0  # atno 3841 bound_to 3832
    4.7868   -9.6925    4.9502 LP  0  0  0  0  0  0  0  0  0  0  0  0  # atno 4297 bound_to 1298
    3.4178   -9.9420    4.0956 LP  0  0  0  0  0  0  0  0  0  0  0  0  # atno 4298 bound_to 1298
    2.1307   -8.6190    8.0411 LP  0  0  0  0  0  0  0  0  0  0  0  0  # atno 4299 bound_to 2456
    1.0064   -8.0008    7.0311 LP  0  0  0  0  0  0  0  0  0  0  0  0  # atno 4300 bound_to 2456
    2.1647   -7.4474    5.4065 LP  0  0  0  0  0  0  0  0  0  0  0  0  # atno 4301 bound_to 2510
    2.8278   -8.5455    4.3960 LP  0  0  0  0  0  0  0  0  0  0  0  0  # atno 4302 bound_to 2510
   -2.6215  -18.1449   14.2647 LP  0  0  0  0  0  0  0  0  0  0  0  0  # atno 4306 bound_to 3712
   -3.4033  -16.7378   14.5396 LP  0  0  0  0  0  0  0  0  0  0  0  0  # atno 4307 bound_to 3712
    2.8587  -21.0970    9.0985 LP  0  0  0  0  0  0  0  0  0  0  0  0  # atno 4314 bound_to 3832
    1.4258  -20.3434    9.3110 LP  0  0  0  0  0  0  0  0  0  0  0  0  # atno 4315 bound_to 3832
   -5.3374  -21.9532   11.0637 LP  0  0  0  0  0  0  0  0  0  0  0  0  # atno 4318 bound_to 3762
   -3.9632  -22.7615   11.4171 LP  0  0  0  0  0  0  0  0  0  0  0  0  # atno 4319 bound_to 3762
   -4.5030   -5.4430    9.4334 LP  0  0  0  0  0  0  0  0  0  0  0  0  # atno 4320 bound_to 2467
   -5.4168   -5.0742    8.1312 LP  0  0  0  0  0  0  0  0  0  0  0  0  # atno 4321 bound_to 2467

> <Gold.Score>
     Score     S(PLP)   S(hbond)     S(cho)   S(metal)  DE(clash)   DE(tors)     intcor
     48.50     -47.40       0.64       0.00       0.00       0.31       0.47       0.44

> <Gold.PLP.Fitness>
48.5049

> <Gold.PLP.PLP>
-47.4042

> <Gold.PLP.part.hbond>
-1.3629

> <Gold.PLP.part.metal>
0.0000

> <Gold.PLP.part.buried>
-0.5771

> <Gold.PLP.part.nonpolar>
-46.8625

> <Gold.PLP.part.repulsive>
0.0963

> <Gold.PLP.ligand.clash>
0.3103

> <Gold.PLP.ligand.torsion>
0.4678

> <Gold.PLP.Chemscore.Hbond>
0.6370

> <Gold.PLP.Chemscore.CHOScore>
0.0000

> <Gold.PLP.Chemscore.Metal>
0.0000

> <Gold.Chemscore.Hbonds>
donor molecule, donor type, donor heavy atom, donor atom, acceptor molecule, acceptor atom, score
      P1  H  2456  2461       L1     3  0.27
      P1  H  2510  2515       L1     3  0.37

> <Gold.PLP.Chemscore.Internal.Correction>
0.4354

