#       Name:                EN300-344045_i001
#       Creating user name   fsindt
#       Creation time:       Tue Feb 28 20:12:02 2023


#       File generated by GOLD software.
#

@<TRIPOS>MOLECULE
EN300-344045_i001|acide_2|mol2|6937|dock15
    30    31     1
SMALL
USER_CHARGES


@<TRIPOS>ATOM
      1 O1          -4.4117 -11.3106  10.0996 O.co2          1 <1>               -1.0000
      2 C2          -3.3990 -10.6933   9.8169 C.2            1 <1>                0.0000
      3 O3          -3.2036  -9.5897  10.2971 O.co2          1 <1>                0.0000
      4 C4          -2.3858 -11.2970   8.8788 C.3            1 <1>                0.0000
      5 C5          -1.1607 -11.7509   9.6750 C.3            1 <1>                0.0000
      6 C6          -0.3941 -10.5239  10.2104 C.3            1 <1>                0.0000
      7 C7          -0.9278 -10.3425  11.6531 C.3            1 <1>                0.0000
      8 C8          -1.0891 -11.8027  12.1440 C.3            1 <1>                0.0000
      9 C9          -1.6025 -12.5639  10.9043 C.3            1 <1>                0.0000
     10 C10         -0.2573 -12.5832   8.8018 C.ar           1 <1>                0.0000
     11 C11         -0.0171 -13.9070   9.1192 C.ar           1 <1>                0.0000
     12 C12          0.8115 -14.6703   8.3183 C.ar           1 <1>                0.0000
     13 C13          1.3995 -14.1101   7.1996 C.ar           1 <1>                0.0000
     14 C14          1.1586 -12.7866   6.8818 C.ar           1 <1>                0.0000
     15 C15          0.3264 -12.0244   7.6803 C.ar           1 <1>                0.0000
     16 H16         -2.8268 -12.1545   8.3704 H              1 <1>                0.0000
     17 H17         -2.0846 -10.5528   8.1414 H              1 <1>                0.0000
     18 H18          0.6782 -10.7192  10.2221 H              1 <1>                0.0000
     19 H19         -0.6158  -9.6428   9.6081 H              1 <1>                0.0000
     20 H20         -0.2049  -9.8060  12.2678 H              1 <1>                0.0000
     21 H21         -1.8889  -9.8284  11.6477 H              1 <1>                0.0000
     22 H22         -0.1291 -12.2046  12.4679 H              1 <1>                0.0000
     23 H23         -1.8181 -11.8549  12.9527 H              1 <1>                0.0000
     24 H24         -2.6898 -12.6352  10.9338 H              1 <1>                0.0000
     25 H25         -1.1635 -13.5610  10.8701 H              1 <1>                0.0000
     26 H26         -0.4765 -14.3447   9.9931 H              1 <1>                0.0000
     27 H27          0.9998 -15.7044   8.5667 H              1 <1>                0.0000
     28 H28          2.0474 -14.7063   6.5743 H              1 <1>                0.0000
     29 H29          1.6181 -12.3487   6.0080 H              1 <1>                0.0000
     30 H30          0.1382 -10.9903   7.4319 H              1 <1>                0.0000
@<TRIPOS>BOND
    1    1    2 ar    
    2    2    3 ar    
    3    2    4 1     
    4    4    5 1     
    5    4   16 1     
    6    4   17 1     
    7    5    6 1     
    8    5    9 1     
    9    5   10 1     
   10    6    7 1     
   11    6   18 1     
   12    6   19 1     
   13    7    8 1     
   14    7   20 1     
   15    7   21 1     
   16    8    9 1     
   17    8   22 1     
   18    8   23 1     
   19    9   24 1     
   20    9   25 1     
   21   10   11 ar    
   22   10   15 ar    
   23   11   12 ar    
   24   11   26 1     
   25   12   13 ar    
   26   12   27 1     
   27   13   14 ar    
   28   13   28 1     
   29   14   15 ar    
   30   14   29 1     
   31   15   30 1     
@<TRIPOS>SUBSTRUCTURE
      1 ****           1
@<TRIPOS>COMMENT
> <Gold.Version>
2022.2.0

> <Gold.Id.Protein>
3pbl|protein|mol2

> <Gold.Protein.RotatedTorsions>
[ 1303 1298 1297 1294 ] final  -37.69 input  179.99 | X-H torsion
[ 2461 2456 2455 2452 ] final  -13.38 input   30.03 | X-H torsion
[ 2515 2510 2509 2506 ] final  140.97 input  -89.99 | X-H torsion
[ 3721 3712 3711 3710 ] final    2.54 input -179.91 | X-H torsion
[ 3841 3832 3831 3830 ] final   -9.09 input -179.91 | X-H torsion
[ 3767 3762 3761 3758 ] final  136.64 input  -89.99 | X-H torsion
[ 2472 2467 2466 2463 ] final  178.47 input  -89.97 | X-H torsion

> <Gold.Protein.ActiveResidues>
 VAL82   VAL86   LEU89   PHE106  VAL107  ASP110  VAL111  MET112  CYS114  THR115 
 CYS181  SER182  ILE183  PHE188  VAL189  ILE190  SER192  SER193  SER196  TRP342 
 PHE345  PHE346  HIS349  VAL350  TYR365  THR369  GLY372  TYR373 

> <Gold.Protein.RotatedAtoms>
    3.3596   -9.3119    3.8113 H   0  0  0  0  0  0  0  0  0  0  0  0  # atno 1303 bound_to 1298
    0.8400   -8.0755    7.0477 H   0  0  0  0  0  0  0  0  0  0  0  0  # atno 2461 bound_to 2456
   -5.3606   -5.3815    8.9990 H   0  0  0  0  0  0  0  0  0  0  0  0  # atno 2472 bound_to 2467
    2.1032   -8.5025    6.0918 H   0  0  0  0  0  0  0  0  0  0  0  0  # atno 2515 bound_to 2510
   -2.4820  -17.9707   14.2070 H   0  0  0  0  0  0  0  0  0  0  0  0  # atno 3721 bound_to 3712
   -3.9080  -23.0416   11.1286 H   0  0  0  0  0  0  0  0  0  0  0  0  # atno 3767 bound_to 3762
    1.6662  -20.3807    9.5073 H   0  0  0  0  0  0  0  0  0  0  0  0  # atno 3841 bound_to 3832
    4.6887   -8.6286    4.4692 LP  0  0  0  0  0  0  0  0  0  0  0  0  # atno 4297 bound_to 1298
    4.3142  -10.1808    4.8113 LP  0  0  0  0  0  0  0  0  0  0  0  0  # atno 4298 bound_to 1298
    0.7383   -9.2463    8.1818 LP  0  0  0  0  0  0  0  0  0  0  0  0  # atno 4299 bound_to 2456
    2.1593   -8.4862    7.9185 LP  0  0  0  0  0  0  0  0  0  0  0  0  # atno 4300 bound_to 2456
    2.3945   -7.4610    4.8686 LP  0  0  0  0  0  0  0  0  0  0  0  0  # atno 4301 bound_to 2510
    2.7991   -9.0355    4.7144 LP  0  0  0  0  0  0  0  0  0  0  0  0  # atno 4302 bound_to 2510
   -3.4272  -16.7039   14.4893 LP  0  0  0  0  0  0  0  0  0  0  0  0  # atno 4306 bound_to 3712
   -3.2350  -17.2748   12.9715 LP  0  0  0  0  0  0  0  0  0  0  0  0  # atno 4307 bound_to 3712
    2.2822  -19.6903    8.1959 LP  0  0  0  0  0  0  0  0  0  0  0  0  # atno 4314 bound_to 3832
    3.0224  -20.9722    8.8854 LP  0  0  0  0  0  0  0  0  0  0  0  0  # atno 4315 bound_to 3832
   -5.1499  -22.9152   10.0758 LP  0  0  0  0  0  0  0  0  0  0  0  0  # atno 4318 bound_to 3762
   -5.0693  -21.9184   11.3668 LP  0  0  0  0  0  0  0  0  0  0  0  0  # atno 4319 bound_to 3762
   -4.6181   -4.8161    7.6590 LP  0  0  0  0  0  0  0  0  0  0  0  0  # atno 4320 bound_to 2467
   -3.7383   -5.1959    8.9813 LP  0  0  0  0  0  0  0  0  0  0  0  0  # atno 4321 bound_to 2467

> <Gold.Score>
     Score     S(PLP)   S(hbond)     S(cho)   S(metal)  DE(clash)   DE(tors)     intcor
     49.27     -49.77       0.00       0.00       0.00       0.39       0.27       0.44

> <Gold.PLP.Fitness>
49.2716

> <Gold.PLP.PLP>
-49.7696

> <Gold.PLP.part.hbond>
0.0000

> <Gold.PLP.part.metal>
0.0000

> <Gold.PLP.part.buried>
-4.2018

> <Gold.PLP.part.nonpolar>
-47.9032

> <Gold.PLP.part.repulsive>
1.0352

> <Gold.PLP.ligand.clash>
0.3881

> <Gold.PLP.ligand.torsion>
0.2726

> <Gold.PLP.Chemscore.Hbond>
0.0000

> <Gold.PLP.Chemscore.CHOScore>
0.0000

> <Gold.PLP.Chemscore.Metal>
0.0000

> <Gold.PLP.Chemscore.Internal.Correction>
0.4354

