#       Name:                EN300-344045_i001
#       Creating user name   fsindt
#       Creation time:       Tue Feb 28 20:11:58 2023


#       File generated by GOLD software.
#

@<TRIPOS>MOLECULE
EN300-344045_i001|acide_2|mol2|6937|dock10
    30    31     1
SMALL
USER_CHARGES


@<TRIPOS>ATOM
      1 O1          -0.1020 -15.4251  12.3109 O.co2          1 <1>               -1.0000
      2 C2          -0.1552 -16.1642  13.2791 C.2            1 <1>                0.0000
      3 O3          -0.1007 -15.6990  14.4049 O.co2          1 <1>                0.0000
      4 C4          -0.2949 -17.6520  13.0845 C.3            1 <1>                0.0000
      5 C5           1.0177 -18.3411  13.4627 C.3            1 <1>                0.0000
      6 C6           2.1466 -17.8837  12.5159 C.3            1 <1>                0.0000
      7 C7           2.8436 -16.7333  13.2840 C.3            1 <1>                0.0000
      8 C8           2.8113 -17.2322  14.7500 C.3            1 <1>                0.0000
      9 C9           1.4404 -17.9270  14.8830 C.3            1 <1>                0.0000
     10 C10          0.8553 -19.8375  13.3870 C.ar           1 <1>                0.0000
     11 C11          0.3498 -20.4207  12.2402 C.ar           1 <1>                0.0000
     12 C12          0.2007 -21.7932  12.1708 C.ar           1 <1>                0.0000
     13 C13          0.5577 -22.5826  13.2481 C.ar           1 <1>                0.0000
     14 C14          1.0640 -21.9994  14.3945 C.ar           1 <1>                0.0000
     15 C15          1.2171 -20.6272  14.4623 C.ar           1 <1>                0.0000
     16 H16         -1.0982 -18.0276  13.7185 H              1 <1>                0.0000
     17 H17         -0.5277 -17.8617  12.0405 H              1 <1>                0.0000
     18 H18          2.8460 -18.6997  12.3341 H              1 <1>                0.0000
     19 H19          1.7321 -17.5187  11.5762 H              1 <1>                0.0000
     20 H20          3.8707 -16.6068  12.9415 H              1 <1>                0.0000
     21 H21          2.2833 -15.8041  13.1798 H              1 <1>                0.0000
     22 H22          3.6181 -17.9430  14.9289 H              1 <1>                0.0000
     23 H23          2.8818 -16.3919  15.4406 H              1 <1>                0.0000
     24 H24          0.7104 -17.2350  15.3030 H              1 <1>                0.0000
     25 H25          1.5285 -18.8083  15.5183 H              1 <1>                0.0000
     26 H26          0.0709 -19.8041  11.3986 H              1 <1>                0.0000
     27 H27         -0.1949 -22.2488  11.2751 H              1 <1>                0.0000
     28 H28          0.4406 -23.6548  13.1941 H              1 <1>                0.0000
     29 H29          1.3426 -22.6160  15.2363 H              1 <1>                0.0000
     30 H30          1.6128 -20.1715  15.3580 H              1 <1>                0.0000
@<TRIPOS>BOND
    1    1    2 ar    
    2    2    3 ar    
    3    2    4 1     
    4    4    5 1     
    5    4   16 1     
    6    4   17 1     
    7    5    6 1     
    8    5    9 1     
    9    5   10 1     
   10    6    7 1     
   11    6   18 1     
   12    6   19 1     
   13    7    8 1     
   14    7   20 1     
   15    7   21 1     
   16    8    9 1     
   17    8   22 1     
   18    8   23 1     
   19    9   24 1     
   20    9   25 1     
   21   10   11 ar    
   22   10   15 ar    
   23   11   12 ar    
   24   11   26 1     
   25   12   13 ar    
   26   12   27 1     
   27   13   14 ar    
   28   13   28 1     
   29   14   15 ar    
   30   14   29 1     
   31   15   30 1     
@<TRIPOS>SUBSTRUCTURE
      1 ****           1
@<TRIPOS>COMMENT
> <Gold.Version>
2022.2.0

> <Gold.Id.Protein>
3pbl|protein|mol2

> <Gold.Protein.RotatedTorsions>
[ 1303 1298 1297 1294 ] final -120.04 input  179.99 | X-H torsion
[ 2461 2456 2455 2452 ] final   15.19 input   30.03 | X-H torsion
[ 2515 2510 2509 2506 ] final  -63.05 input  -89.99 | X-H torsion
[ 3721 3712 3711 3710 ] final  135.52 input -179.91 | X-H torsion
[ 3841 3832 3831 3830 ] final  -21.10 input -179.91 | X-H torsion
[ 3767 3762 3761 3758 ] final   -7.62 input  -89.99 | X-H torsion
[ 2472 2467 2466 2463 ] final -159.26 input  -89.97 | X-H torsion

> <Gold.Protein.ActiveResidues>
 VAL82   VAL86   LEU89   PHE106  VAL107  ASP110  VAL111  MET112  CYS114  THR115 
 CYS181  SER182  ILE183  PHE188  VAL189  ILE190  SER192  SER193  SER196  TRP342 
 PHE345  PHE346  HIS349  VAL350  TYR365  THR369  GLY372  TYR373 

> <Gold.Protein.RotatedAtoms>
    4.2336   -8.4774    4.0949 H   0  0  0  0  0  0  0  0  0  0  0  0  # atno 1303 bound_to 1298
    1.2819   -7.9297    7.0564 H   0  0  0  0  0  0  0  0  0  0  0  0  # atno 2461 bound_to 2456
   -5.1093   -5.4460    9.2545 H   0  0  0  0  0  0  0  0  0  0  0  0  # atno 2472 bound_to 2467
    2.8280   -8.5481    4.3972 H   0  0  0  0  0  0  0  0  0  0  0  0  # atno 2515 bound_to 2510
   -3.1178  -17.0341   13.0925 H   0  0  0  0  0  0  0  0  0  0  0  0  # atno 3721 bound_to 3712
   -5.3861  -22.6225   10.2006 H   0  0  0  0  0  0  0  0  0  0  0  0  # atno 3767 bound_to 3762
    1.5995  -20.2369    9.4199 H   0  0  0  0  0  0  0  0  0  0  0  0  # atno 3841 bound_to 3832
    4.7425   -9.7719    4.9502 LP  0  0  0  0  0  0  0  0  0  0  0  0  # atno 4297 bound_to 1298
    3.3861   -9.8723    4.0466 LP  0  0  0  0  0  0  0  0  0  0  0  0  # atno 4298 bound_to 1298
    0.4359   -9.0546    7.8847 LP  0  0  0  0  0  0  0  0  0  0  0  0  # atno 4299 bound_to 2456
    2.0200   -8.8236    8.2069 LP  0  0  0  0  0  0  0  0  0  0  0  0  # atno 4300 bound_to 2456
    2.3030   -9.0044    5.8744 LP  0  0  0  0  0  0  0  0  0  0  0  0  # atno 4301 bound_to 2510
    2.1655   -7.4466    5.4041 LP  0  0  0  0  0  0  0  0  0  0  0  0  # atno 4302 bound_to 2510
   -2.6073  -18.1995   14.0718 LP  0  0  0  0  0  0  0  0  0  0  0  0  # atno 4306 bound_to 3712
   -3.3208  -16.8606   14.6757 LP  0  0  0  0  0  0  0  0  0  0  0  0  # atno 4307 bound_to 3712
    2.4625  -19.7653    8.1515 LP  0  0  0  0  0  0  0  0  0  0  0  0  # atno 4314 bound_to 3832
    2.9192  -21.0633    9.0308 LP  0  0  0  0  0  0  0  0  0  0  0  0  # atno 4315 bound_to 3832
   -4.7431  -22.0109   11.5715 LP  0  0  0  0  0  0  0  0  0  0  0  0  # atno 4318 bound_to 3762
   -3.9984  -23.2416   10.7987 LP  0  0  0  0  0  0  0  0  0  0  0  0  # atno 4319 bound_to 3762
   -4.9697   -4.8801    7.7292 LP  0  0  0  0  0  0  0  0  0  0  0  0  # atno 4320 bound_to 2467
   -3.6381   -5.0675    8.6556 LP  0  0  0  0  0  0  0  0  0  0  0  0  # atno 4321 bound_to 2467

> <Gold.Score>
     Score     S(PLP)   S(hbond)     S(cho)   S(metal)  DE(clash)   DE(tors)     intcor
     36.58     -34.09       1.00       0.00       0.00       0.30       0.32       0.44

> <Gold.PLP.Fitness>
36.5790

> <Gold.PLP.PLP>
-34.0851

> <Gold.PLP.part.hbond>
-1.0000

> <Gold.PLP.part.metal>
0.0000

> <Gold.PLP.part.buried>
-1.0231

> <Gold.PLP.part.nonpolar>
-32.9070

> <Gold.PLP.part.repulsive>
0.1613

> <Gold.PLP.ligand.clash>
0.2951

> <Gold.PLP.ligand.torsion>
0.3232

> <Gold.PLP.Chemscore.Hbond>
1.0000

> <Gold.PLP.Chemscore.CHOScore>
0.0000

> <Gold.PLP.Chemscore.Metal>
0.0000

> <Gold.Chemscore.Hbonds>
donor molecule, donor type, donor heavy atom, donor atom, acceptor molecule, acceptor atom, score
      P1  H  2305  2313       L1     3  1.00

> <Gold.PLP.Chemscore.Internal.Correction>
0.4354

