#       Name:                EN300-344045_i001
#       Creating user name   fsindt
#       Creation time:       Tue Feb 28 20:11:57 2023


#       File generated by GOLD software.
#

@<TRIPOS>MOLECULE
EN300-344045_i001|acide_2|mol2|6937|dock7
    30    31     1
SMALL
USER_CHARGES


@<TRIPOS>ATOM
      1 O1          -0.8789 -12.2227   8.2812 O.co2          1 <1>               -1.0000
      2 C2          -0.2343 -12.0138   9.2947 C.2            1 <1>                0.0000
      3 O3           0.5025 -11.0445   9.3597 O.co2          1 <1>                0.0000
      4 C4          -0.3530 -12.9501  10.4696 C.3            1 <1>                0.0000
      5 C5           0.4118 -14.2413  10.1720 C.3            1 <1>                0.0000
      6 C6          -0.3956 -15.1205   9.1946 C.3            1 <1>                0.0000
      7 C7           0.1870 -14.7738   7.8020 C.3            1 <1>                0.0000
      8 C8           1.6989 -14.6088   8.0953 C.3            1 <1>                0.0000
      9 C9           1.7435 -13.9161   9.4730 C.3            1 <1>                0.0000
     10 C10          0.6697 -14.9948  11.4514 C.ar           1 <1>                0.0000
     11 C11          1.9381 -15.4677  11.7314 C.ar           1 <1>                0.0000
     12 C12          2.1746 -16.1588  12.9049 C.ar           1 <1>                0.0000
     13 C13          1.1429 -16.3765  13.7988 C.ar           1 <1>                0.0000
     14 C14         -0.1253 -15.9028  13.5193 C.ar           1 <1>                0.0000
     15 C15         -0.3609 -15.2079  12.3476 C.ar           1 <1>                0.0000
     16 H16          0.0668 -12.4753  11.3565 H              1 <1>                0.0000
     17 H17         -1.4036 -13.1822  10.6446 H              1 <1>                0.0000
     18 H18         -0.2457 -16.1766   9.4187 H              1 <1>                0.0000
     19 H19         -1.4547 -14.8666   9.2390 H              1 <1>                0.0000
     20 H20          0.0167 -15.5887   7.0983 H              1 <1>                0.0000
     21 H21         -0.2375 -13.8427   7.4265 H              1 <1>                0.0000
     22 H22          2.1870 -15.5823   8.1419 H              1 <1>                0.0000
     23 H23          2.1683 -13.9815   7.3375 H              1 <1>                0.0000
     24 H24          1.8449 -12.8383   9.3458 H              1 <1>                0.0000
     25 H25          2.5770 -14.3033  10.0589 H              1 <1>                0.0000
     26 H26          2.7442 -15.2976  11.0330 H              1 <1>                0.0000
     27 H27          3.1654 -16.5290  13.1233 H              1 <1>                0.0000
     28 H28          1.3275 -16.9170  14.7153 H              1 <1>                0.0000
     29 H29         -0.9315 -16.0731  14.2174 H              1 <1>                0.0000
     30 H30         -1.3517 -14.8378  12.1292 H              1 <1>                0.0000
@<TRIPOS>BOND
    1    1    2 ar    
    2    2    3 ar    
    3    2    4 1     
    4    4    5 1     
    5    4   16 1     
    6    4   17 1     
    7    5    6 1     
    8    5    9 1     
    9    5   10 1     
   10    6    7 1     
   11    6   18 1     
   12    6   19 1     
   13    7    8 1     
   14    7   20 1     
   15    7   21 1     
   16    8    9 1     
   17    8   22 1     
   18    8   23 1     
   19    9   24 1     
   20    9   25 1     
   21   10   11 ar    
   22   10   15 ar    
   23   11   12 ar    
   24   11   26 1     
   25   12   13 ar    
   26   12   27 1     
   27   13   14 ar    
   28   13   28 1     
   29   14   15 ar    
   30   14   29 1     
   31   15   30 1     
@<TRIPOS>SUBSTRUCTURE
      1 ****           1
@<TRIPOS>COMMENT
> <Gold.Version>
2022.2.0

> <Gold.Id.Protein>
3pbl|protein|mol2

> <Gold.Protein.RotatedTorsions>
[ 1303 1298 1297 1294 ] final  116.01 input  179.99 | X-H torsion
[ 2461 2456 2455 2452 ] final -154.37 input   30.03 | X-H torsion
[ 2515 2510 2509 2506 ] final  162.04 input  -89.99 | X-H torsion
[ 3721 3712 3711 3710 ] final  111.20 input -179.91 | X-H torsion
[ 3841 3832 3831 3830 ] final  152.08 input -179.91 | X-H torsion
[ 3767 3762 3761 3758 ] final -179.90 input  -89.99 | X-H torsion
[ 2472 2467 2466 2463 ] final  166.65 input  -89.97 | X-H torsion

> <Gold.Protein.ActiveResidues>
 VAL82   VAL86   LEU89   PHE106  VAL107  ASP110  VAL111  MET112  CYS114  THR115 
 CYS181  SER182  ILE183  PHE188  VAL189  ILE190  SER192  SER193  SER196  TRP342 
 PHE345  PHE346  HIS349  VAL350  TYR365  THR369  GLY372  TYR373 

> <Gold.Protein.RotatedAtoms>
    4.7069   -9.8262    4.9472 H   0  0  0  0  0  0  0  0  0  0  0  0  # atno 1303 bound_to 1298
    1.0447   -9.2887    8.3311 H   0  0  0  0  0  0  0  0  0  0  0  0  # atno 2461 bound_to 2456
   -5.4479   -5.3314    8.8331 H   0  0  0  0  0  0  0  0  0  0  0  0  # atno 2472 bound_to 2467
    2.2092   -8.8179    6.0018 H   0  0  0  0  0  0  0  0  0  0  0  0  # atno 2515 bound_to 2510
   -2.9430  -17.3486   13.0318 H   0  0  0  0  0  0  0  0  0  0  0  0  # atno 3721 bound_to 3712
   -4.0954  -22.5315   11.5668 H   0  0  0  0  0  0  0  0  0  0  0  0  # atno 3767 bound_to 3762
    3.1185  -20.3813    8.6085 H   0  0  0  0  0  0  0  0  0  0  0  0  # atno 3841 bound_to 3832
    3.3675   -9.8195    4.0132 LP  0  0  0  0  0  0  0  0  0  0  0  0  # atno 4297 bound_to 1298
    4.2875   -8.4755    4.1310 LP  0  0  0  0  0  0  0  0  0  0  0  0  # atno 4298 bound_to 1298
    2.1198   -8.2518    7.6705 LP  0  0  0  0  0  0  0  0  0  0  0  0  # atno 4299 bound_to 2456
    0.5732   -8.2678    7.1467 LP  0  0  0  0  0  0  0  0  0  0  0  0  # atno 4300 bound_to 2456
    2.2525   -7.4087    5.1785 LP  0  0  0  0  0  0  0  0  0  0  0  0  # atno 4301 bound_to 2510
    2.8351   -8.7723    4.4945 LP  0  0  0  0  0  0  0  0  0  0  0  0  # atno 4302 bound_to 2510
   -2.6570  -18.0549   14.4450 LP  0  0  0  0  0  0  0  0  0  0  0  0  # atno 4306 bound_to 3712
   -3.4729  -16.6422   14.3726 LP  0  0  0  0  0  0  0  0  0  0  0  0  # atno 4307 bound_to 3712
    1.9565  -20.9718    9.5450 LP  0  0  0  0  0  0  0  0  0  0  0  0  # atno 4314 bound_to 3832
    1.6704  -19.6900    8.5745 LP  0  0  0  0  0  0  0  0  0  0  0  0  # atno 4315 bound_to 3832
   -4.5681  -23.2818   10.1956 LP  0  0  0  0  0  0  0  0  0  0  0  0  # atno 4318 bound_to 3762
   -5.4635  -22.0617   10.8089 LP  0  0  0  0  0  0  0  0  0  0  0  0  # atno 4319 bound_to 3762
   -4.4255   -4.8009    7.6756 LP  0  0  0  0  0  0  0  0  0  0  0  0  # atno 4320 bound_to 2467
   -3.8438   -5.2612    9.1304 LP  0  0  0  0  0  0  0  0  0  0  0  0  # atno 4321 bound_to 2467

> <Gold.Score>
     Score     S(PLP)   S(hbond)     S(cho)   S(metal)  DE(clash)   DE(tors)     intcor
     41.93     -40.15       0.99       0.00       0.00       0.12       0.77       0.46

> <Gold.PLP.Fitness>
41.9322

> <Gold.PLP.PLP>
-40.1537

> <Gold.PLP.part.hbond>
-1.0000

> <Gold.PLP.part.metal>
0.0000

> <Gold.PLP.part.buried>
-1.3530

> <Gold.PLP.part.nonpolar>
-38.7381

> <Gold.PLP.part.repulsive>
0.0000

> <Gold.PLP.ligand.clash>
0.1171

> <Gold.PLP.ligand.torsion>
0.7691

> <Gold.PLP.Chemscore.Hbond>
0.9913

> <Gold.PLP.Chemscore.CHOScore>
0.0000

> <Gold.PLP.Chemscore.Metal>
0.0000

> <Gold.Chemscore.Hbonds>
donor molecule, donor type, donor heavy atom, donor atom, acceptor molecule, acceptor atom, score
      P1  H  2456  2461       L1     3  0.99

> <Gold.PLP.Chemscore.Internal.Correction>
0.4601

