#       Name:                EN300-344045_i001
#       Creating user name   fsindt
#       Creation time:       Tue Feb 28 20:11:54 2023


#       File generated by GOLD software.
#

@<TRIPOS>MOLECULE
EN300-344045_i001|acide_2|mol2|6937|dock1
    30    31     1
SMALL
USER_CHARGES


@<TRIPOS>ATOM
      1 O1           0.8889 -19.0765  12.6372 O.co2          1 <1>               -1.0000
      2 C2          -0.2137 -18.6006  12.4272 C.2            1 <1>                0.0000
      3 O3          -1.2065 -19.1334  12.8932 O.co2          1 <1>                0.0000
      4 C4          -0.3490 -17.3503  11.5969 C.3            1 <1>                0.0000
      5 C5           0.2642 -16.1686  12.3508 C.3            1 <1>                0.0000
      6 C6          -0.3928 -16.0296  13.7397 C.3            1 <1>                0.0000
      7 C7           0.5671 -16.7859  14.6913 C.3            1 <1>                0.0000
      8 C8           1.9633 -16.4253  14.1259 C.3            1 <1>                0.0000
      9 C9           1.7622 -16.4202  12.5964 C.3            1 <1>                0.0000
     10 C10          0.0756 -14.8990  11.5612 C.ar           1 <1>                0.0000
     11 C11         -0.8022 -13.9299  12.0099 C.ar           1 <1>                0.0000
     12 C12         -0.9752 -12.7654  11.2855 C.ar           1 <1>                0.0000
     13 C13         -0.2700 -12.5696  10.1128 C.ar           1 <1>                0.0000
     14 C14          0.6084 -13.5382   9.6645 C.ar           1 <1>                0.0000
     15 C15          0.7846 -14.7010  10.3912 C.ar           1 <1>                0.0000
     16 H16          0.1712 -17.4857  10.6486 H              1 <1>                0.0000
     17 H17         -1.4041 -17.1523  11.4074 H              1 <1>                0.0000
     18 H18         -0.4640 -14.9799  14.0247 H              1 <1>                0.0000
     19 H19         -1.3787 -16.4946  13.7437 H              1 <1>                0.0000
     20 H20          0.4599 -16.4255  15.7146 H              1 <1>                0.0000
     21 H21          0.3951 -17.8610  14.6392 H              1 <1>                0.0000
     22 H22          2.2727 -15.4396  14.4733 H              1 <1>                0.0000
     23 H23          2.6969 -17.1791  14.4117 H              1 <1>                0.0000
     24 H24          2.0523 -17.3841  12.1785 H              1 <1>                0.0000
     25 H25          2.3535 -15.6237  12.1447 H              1 <1>                0.0000
     26 H26         -1.3531 -14.0828  12.9261 H              1 <1>                0.0000
     27 H27         -1.6616 -12.0086  11.6357 H              1 <1>                0.0000
     28 H28         -0.4058 -11.6601   9.5465 H              1 <1>                0.0000
     29 H29          1.1591 -13.3855   8.7481 H              1 <1>                0.0000
     30 H30          1.4710 -15.4578  10.0410 H              1 <1>                0.0000
@<TRIPOS>BOND
    1    1    2 ar    
    2    2    3 ar    
    3    2    4 1     
    4    4    5 1     
    5    4   16 1     
    6    4   17 1     
    7    5    6 1     
    8    5    9 1     
    9    5   10 1     
   10    6    7 1     
   11    6   18 1     
   12    6   19 1     
   13    7    8 1     
   14    7   20 1     
   15    7   21 1     
   16    8    9 1     
   17    8   22 1     
   18    8   23 1     
   19    9   24 1     
   20    9   25 1     
   21   10   11 ar    
   22   10   15 ar    
   23   11   12 ar    
   24   11   26 1     
   25   12   13 ar    
   26   12   27 1     
   27   13   14 ar    
   28   13   28 1     
   29   14   15 ar    
   30   14   29 1     
   31   15   30 1     
@<TRIPOS>SUBSTRUCTURE
      1 ****           1
@<TRIPOS>COMMENT
> <Gold.Version>
2022.2.0

> <Gold.Id.Protein>
3pbl|protein|mol2

> <Gold.Protein.RotatedTorsions>
[ 1303 1298 1297 1294 ] final  -37.85 input  179.99 | X-H torsion
[ 2461 2456 2455 2452 ] final  174.96 input   30.03 | X-H torsion
[ 2515 2510 2509 2506 ] final -113.43 input  -89.99 | X-H torsion
[ 3721 3712 3711 3710 ] final   24.52 input -179.91 | X-H torsion
[ 3841 3832 3831 3830 ] final   20.10 input -179.91 | X-H torsion
[ 3767 3762 3761 3758 ] final   82.65 input  -89.99 | X-H torsion
[ 2472 2467 2466 2463 ] final   77.51 input  -89.97 | X-H torsion

> <Gold.Protein.ActiveResidues>
 VAL82   VAL86   LEU89   PHE106  VAL107  ASP110  VAL111  MET112  CYS114  THR115 
 CYS181  SER182  ILE183  PHE188  VAL189  ILE190  SER192  SER193  SER196  TRP342 
 PHE345  PHE346  HIS349  VAL350  TYR365  THR369  GLY372  TYR373 

> <Gold.Protein.RotatedAtoms>
    3.3602   -9.3092    3.8107 H   0  0  0  0  0  0  0  0  0  0  0  0  # atno 1303 bound_to 1298
    1.5284   -9.1880    8.3994 H   0  0  0  0  0  0  0  0  0  0  0  0  # atno 2461 bound_to 2456
   -4.9212   -4.8689    7.7107 H   0  0  0  0  0  0  0  0  0  0  0  0  # atno 2472 bound_to 2467
    2.7458   -9.1627    4.9062 H   0  0  0  0  0  0  0  0  0  0  0  0  # atno 2515 bound_to 2510
   -2.4745  -18.0340   13.8830 H   0  0  0  0  0  0  0  0  0  0  0  0  # atno 3721 bound_to 3712
   -4.2756  -23.3354   10.4135 H   0  0  0  0  0  0  0  0  0  0  0  0  # atno 3767 bound_to 3762
    1.9441  -20.6980    9.6192 H   0  0  0  0  0  0  0  0  0  0  0  0  # atno 3841 bound_to 3832
    4.6903   -8.6301    4.4709 LP  0  0  0  0  0  0  0  0  0  0  0  0  # atno 4297 bound_to 1298
    4.3119  -10.1820    4.8101 LP  0  0  0  0  0  0  0  0  0  0  0  0  # atno 4298 bound_to 1298
    1.8587   -8.0003    7.3281 LP  0  0  0  0  0  0  0  0  0  0  0  0  # atno 4299 bound_to 2456
    0.3507   -8.6200    7.4208 LP  0  0  0  0  0  0  0  0  0  0  0  0  # atno 4300 bound_to 2456
    2.0552   -8.2712    6.0870 LP  0  0  0  0  0  0  0  0  0  0  0  0  # atno 4301 bound_to 2510
    2.4956   -7.5649    4.6821 LP  0  0  0  0  0  0  0  0  0  0  0  0  # atno 4302 bound_to 2510
   -3.2755  -16.9311   14.7315 LP  0  0  0  0  0  0  0  0  0  0  0  0  # atno 4306 bound_to 3712
   -3.3953  -16.9746   13.1035 LP  0  0  0  0  0  0  0  0  0  0  0  0  # atno 4307 bound_to 3712
    1.8553  -19.6402    8.4154 LP  0  0  0  0  0  0  0  0  0  0  0  0  # atno 4314 bound_to 3832
    3.1283  -20.6559    8.5366 LP  0  0  0  0  0  0  0  0  0  0  0  0  # atno 4315 bound_to 3832
   -5.5104  -22.2709   10.5088 LP  0  0  0  0  0  0  0  0  0  0  0  0  # atno 4318 bound_to 3762
   -4.3411  -22.2690   11.6486 LP  0  0  0  0  0  0  0  0  0  0  0  0  # atno 4319 bound_to 3762
   -3.6441   -5.0859    8.7048 LP  0  0  0  0  0  0  0  0  0  0  0  0  # atno 4320 bound_to 2467
   -5.1517   -5.4387    9.2235 LP  0  0  0  0  0  0  0  0  0  0  0  0  # atno 4321 bound_to 2467

> <Gold.Score>
     Score     S(PLP)   S(hbond)     S(cho)   S(metal)  DE(clash)   DE(tors)     intcor
     47.09     -44.35       1.00       0.00       0.00       0.00       0.36       0.47

> <Gold.PLP.Fitness>
47.0896

> <Gold.PLP.PLP>
-44.3526

> <Gold.PLP.part.hbond>
-1.0000

> <Gold.PLP.part.metal>
0.0000

> <Gold.PLP.part.buried>
-3.6553

> <Gold.PLP.part.nonpolar>
-40.1482

> <Gold.PLP.part.repulsive>
0.0623

> <Gold.PLP.ligand.clash>
0.0000

> <Gold.PLP.ligand.torsion>
0.3650

> <Gold.PLP.Chemscore.Hbond>
1.0000

> <Gold.PLP.Chemscore.CHOScore>
0.0000

> <Gold.PLP.Chemscore.Metal>
0.0000

> <Gold.Chemscore.Hbonds>
donor molecule, donor type, donor heavy atom, donor atom, acceptor molecule, acceptor atom, score
      P1  H  3712  3721       L1     3  1.00

> <Gold.PLP.Chemscore.Internal.Correction>
0.4669

