#       Name:                EN300-344045_i001
#       Creating user name   fsindt
#       Creation time:       Tue Feb 28 20:12:03 2023


#       File generated by GOLD software.
#

@<TRIPOS>MOLECULE
EN300-344045_i001|acide_2|mol2|6937|dock16
    30    31     1
SMALL
USER_CHARGES


@<TRIPOS>ATOM
      1 O1          -1.8849 -20.2280  16.5725 O.co2          1 <1>               -1.0000
      2 C2          -1.1077 -19.5637  15.9083 C.2            1 <1>                0.0000
      3 O3          -1.3467 -18.3892  15.6843 O.co2          1 <1>                0.0000
      4 C4           0.1515 -20.1925  15.3696 C.3            1 <1>                0.0000
      5 C5           0.3053 -19.8382  13.8892 C.3            1 <1>                0.0000
      6 C6           1.3791 -20.7356  13.2399 C.3            1 <1>                0.0000
      7 C7           0.5714 -21.8922  12.6005 C.3            1 <1>                0.0000
      8 C8          -0.6903 -21.1721  12.0635 C.3            1 <1>                0.0000
      9 C9          -1.0104 -20.1157  13.1413 C.3            1 <1>                0.0000
     10 C10          0.6875 -18.3877  13.7429 C.ar           1 <1>                0.0000
     11 C11         -0.1032 -17.5368  12.9936 C.ar           1 <1>                0.0000
     12 C12          0.2474 -16.2065  12.8594 C.ar           1 <1>                0.0000
     13 C13          1.3884 -15.7268  13.4750 C.ar           1 <1>                0.0000
     14 C14          2.1786 -16.5776  14.2251 C.ar           1 <1>                0.0000
     15 C15          1.8257 -17.9071  14.3629 C.ar           1 <1>                0.0000
     16 H16          1.0113 -19.8168  15.9244 H              1 <1>                0.0000
     17 H17          0.0928 -21.2753  15.4799 H              1 <1>                0.0000
     18 H18          1.9259 -20.1839  12.4753 H              1 <1>                0.0000
     19 H19          2.0630 -21.1205  13.9964 H              1 <1>                0.0000
     20 H20          1.1316 -22.3498  11.7849 H              1 <1>                0.0000
     21 H21          0.3020 -22.6360  13.3504 H              1 <1>                0.0000
     22 H22         -0.4778 -20.6908  11.1089 H              1 <1>                0.0000
     23 H23         -1.5167 -21.8755  11.9615 H              1 <1>                0.0000
     24 H24         -1.7586 -20.5028  13.8329 H              1 <1>                0.0000
     25 H25         -1.3730 -19.2013  12.6718 H              1 <1>                0.0000
     26 H26         -0.9947 -17.9115  12.5126 H              1 <1>                0.0000
     27 H27         -0.3700 -15.5418  12.2733 H              1 <1>                0.0000
     28 H28          1.6627 -14.6876  13.3696 H              1 <1>                0.0000
     29 H29          3.0703 -16.2030  14.7058 H              1 <1>                0.0000
     30 H30          2.4431 -18.5717  14.9489 H              1 <1>                0.0000
@<TRIPOS>BOND
    1    1    2 ar    
    2    2    3 ar    
    3    2    4 1     
    4    4    5 1     
    5    4   16 1     
    6    4   17 1     
    7    5    6 1     
    8    5    9 1     
    9    5   10 1     
   10    6    7 1     
   11    6   18 1     
   12    6   19 1     
   13    7    8 1     
   14    7   20 1     
   15    7   21 1     
   16    8    9 1     
   17    8   22 1     
   18    8   23 1     
   19    9   24 1     
   20    9   25 1     
   21   10   11 ar    
   22   10   15 ar    
   23   11   12 ar    
   24   11   26 1     
   25   12   13 ar    
   26   12   27 1     
   27   13   14 ar    
   28   13   28 1     
   29   14   15 ar    
   30   14   29 1     
   31   15   30 1     
@<TRIPOS>SUBSTRUCTURE
      1 ****           1
@<TRIPOS>COMMENT
> <Gold.Version>
2022.2.0

> <Gold.Id.Protein>
3pbl|protein|mol2

> <Gold.Protein.RotatedTorsions>
[ 1303 1298 1297 1294 ] final  -80.29 input  179.99 | X-H torsion
[ 2461 2456 2455 2452 ] final  173.50 input   30.03 | X-H torsion
[ 2515 2510 2509 2506 ] final   70.13 input  -89.99 | X-H torsion
[ 3721 3712 3711 3710 ] final  -30.26 input -179.91 | X-H torsion
[ 3841 3832 3831 3830 ] final   56.43 input -179.91 | X-H torsion
[ 3767 3762 3761 3758 ] final  129.47 input  -89.99 | X-H torsion
[ 2472 2467 2466 2463 ] final  -52.95 input  -89.97 | X-H torsion

> <Gold.Protein.ActiveResidues>
 VAL82   VAL86   LEU89   PHE106  VAL107  ASP110  VAL111  MET112  CYS114  THR115 
 CYS181  SER182  ILE183  PHE188  VAL189  ILE190  SER192  SER193  SER196  TRP342 
 PHE345  PHE346  HIS349  VAL350  TYR365  THR369  GLY372  TYR373 

> <Gold.Protein.RotatedAtoms>
    3.7067   -8.7217    3.8236 H   0  0  0  0  0  0  0  0  0  0  0  0  # atno 1303 bound_to 1298
    1.5506   -9.1787    8.3978 H   0  0  0  0  0  0  0  0  0  0  0  0  # atno 2461 bound_to 2456
   -3.6836   -5.1472    8.8606 H   0  0  0  0  0  0  0  0  0  0  0  0  # atno 2472 bound_to 2467
    2.1037   -7.5303    5.5938 H   0  0  0  0  0  0  0  0  0  0  0  0  # atno 2515 bound_to 2510
   -2.6045  -17.6970   14.5933 H   0  0  0  0  0  0  0  0  0  0  0  0  # atno 3721 bound_to 3712
   -3.9200  -23.1102   11.0334 H   0  0  0  0  0  0  0  0  0  0  0  0  # atno 3767 bound_to 3762
    2.4222  -20.9334    9.5340 H   0  0  0  0  0  0  0  0  0  0  0  0  # atno 3841 bound_to 3832
    4.9118   -9.1649    4.8323 LP  0  0  0  0  0  0  0  0  0  0  0  0  # atno 4297 bound_to 1298
    3.7438  -10.2350    4.4359 LP  0  0  0  0  0  0  0  0  0  0  0  0  # atno 4298 bound_to 1298
    1.8411   -7.9921    7.3138 LP  0  0  0  0  0  0  0  0  0  0  0  0  # atno 4299 bound_to 2456
    0.3461   -8.6375    7.4367 LP  0  0  0  0  0  0  0  0  0  0  0  0  # atno 4300 bound_to 2456
    2.7995   -8.3374    4.3567 LP  0  0  0  0  0  0  0  0  0  0  0  0  # atno 4301 bound_to 2510
    2.3937   -9.1318    5.7246 LP  0  0  0  0  0  0  0  0  0  0  0  0  # atno 4302 bound_to 2510
   -3.5568  -16.5559   13.9859 LP  0  0  0  0  0  0  0  0  0  0  0  0  # atno 4306 bound_to 3712
   -2.9640  -17.7390   13.0290 LP  0  0  0  0  0  0  0  0  0  0  0  0  # atno 4307 bound_to 3712
    1.4776  -19.8429    8.8308 LP  0  0  0  0  0  0  0  0  0  0  0  0  # atno 4314 bound_to 3832
    2.9537  -20.1811    8.2196 LP  0  0  0  0  0  0  0  0  0  0  0  0  # atno 4315 bound_to 3832
   -5.2301  -22.8319   10.0990 LP  0  0  0  0  0  0  0  0  0  0  0  0  # atno 4318 bound_to 3762
   -4.9770  -21.9331   11.4387 LP  0  0  0  0  0  0  0  0  0  0  0  0  # atno 4319 bound_to 3762
   -5.2759   -5.4108    9.1081 LP  0  0  0  0  0  0  0  0  0  0  0  0  # atno 4320 bound_to 2467
   -4.7573   -4.8356    7.6705 LP  0  0  0  0  0  0  0  0  0  0  0  0  # atno 4321 bound_to 2467

> <Gold.Score>
     Score     S(PLP)   S(hbond)     S(cho)   S(metal)  DE(clash)   DE(tors)     intcor
     38.76     -36.32       1.00       0.00       0.00       0.45       0.28       0.44

> <Gold.PLP.Fitness>
38.7569

> <Gold.PLP.PLP>
-36.3221

> <Gold.PLP.part.hbond>
-1.0000

> <Gold.PLP.part.metal>
0.0000

> <Gold.PLP.part.buried>
-3.7759

> <Gold.PLP.part.nonpolar>
-32.3624

> <Gold.PLP.part.repulsive>
0.0126

> <Gold.PLP.ligand.clash>
0.4462

> <Gold.PLP.ligand.torsion>
0.2772

> <Gold.PLP.Chemscore.Hbond>
1.0000

> <Gold.PLP.Chemscore.CHOScore>
0.0000

> <Gold.PLP.Chemscore.Metal>
0.0000

> <Gold.Chemscore.Hbonds>
donor molecule, donor type, donor heavy atom, donor atom, acceptor molecule, acceptor atom, score
      P1  H  3712  3721       L1     3  1.00

> <Gold.PLP.Chemscore.Internal.Correction>
0.4354

