#       Name:                EN300-344045_i001
#       Creating user name   fsindt
#       Creation time:       Tue Feb 28 20:11:55 2023


#       File generated by GOLD software.
#

@<TRIPOS>MOLECULE
EN300-344045_i001|acide_2|mol2|6937|dock3
    30    31     1
SMALL
USER_CHARGES


@<TRIPOS>ATOM
      1 O1           1.6992 -14.4985  10.4947 O.co2          1 <1>               -1.0000
      2 C2           0.5459 -14.5453  10.1019 C.2            1 <1>                0.0000
      3 O3           0.1752 -15.4776   9.4091 O.co2          1 <1>                0.0000
      4 C4          -0.4230 -13.4540  10.4780 C.3            1 <1>                0.0000
      5 C5          -0.6345 -12.5251   9.2809 C.3            1 <1>                0.0000
      6 C6           0.6374 -11.6890   9.0294 C.3            1 <1>                0.0000
      7 C7           1.4011 -12.4785   7.9373 C.3            1 <1>                0.0000
      8 C8           0.2593 -12.9923   7.0255 C.3            1 <1>                0.0000
      9 C9          -0.8749 -13.3536   8.0068 C.3            1 <1>                0.0000
     10 C10         -1.8085 -11.6149   9.5352 C.ar           1 <1>                0.0000
     11 C11         -3.0826 -12.1418   9.6348 C.ar           1 <1>                0.0000
     12 C12         -4.1594 -11.3070   9.8680 C.ar           1 <1>                0.0000
     13 C13         -3.9620  -9.9453  10.0023 C.ar           1 <1>                0.0000
     14 C14         -2.6878  -9.4186   9.9036 C.ar           1 <1>                0.0000
     15 C15         -1.6104 -10.2540   9.6747 C.ar           1 <1>                0.0000
     16 H16         -1.3759 -13.8977  10.7665 H              1 <1>                0.0000
     17 H17         -0.0201 -12.8827  11.3144 H              1 <1>                0.0000
     18 H18          0.3751 -10.6947   8.6682 H              1 <1>                0.0000
     19 H19          1.2348 -11.6204   9.9386 H              1 <1>                0.0000
     20 H20          2.0718 -11.8214   7.3835 H              1 <1>                0.0000
     21 H21          1.9500 -13.3119   8.3758 H              1 <1>                0.0000
     22 H22         -0.0641 -12.2083   6.3407 H              1 <1>                0.0000
     23 H23          0.5807 -13.8747   6.4723 H              1 <1>                0.0000
     24 H24         -0.8408 -14.4175   8.2413 H              1 <1>                0.0000
     25 H25         -1.8409 -13.0975   7.5716 H              1 <1>                0.0000
     26 H26         -3.2369 -13.2055   9.5299 H              1 <1>                0.0000
     27 H27         -5.1549 -11.7185   9.9450 H              1 <1>                0.0000
     28 H28         -4.8033  -9.2931  10.1838 H              1 <1>                0.0000
     29 H29         -2.5335  -8.3548  10.0082 H              1 <1>                0.0000
     30 H30         -0.6148  -9.8425   9.5976 H              1 <1>                0.0000
@<TRIPOS>BOND
    1    1    2 ar    
    2    2    3 ar    
    3    2    4 1     
    4    4    5 1     
    5    4   16 1     
    6    4   17 1     
    7    5    6 1     
    8    5    9 1     
    9    5   10 1     
   10    6    7 1     
   11    6   18 1     
   12    6   19 1     
   13    7    8 1     
   14    7   20 1     
   15    7   21 1     
   16    8    9 1     
   17    8   22 1     
   18    8   23 1     
   19    9   24 1     
   20    9   25 1     
   21   10   11 ar    
   22   10   15 ar    
   23   11   12 ar    
   24   11   26 1     
   25   12   13 ar    
   26   12   27 1     
   27   13   14 ar    
   28   13   28 1     
   29   14   15 ar    
   30   14   29 1     
   31   15   30 1     
@<TRIPOS>SUBSTRUCTURE
      1 ****           1
@<TRIPOS>COMMENT
> <Gold.Version>
2022.2.0

> <Gold.Id.Protein>
3pbl|protein|mol2

> <Gold.Protein.RotatedTorsions>
[ 1303 1298 1297 1294 ] final -176.91 input  179.99 | X-H torsion
[ 2461 2456 2455 2452 ] final -159.18 input   30.03 | X-H torsion
[ 2515 2510 2509 2506 ] final  153.98 input  -89.99 | X-H torsion
[ 3721 3712 3711 3710 ] final  -46.87 input -179.91 | X-H torsion
[ 3841 3832 3831 3830 ] final   98.40 input -179.91 | X-H torsion
[ 3767 3762 3761 3758 ] final  -21.41 input  -89.99 | X-H torsion
[ 2472 2467 2466 2463 ] final  -32.35 input  -89.97 | X-H torsion

> <Gold.Protein.ActiveResidues>
 VAL82   VAL86   LEU89   PHE106  VAL107  ASP110  VAL111  MET112  CYS114  THR115 
 CYS181  SER182  ILE183  PHE188  VAL189  ILE190  SER192  SER193  SER196  TRP342 
 PHE345  PHE346  HIS349  VAL350  TYR365  THR369  GLY372  TYR373 

> <Gold.Protein.RotatedAtoms>
    4.8380   -8.8354    4.6538 H   0  0  0  0  0  0  0  0  0  0  0  0  # atno 1303 bound_to 1298
    1.1203   -9.2855    8.3543 H   0  0  0  0  0  0  0  0  0  0  0  0  # atno 2461 bound_to 2456
   -3.6350   -5.0293    8.5484 H   0  0  0  0  0  0  0  0  0  0  0  0  # atno 2472 bound_to 2467
    2.1643   -8.7028    6.0495 H   0  0  0  0  0  0  0  0  0  0  0  0  # atno 2515 bound_to 2510
   -2.7070  -17.5002   14.7092 H   0  0  0  0  0  0  0  0  0  0  0  0  # atno 3721 bound_to 3712
   -5.4691  -22.4532   10.3259 H   0  0  0  0  0  0  0  0  0  0  0  0  # atno 3767 bound_to 3762
    2.9263  -20.8827    9.1765 H   0  0  0  0  0  0  0  0  0  0  0  0  # atno 3841 bound_to 3832
    4.0506  -10.2658    4.6610 LP  0  0  0  0  0  0  0  0  0  0  0  0  # atno 4297 bound_to 1298
    3.4733   -9.0204    3.7766 LP  0  0  0  0  0  0  0  0  0  0  0  0  # atno 4298 bound_to 1298
    2.0939   -8.2036    7.6134 LP  0  0  0  0  0  0  0  0  0  0  0  0  # atno 4299 bound_to 2456
    0.5235   -8.3192    7.1806 LP  0  0  0  0  0  0  0  0  0  0  0  0  # atno 4300 bound_to 2456
    2.3050   -7.4141    5.0569 LP  0  0  0  0  0  0  0  0  0  0  0  0  # atno 4301 bound_to 2510
    2.8276   -8.8821    4.5684 LP  0  0  0  0  0  0  0  0  0  0  0  0  # atno 4302 bound_to 2510
   -3.5661  -16.5823   13.7106 LP  0  0  0  0  0  0  0  0  0  0  0  0  # atno 4306 bound_to 3712
   -2.8364  -17.9397   13.1704 LP  0  0  0  0  0  0  0  0  0  0  0  0  # atno 4307 bound_to 3712
    1.4231  -20.3351    9.3052 LP  0  0  0  0  0  0  0  0  0  0  0  0  # atno 4314 bound_to 3832
    2.4259  -19.7475    8.1582 LP  0  0  0  0  0  0  0  0  0  0  0  0  # atno 4315 bound_to 3832
   -4.5512  -22.1137   11.6332 LP  0  0  0  0  0  0  0  0  0  0  0  0  # atno 4318 bound_to 3762
   -4.1074  -23.3081   10.6118 LP  0  0  0  0  0  0  0  0  0  0  0  0  # atno 4319 bound_to 3762
   -5.0128   -5.4560    9.3140 LP  0  0  0  0  0  0  0  0  0  0  0  0  # atno 4320 bound_to 2467
   -5.0690   -4.9082    7.7767 LP  0  0  0  0  0  0  0  0  0  0  0  0  # atno 4321 bound_to 2467

> <Gold.Score>
     Score     S(PLP)   S(hbond)     S(cho)   S(metal)  DE(clash)   DE(tors)     intcor
     48.85     -49.50       0.00       0.00       0.00       0.23       0.44       0.46

> <Gold.PLP.Fitness>
48.8516

> <Gold.PLP.PLP>
-49.4983

> <Gold.PLP.part.hbond>
0.0000

> <Gold.PLP.part.metal>
0.0000

> <Gold.PLP.part.buried>
-1.5958

> <Gold.PLP.part.nonpolar>
-49.2107

> <Gold.PLP.part.repulsive>
0.2132

> <Gold.PLP.ligand.clash>
0.2274

> <Gold.PLP.ligand.torsion>
0.4413

> <Gold.PLP.Chemscore.Hbond>
0.0000

> <Gold.PLP.Chemscore.CHOScore>
0.0000

> <Gold.PLP.Chemscore.Metal>
0.0000

> <Gold.PLP.Chemscore.Internal.Correction>
0.4633

