#       Name:                EN300-344045_i001
#       Creating user name   fsindt
#       Creation time:       Tue Feb 28 20:11:59 2023


#       File generated by GOLD software.
#

@<TRIPOS>MOLECULE
EN300-344045_i001|acide_2|mol2|6937|dock11
    30    31     1
SMALL
USER_CHARGES


@<TRIPOS>ATOM
      1 O1           0.1935 -10.9329   7.5278 O.co2          1 <1>               -1.0000
      2 C2           0.7012 -11.5992   8.4136 C.2            1 <1>                0.0000
      3 O3           1.3915 -12.5639   8.1314 O.co2          1 <1>                0.0000
      4 C4           0.4807 -11.2269   9.8572 C.3            1 <1>                0.0000
      5 C5          -0.7924 -11.9033  10.3696 C.3            1 <1>                0.0000
      6 C6          -1.3335 -11.1474  11.6008 C.3            1 <1>                0.0000
      7 C7          -2.4014 -10.1885  11.0185 C.3            1 <1>                0.0000
      8 C8          -3.0637 -11.0459   9.9116 C.3            1 <1>                0.0000
      9 C9          -1.8924 -11.8388   9.2957 C.3            1 <1>                0.0000
     10 C10         -0.5049 -13.3381  10.7300 C.ar           1 <1>                0.0000
     11 C11         -0.0797 -14.2233   9.7572 C.ar           1 <1>                0.0000
     12 C12          0.1839 -15.5393  10.0878 C.ar           1 <1>                0.0000
     13 C13          0.0229 -15.9701  11.3915 C.ar           1 <1>                0.0000
     14 C14         -0.4014 -15.0847  12.3645 C.ar           1 <1>                0.0000
     15 C15         -0.6609 -13.7675  12.0347 C.ar           1 <1>                0.0000
     16 H16          1.3324 -11.5575  10.4519 H              1 <1>                0.0000
     17 H17          0.3766 -10.1451   9.9416 H              1 <1>                0.0000
     18 H18         -1.7891 -11.8430  12.3055 H              1 <1>                0.0000
     19 H19         -0.5356 -10.5824  12.0827 H              1 <1>                0.0000
     20 H20         -3.1298  -9.9126  11.7812 H              1 <1>                0.0000
     21 H21         -1.9327  -9.3017  10.5917 H              1 <1>                0.0000
     22 H22         -3.7987 -11.7251  10.3436 H              1 <1>                0.0000
     23 H23         -3.5284 -10.4069   9.1608 H              1 <1>                0.0000
     24 H24         -1.5194 -11.3255   8.4094 H              1 <1>                0.0000
     25 H25         -2.2191 -12.8454   9.0349 H              1 <1>                0.0000
     26 H26          0.0461 -13.8869   8.7387 H              1 <1>                0.0000
     27 H27          0.5153 -16.2312   9.3276 H              1 <1>                0.0000
     28 H28          0.2281 -16.9984  11.6496 H              1 <1>                0.0000
     29 H29         -0.5276 -15.4212  13.3830 H              1 <1>                0.0000
     30 H30         -0.9924 -13.0757  12.7949 H              1 <1>                0.0000
@<TRIPOS>BOND
    1    1    2 ar    
    2    2    3 ar    
    3    2    4 1     
    4    4    5 1     
    5    4   16 1     
    6    4   17 1     
    7    5    6 1     
    8    5    9 1     
    9    5   10 1     
   10    6    7 1     
   11    6   18 1     
   12    6   19 1     
   13    7    8 1     
   14    7   20 1     
   15    7   21 1     
   16    8    9 1     
   17    8   22 1     
   18    8   23 1     
   19    9   24 1     
   20    9   25 1     
   21   10   11 ar    
   22   10   15 ar    
   23   11   12 ar    
   24   11   26 1     
   25   12   13 ar    
   26   12   27 1     
   27   13   14 ar    
   28   13   28 1     
   29   14   15 ar    
   30   14   29 1     
   31   15   30 1     
@<TRIPOS>SUBSTRUCTURE
      1 ****           1
@<TRIPOS>COMMENT
> <Gold.Version>
2022.2.0

> <Gold.Id.Protein>
3pbl|protein|mol2

> <Gold.Protein.RotatedTorsions>
[ 1303 1298 1297 1294 ] final   55.36 input  179.99 | X-H torsion
[ 2461 2456 2455 2452 ] final -118.56 input   30.03 | X-H torsion
[ 2515 2510 2509 2506 ] final -120.28 input  -89.99 | X-H torsion
[ 3721 3712 3711 3710 ] final   48.38 input -179.91 | X-H torsion
[ 3841 3832 3831 3830 ] final  158.07 input -179.91 | X-H torsion
[ 3767 3762 3761 3758 ] final   59.05 input  -89.99 | X-H torsion
[ 2472 2467 2466 2463 ] final  -26.63 input  -89.97 | X-H torsion

> <Gold.Protein.ActiveResidues>
 VAL82   VAL86   LEU89   PHE106  VAL107  ASP110  VAL111  MET112  CYS114  THR115 
 CYS181  SER182  ILE183  PHE188  VAL189  ILE190  SER192  SER193  SER196  TRP342 
 PHE345  PHE346  HIS349  VAL350  TYR365  THR369  GLY372  TYR373 

> <Gold.Protein.RotatedAtoms>
    3.9450  -10.2717    4.5906 H   0  0  0  0  0  0  0  0  0  0  0  0  # atno 1303 bound_to 1298
    0.5602   -9.1645    8.0379 H   0  0  0  0  0  0  0  0  0  0  0  0  # atno 2461 bound_to 2456
   -3.6429   -4.9983    8.4600 H   0  0  0  0  0  0  0  0  0  0  0  0  # atno 2472 bound_to 2467
    2.7132   -9.2053    5.0052 H   0  0  0  0  0  0  0  0  0  0  0  0  # atno 2515 bound_to 2510
   -2.5370  -17.9791   13.5347 H   0  0  0  0  0  0  0  0  0  0  0  0  # atno 3721 bound_to 3712
   -4.5823  -23.2764   10.1871 H   0  0  0  0  0  0  0  0  0  0  0  0  # atno 3767 bound_to 3762
    3.0985  -20.3098    8.5569 H   0  0  0  0  0  0  0  0  0  0  0  0  # atno 3841 bound_to 3832
    3.5404   -8.9124    3.7813 LP  0  0  0  0  0  0  0  0  0  0  0  0  # atno 4297 bound_to 1298
    4.8768   -8.9369    4.7195 LP  0  0  0  0  0  0  0  0  0  0  0  0  # atno 4298 bound_to 1298
    2.1139   -8.6629    8.0791 LP  0  0  0  0  0  0  0  0  0  0  0  0  # atno 4299 bound_to 2456
    1.0635   -7.9810    7.0312 LP  0  0  0  0  0  0  0  0  0  0  0  0  # atno 4300 bound_to 2456
    2.0407   -8.1617    6.0655 LP  0  0  0  0  0  0  0  0  0  0  0  0  # atno 4301 bound_to 2510
    2.5427   -7.6317    4.6047 LP  0  0  0  0  0  0  0  0  0  0  0  0  # atno 4302 bound_to 2510
   -3.0806  -17.2514   14.8586 LP  0  0  0  0  0  0  0  0  0  0  0  0  # atno 4306 bound_to 3712
   -3.5180  -16.7177   13.3785 LP  0  0  0  0  0  0  0  0  0  0  0  0  # atno 4307 bound_to 3712
    2.0432  -21.0207    9.5351 LP  0  0  0  0  0  0  0  0  0  0  0  0  # atno 4314 bound_to 3832
    1.6069  -19.7237    8.6440 LP  0  0  0  0  0  0  0  0  0  0  0  0  # atno 4315 bound_to 3832
   -5.4585  -22.0539   10.8233 LP  0  0  0  0  0  0  0  0  0  0  0  0  # atno 4318 bound_to 3762
   -4.0866  -22.5450   11.5605 LP  0  0  0  0  0  0  0  0  0  0  0  0  # atno 4319 bound_to 3762
   -4.9281   -5.4613    9.3546 LP  0  0  0  0  0  0  0  0  0  0  0  0  # atno 4320 bound_to 2467
   -5.1457   -4.9339    7.8246 LP  0  0  0  0  0  0  0  0  0  0  0  0  # atno 4321 bound_to 2467

> <Gold.Score>
     Score     S(PLP)   S(hbond)     S(cho)   S(metal)  DE(clash)   DE(tors)     intcor
     49.15     -47.64       0.94       0.00       0.00       0.39       0.68       0.44

> <Gold.PLP.Fitness>
49.1482

> <Gold.PLP.PLP>
-47.6392

> <Gold.PLP.part.hbond>
-1.0000

> <Gold.PLP.part.metal>
0.0000

> <Gold.PLP.part.buried>
-2.7597

> <Gold.PLP.part.nonpolar>
-44.8874

> <Gold.PLP.part.repulsive>
0.0562

> <Gold.PLP.ligand.clash>
0.3908

> <Gold.PLP.ligand.torsion>
0.6838

> <Gold.PLP.Chemscore.Hbond>
0.9440

> <Gold.PLP.Chemscore.CHOScore>
0.0000

> <Gold.PLP.Chemscore.Metal>
0.0000

> <Gold.Chemscore.Hbonds>
donor molecule, donor type, donor heavy atom, donor atom, acceptor molecule, acceptor atom, score
      P1  H  2456  2461       L1     1  0.94

> <Gold.PLP.Chemscore.Internal.Correction>
0.4354

