#       Name:                EN300-344045_i001
#       Creating user name   fsindt
#       Creation time:       Tue Feb 28 20:12:05 2023


#       File generated by GOLD software.
#

@<TRIPOS>MOLECULE
EN300-344045_i001|acide_2|mol2|6937|dock18
    30    31     1
SMALL
USER_CHARGES


@<TRIPOS>ATOM
      1 O1           0.9107 -16.5356  15.1365 O.co2          1 <1>               -1.0000
      2 C2          -0.1738 -16.5000  14.5806 C.2            1 <1>                0.0000
      3 O3          -1.0360 -17.3108  14.8738 O.co2          1 <1>                0.0000
      4 C4          -0.4508 -15.4500  13.5357 C.3            1 <1>                0.0000
      5 C5           0.3446 -15.7693  12.2684 C.3            1 <1>                0.0000
      6 C6           1.8442 -15.9028  12.6054 C.3            1 <1>                0.0000
      7 C7           2.0565 -17.4251  12.7967 C.3            1 <1>                0.0000
      8 C8           1.1455 -18.0372  11.7038 C.3            1 <1>                0.0000
      9 C9          -0.0995 -17.1264  11.6952 C.3            1 <1>                0.0000
     10 C10          0.1405 -14.6832  11.2438 C.ar           1 <1>                0.0000
     11 C11         -0.7507 -13.6563  11.4933 C.ar           1 <1>                0.0000
     12 C12         -0.9379 -12.6601  10.5535 C.ar           1 <1>                0.0000
     13 C13         -0.2336 -12.6905   9.3643 C.ar           1 <1>                0.0000
     14 C14          0.6582 -13.7169   9.1153 C.ar           1 <1>                0.0000
     15 C15          0.8486 -14.7108  10.0570 C.ar           1 <1>                0.0000
     16 H16         -1.5159 -15.4406  13.3035 H              1 <1>                0.0000
     17 H17         -0.1530 -14.4725  13.9151 H              1 <1>                0.0000
     18 H18          2.4546 -15.5330  11.7815 H              1 <1>                0.0000
     19 H19          2.0778 -15.3665  13.5251 H              1 <1>                0.0000
     20 H20          3.0989 -17.6942  12.6260 H              1 <1>                0.0000
     21 H21          1.7330 -17.7385  13.7893 H              1 <1>                0.0000
     22 H22          1.6431 -18.0122  10.7343 H              1 <1>                0.0000
     23 H23          0.8692 -19.0586  11.9655 H              1 <1>                0.0000
     24 H24         -0.8818 -17.5576  12.3198 H              1 <1>                0.0000
     25 H25         -0.4628 -17.0001  10.6753 H              1 <1>                0.0000
     26 H26         -1.3009 -13.6326  12.4223 H              1 <1>                0.0000
     27 H27         -1.6347 -11.8583  10.7480 H              1 <1>                0.0000
     28 H28         -0.3805 -11.9126   8.6298 H              1 <1>                0.0000
     29 H29          1.2082 -13.7409   8.1861 H              1 <1>                0.0000
     30 H30          1.5454 -15.5127   9.8624 H              1 <1>                0.0000
@<TRIPOS>BOND
    1    1    2 ar    
    2    2    3 ar    
    3    2    4 1     
    4    4    5 1     
    5    4   16 1     
    6    4   17 1     
    7    5    6 1     
    8    5    9 1     
    9    5   10 1     
   10    6    7 1     
   11    6   18 1     
   12    6   19 1     
   13    7    8 1     
   14    7   20 1     
   15    7   21 1     
   16    8    9 1     
   17    8   22 1     
   18    8   23 1     
   19    9   24 1     
   20    9   25 1     
   21   10   11 ar    
   22   10   15 ar    
   23   11   12 ar    
   24   11   26 1     
   25   12   13 ar    
   26   12   27 1     
   27   13   14 ar    
   28   13   28 1     
   29   14   15 ar    
   30   14   29 1     
   31   15   30 1     
@<TRIPOS>SUBSTRUCTURE
      1 ****           1
@<TRIPOS>COMMENT
> <Gold.Version>
2022.2.0

> <Gold.Id.Protein>
3pbl|protein|mol2

> <Gold.Protein.RotatedTorsions>
[ 1303 1298 1297 1294 ] final -106.64 input  179.99 | X-H torsion
[ 2461 2456 2455 2452 ] final -112.42 input   30.03 | X-H torsion
[ 2515 2510 2509 2506 ] final  -62.78 input  -89.99 | X-H torsion
[ 3721 3712 3711 3710 ] final  -34.87 input -179.91 | X-H torsion
[ 3841 3832 3831 3830 ] final   47.12 input -179.91 | X-H torsion
[ 3767 3762 3761 3758 ] final  172.66 input  -89.99 | X-H torsion
[ 2472 2467 2466 2463 ] final  105.68 input  -89.97 | X-H torsion

> <Gold.Protein.ActiveResidues>
 VAL82   VAL86   LEU89   PHE106  VAL107  ASP110  VAL111  MET112  CYS114  THR115 
 CYS181  SER182  ILE183  PHE188  VAL189  ILE190  SER192  SER193  SER196  TRP342 
 PHE345  PHE346  HIS349  VAL350  TYR365  THR369  GLY372  TYR373 

> <Gold.Protein.RotatedAtoms>
    4.0491   -8.5153    3.9813 H   0  0  0  0  0  0  0  0  0  0  0  0  # atno 1303 bound_to 1298
    0.4992   -9.1191    7.9712 H   0  0  0  0  0  0  0  0  0  0  0  0  # atno 2461 bound_to 2456
   -5.2907   -4.9962    7.9510 H   0  0  0  0  0  0  0  0  0  0  0  0  # atno 2472 bound_to 2467
    2.8276   -8.5438    4.3959 H   0  0  0  0  0  0  0  0  0  0  0  0  # atno 2515 bound_to 2510
   -2.6308  -17.6451   14.6318 H   0  0  0  0  0  0  0  0  0  0  0  0  # atno 3721 bound_to 3712
   -4.0337  -22.6234   11.5151 H   0  0  0  0  0  0  0  0  0  0  0  0  # atno 3767 bound_to 3762
    2.2947  -20.8957    9.5792 H   0  0  0  0  0  0  0  0  0  0  0  0  # atno 3841 bound_to 3832
    4.8390   -9.5745    4.9407 LP  0  0  0  0  0  0  0  0  0  0  0  0  # atno 4297 bound_to 1298
    3.4741  -10.0319    4.1697 LP  0  0  0  0  0  0  0  0  0  0  0  0  # atno 4298 bound_to 1298
    2.0778   -8.7357    8.1393 LP  0  0  0  0  0  0  0  0  0  0  0  0  # atno 4299 bound_to 2456
    1.1606   -7.9535    7.0377 LP  0  0  0  0  0  0  0  0  0  0  0  0  # atno 4300 bound_to 2456
    2.3048   -9.0073    5.8716 LP  0  0  0  0  0  0  0  0  0  0  0  0  # atno 4301 bound_to 2510
    2.1641   -7.4479    5.4081 LP  0  0  0  0  0  0  0  0  0  0  0  0  # atno 4302 bound_to 2510
   -3.5634  -16.5563   13.9090 LP  0  0  0  0  0  0  0  0  0  0  0  0  # atno 4306 bound_to 3712
   -2.9270  -17.7984   13.0613 LP  0  0  0  0  0  0  0  0  0  0  0  0  # atno 4307 bound_to 3712
    1.5496  -19.7655    8.7169 LP  0  0  0  0  0  0  0  0  0  0  0  0  # atno 4314 bound_to 3832
    3.0291  -20.3021    8.2813 LP  0  0  0  0  0  0  0  0  0  0  0  0  # atno 4315 bound_to 3832
   -4.6714  -23.2412   10.1445 LP  0  0  0  0  0  0  0  0  0  0  0  0  # atno 4318 bound_to 3762
   -5.4219  -22.0105   10.9118 LP  0  0  0  0  0  0  0  0  0  0  0  0  # atno 4319 bound_to 3762
   -3.6912   -4.9358    8.2739 LP  0  0  0  0  0  0  0  0  0  0  0  0  # atno 4320 bound_to 2467
   -4.7351   -5.4616    9.4142 LP  0  0  0  0  0  0  0  0  0  0  0  0  # atno 4321 bound_to 2467

> <Gold.Score>
     Score     S(PLP)   S(hbond)     S(cho)   S(metal)  DE(clash)   DE(tors)     intcor
     39.20     -34.33       1.80       0.00       0.00       0.55       0.21       0.44

> <Gold.PLP.Fitness>
39.1988

> <Gold.PLP.PLP>
-34.3320

> <Gold.PLP.part.hbond>
-1.6518

> <Gold.PLP.part.metal>
0.0000

> <Gold.PLP.part.buried>
4.4571

> <Gold.PLP.part.nonpolar>
-38.1061

> <Gold.PLP.part.repulsive>
0.1108

> <Gold.PLP.ligand.clash>
0.5544

> <Gold.PLP.ligand.torsion>
0.2071

> <Gold.PLP.Chemscore.Hbond>
1.8000

> <Gold.PLP.Chemscore.CHOScore>
0.0000

> <Gold.PLP.Chemscore.Metal>
0.0000

> <Gold.Chemscore.Hbonds>
donor molecule, donor type, donor heavy atom, donor atom, acceptor molecule, acceptor atom, score
      P1  H  2305  2313       L1     1  1.00
      P1  H  3712  3721       L1     3  0.80

> <Gold.PLP.Chemscore.Internal.Correction>
0.4354

