#       Name:                EN300-344045_i001
#       Creating user name   fsindt
#       Creation time:       Tue Feb 28 20:11:56 2023


#       File generated by GOLD software.
#

@<TRIPOS>MOLECULE
EN300-344045_i001|acide_2|mol2|6937|dock6
    30    31     1
SMALL
USER_CHARGES


@<TRIPOS>ATOM
      1 O1           1.0842 -12.1799   5.7539 O.co2          1 <1>               -1.0000
      2 C2           1.2139 -11.7030   6.8684 C.2            1 <1>                0.0000
      3 O3           1.0967 -10.5008   7.0346 O.co2          1 <1>                0.0000
      4 C4           1.5127 -12.6002   8.0418 C.3            1 <1>                0.0000
      5 C5           0.2190 -13.2627   8.5196 C.3            1 <1>                0.0000
      6 C6          -0.6087 -13.7403   7.3085 C.3            1 <1>                0.0000
      7 C7          -0.2227 -15.2318   7.1491 C.3            1 <1>                0.0000
      8 C8          -0.0968 -15.7111   8.6166 C.3            1 <1>                0.0000
      9 C9           0.5444 -14.5157   9.3513 C.3            1 <1>                0.0000
     10 C10         -0.5852 -12.2898   9.3430 C.ar           1 <1>                0.0000
     11 C11         -0.8777 -12.5781  10.6629 C.ar           1 <1>                0.0000
     12 C12         -1.6153 -11.6857  11.4182 C.ar           1 <1>                0.0000
     13 C13         -2.0599 -10.5048  10.8537 C.ar           1 <1>                0.0000
     14 C14         -1.7666 -10.2161   9.5340 C.ar           1 <1>                0.0000
     15 C15         -1.0253 -11.1066   8.7800 C.ar           1 <1>                0.0000
     16 H16          2.2243 -13.3687   7.7397 H              1 <1>                0.0000
     17 H17          1.9389 -12.0088   8.8522 H              1 <1>                0.0000
     18 H18         -1.6749 -13.6419   7.5125 H              1 <1>                0.0000
     19 H19         -0.3368 -13.1783   6.4150 H              1 <1>                0.0000
     20 H20         -1.0082 -15.7807   6.6295 H              1 <1>                0.0000
     21 H21          0.7292 -15.3309   6.6274 H              1 <1>                0.0000
     22 H22         -1.0804 -15.9310   9.0318 H              1 <1>                0.0000
     23 H23          0.5486 -16.5873   8.6778 H              1 <1>                0.0000
     24 H24          1.6240 -14.6519   9.4145 H              1 <1>                0.0000
     25 H25          0.1205 -14.4208  10.3510 H              1 <1>                0.0000
     26 H26         -0.5303 -13.5007  11.1040 H              1 <1>                0.0000
     27 H27         -1.8445 -11.9113  12.4492 H              1 <1>                0.0000
     28 H28         -2.6368  -9.8079  11.4435 H              1 <1>                0.0000
     29 H29         -2.1142  -9.2937   9.0928 H              1 <1>                0.0000
     30 H30         -0.7961 -10.8810   7.7489 H              1 <1>                0.0000
@<TRIPOS>BOND
    1    1    2 ar    
    2    2    3 ar    
    3    2    4 1     
    4    4    5 1     
    5    4   16 1     
    6    4   17 1     
    7    5    6 1     
    8    5    9 1     
    9    5   10 1     
   10    6    7 1     
   11    6   18 1     
   12    6   19 1     
   13    7    8 1     
   14    7   20 1     
   15    7   21 1     
   16    8    9 1     
   17    8   22 1     
   18    8   23 1     
   19    9   24 1     
   20    9   25 1     
   21   10   11 ar    
   22   10   15 ar    
   23   11   12 ar    
   24   11   26 1     
   25   12   13 ar    
   26   12   27 1     
   27   13   14 ar    
   28   13   28 1     
   29   14   15 ar    
   30   14   29 1     
   31   15   30 1     
@<TRIPOS>SUBSTRUCTURE
      1 ****           1
@<TRIPOS>COMMENT
> <Gold.Version>
2022.2.0

> <Gold.Id.Protein>
3pbl|protein|mol2

> <Gold.Protein.RotatedTorsions>
[ 1303 1298 1297 1294 ] final -172.47 input  179.99 | X-H torsion
[ 2461 2456 2455 2452 ] final -158.95 input   30.03 | X-H torsion
[ 2515 2510 2509 2506 ] final  172.64 input  -89.99 | X-H torsion
[ 3721 3712 3711 3710 ] final  167.37 input -179.91 | X-H torsion
[ 3841 3832 3831 3830 ] final   78.07 input -179.91 | X-H torsion
[ 3767 3762 3761 3758 ] final   10.77 input  -89.99 | X-H torsion
[ 2472 2467 2466 2463 ] final -165.55 input  -89.97 | X-H torsion

> <Gold.Protein.ActiveResidues>
 VAL82   VAL86   LEU89   PHE106  VAL107  ASP110  VAL111  MET112  CYS114  THR115 
 CYS181  SER182  ILE183  PHE188  VAL189  ILE190  SER192  SER193  SER196  TRP342 
 PHE345  PHE346  HIS349  VAL350  TYR365  THR369  GLY372  TYR373 

> <Gold.Protein.RotatedAtoms>
    4.8101   -8.7813    4.6134 H   0  0  0  0  0  0  0  0  0  0  0  0  # atno 1303 bound_to 1298
    1.1166   -9.2858    8.3533 H   0  0  0  0  0  0  0  0  0  0  0  0  # atno 2461 bound_to 2456
   -5.1902   -5.4323    9.1917 H   0  0  0  0  0  0  0  0  0  0  0  0  # atno 2472 bound_to 2467
    2.2749   -8.9544    5.9160 H   0  0  0  0  0  0  0  0  0  0  0  0  # atno 2515 bound_to 2510
   -3.2854  -16.6967   13.3823 H   0  0  0  0  0  0  0  0  0  0  0  0  # atno 3721 bound_to 3712
   -5.2159  -22.8467   10.0934 H   0  0  0  0  0  0  0  0  0  0  0  0  # atno 3767 bound_to 3762
    2.7055  -20.9527    9.3759 H   0  0  0  0  0  0  0  0  0  0  0  0  # atno 3841 bound_to 3832
    4.1118  -10.2549    4.6994 LP  0  0  0  0  0  0  0  0  0  0  0  0  # atno 4297 bound_to 1298
    3.4400   -9.0854    3.7787 LP  0  0  0  0  0  0  0  0  0  0  0  0  # atno 4298 bound_to 1298
    2.0953   -8.2059    7.6161 LP  0  0  0  0  0  0  0  0  0  0  0  0  # atno 4299 bound_to 2456
    0.5258   -8.3167    7.1789 LP  0  0  0  0  0  0  0  0  0  0  0  0  # atno 4300 bound_to 2456
    2.1891   -7.4293    5.3394 LP  0  0  0  0  0  0  0  0  0  0  0  0  # atno 4301 bound_to 2510
    2.8328   -8.6151    4.4195 LP  0  0  0  0  0  0  0  0  0  0  0  0  # atno 4302 bound_to 2510
   -2.6704  -18.1702   13.5511 LP  0  0  0  0  0  0  0  0  0  0  0  0  # atno 4306 bound_to 3712
   -3.0642  -17.2795   14.8619 LP  0  0  0  0  0  0  0  0  0  0  0  0  # atno 4307 bound_to 3712
    1.3921  -20.0750    9.0916 LP  0  0  0  0  0  0  0  0  0  0  0  0  # atno 4314 bound_to 3832
    2.7120  -19.9268    8.1415 LP  0  0  0  0  0  0  0  0  0  0  0  0  # atno 4315 bound_to 3832
   -4.9941  -21.9296   11.4263 LP  0  0  0  0  0  0  0  0  0  0  0  0  # atno 4318 bound_to 3762
   -3.9175  -23.0988   11.0512 LP  0  0  0  0  0  0  0  0  0  0  0  0  # atno 4319 bound_to 3762
   -4.8743   -4.8577    7.6962 LP  0  0  0  0  0  0  0  0  0  0  0  0  # atno 4320 bound_to 2467
   -3.6525   -5.1036    8.7514 LP  0  0  0  0  0  0  0  0  0  0  0  0  # atno 4321 bound_to 2467

> <Gold.Score>
     Score     S(PLP)   S(hbond)     S(cho)   S(metal)  DE(clash)   DE(tors)     intcor
     49.72     -48.82       0.64       0.00       0.00       0.43       0.53       0.46

> <Gold.PLP.Fitness>
49.7222

> <Gold.PLP.PLP>
-48.8233

> <Gold.PLP.part.hbond>
-1.0484

> <Gold.PLP.part.metal>
0.0000

> <Gold.PLP.part.buried>
-2.8258

> <Gold.PLP.part.nonpolar>
-46.3570

> <Gold.PLP.part.repulsive>
0.1196

> <Gold.PLP.ligand.clash>
0.4330

> <Gold.PLP.ligand.torsion>
0.5301

> <Gold.PLP.Chemscore.Hbond>
0.6440

> <Gold.PLP.Chemscore.CHOScore>
0.0000

> <Gold.PLP.Chemscore.Metal>
0.0000

> <Gold.Chemscore.Hbonds>
donor molecule, donor type, donor heavy atom, donor atom, acceptor molecule, acceptor atom, score
      P1  H  2456  2461       L1     3  0.18
      P1  H  2510  2515       L1     3  0.47

> <Gold.PLP.Chemscore.Internal.Correction>
0.4601

