#       Name:                EN300-344045_i001
#       Creating user name   fsindt
#       Creation time:       Tue Feb 28 20:12:06 2023


#       File generated by GOLD software.
#

@<TRIPOS>MOLECULE
EN300-344045_i001|acide_2|mol2|6937|dock20
    30    31     1
SMALL
USER_CHARGES


@<TRIPOS>ATOM
      1 O1           1.0913 -11.5757   8.8213 O.co2          1 <1>               -1.0000
      2 C2           0.0063 -11.9319   9.2485 C.2            1 <1>                0.0000
      3 O3          -0.9472 -11.1736   9.1987 O.co2          1 <1>                0.0000
      4 C4          -0.1577 -13.3115   9.8323 C.3            1 <1>                0.0000
      5 C5           0.2001 -14.3583   8.7754 C.3            1 <1>                0.0000
      6 C6          -0.5831 -14.0850   7.4747 C.3            1 <1>                0.0000
      7 C7           0.4007 -13.2642   6.6043 C.3            1 <1>                0.0000
      8 C8           1.7658 -13.9274   6.9136 C.3            1 <1>                0.0000
      9 C9           1.6935 -14.2581   8.4186 C.3            1 <1>                0.0000
     10 C10         -0.1176 -15.7391   9.2888 C.ar           1 <1>                0.0000
     11 C11         -0.1119 -15.9894  10.6482 C.ar           1 <1>                0.0000
     12 C12         -0.4033 -17.2559  11.1191 C.ar           1 <1>                0.0000
     13 C13         -0.7008 -18.2722  10.2305 C.ar           1 <1>                0.0000
     14 C14         -0.7074 -18.0217   8.8710 C.ar           1 <1>                0.0000
     15 C15         -0.4203 -16.7540   8.4004 C.ar           1 <1>                0.0000
     16 H16          0.5027 -13.4230  10.6923 H              1 <1>                0.0000
     17 H17         -1.1917 -13.4521  10.1475 H              1 <1>                0.0000
     18 H18         -0.8397 -15.0218   6.9800 H              1 <1>                0.0000
     19 H19         -1.4816 -13.5050   7.6850 H              1 <1>                0.0000
     20 H20          0.1546 -13.3615   5.5469 H              1 <1>                0.0000
     21 H21          0.4026 -12.2170   6.9068 H              1 <1>                0.0000
     22 H22          1.8886 -14.8387   6.3282 H              1 <1>                0.0000
     23 H23          2.5815 -13.2323   6.7145 H              1 <1>                0.0000
     24 H24          2.1634 -13.4636   8.9984 H              1 <1>                0.0000
     25 H25          2.1892 -15.2084   8.6164 H              1 <1>                0.0000
     26 H26          0.1205 -15.1954  11.3425 H              1 <1>                0.0000
     27 H27         -0.3980 -17.4517  12.1812 H              1 <1>                0.0000
     28 H28         -0.9277 -19.2619  10.5983 H              1 <1>                0.0000
     29 H29         -0.9395 -18.8157   8.1767 H              1 <1>                0.0000
     30 H30         -0.4254 -16.5583   7.3382 H              1 <1>                0.0000
@<TRIPOS>BOND
    1    1    2 ar    
    2    2    3 ar    
    3    2    4 1     
    4    4    5 1     
    5    4   16 1     
    6    4   17 1     
    7    5    6 1     
    8    5    9 1     
    9    5   10 1     
   10    6    7 1     
   11    6   18 1     
   12    6   19 1     
   13    7    8 1     
   14    7   20 1     
   15    7   21 1     
   16    8    9 1     
   17    8   22 1     
   18    8   23 1     
   19    9   24 1     
   20    9   25 1     
   21   10   11 ar    
   22   10   15 ar    
   23   11   12 ar    
   24   11   26 1     
   25   12   13 ar    
   26   12   27 1     
   27   13   14 ar    
   28   13   28 1     
   29   14   15 ar    
   30   14   29 1     
   31   15   30 1     
@<TRIPOS>SUBSTRUCTURE
      1 ****           1
@<TRIPOS>COMMENT
> <Gold.Version>
2022.2.0

> <Gold.Id.Protein>
3pbl|protein|mol2

> <Gold.Protein.RotatedTorsions>
[ 1303 1298 1297 1294 ] final  168.32 input  179.99 | X-H torsion
[ 2461 2456 2455 2452 ] final -121.39 input   30.03 | X-H torsion
[ 2515 2510 2509 2506 ] final -122.63 input  -89.99 | X-H torsion
[ 3721 3712 3711 3710 ] final  -61.03 input -179.91 | X-H torsion
[ 3841 3832 3831 3830 ] final   60.94 input -179.91 | X-H torsion
[ 3767 3762 3761 3758 ] final -141.91 input  -89.99 | X-H torsion
[ 2472 2467 2466 2463 ] final   45.24 input  -89.97 | X-H torsion

> <Gold.Protein.ActiveResidues>
 VAL82   VAL86   LEU89   PHE106  VAL107  ASP110  VAL111  MET112  CYS114  THR115 
 CYS181  SER182  ILE183  PHE188  VAL189  ILE190  SER192  SER193  SER196  TRP342 
 PHE345  PHE346  HIS349  VAL350  TYR365  THR369  GLY372  TYR373 

> <Gold.Protein.RotatedAtoms>
    4.8993   -9.0363    4.7743 H   0  0  0  0  0  0  0  0  0  0  0  0  # atno 1303 bound_to 1298
    0.5910   -9.1832    8.0674 H   0  0  0  0  0  0  0  0  0  0  0  0  # atno 2461 bound_to 2456
   -4.4024   -4.8007    7.6799 H   0  0  0  0  0  0  0  0  0  0  0  0  # atno 2472 bound_to 2467
    2.7011   -9.2172    5.0400 H   0  0  0  0  0  0  0  0  0  0  0  0  # atno 2515 bound_to 2510
   -2.8076  -17.3174   14.7546 H   0  0  0  0  0  0  0  0  0  0  0  0  # atno 3721 bound_to 3712
   -4.5437  -22.1176   11.6344 H   0  0  0  0  0  0  0  0  0  0  0  0  # atno 3767 bound_to 3762
    2.4835  -20.9455    9.5068 H   0  0  0  0  0  0  0  0  0  0  0  0  # atno 3841 bound_to 3832
    3.8521  -10.2635    4.5222 LP  0  0  0  0  0  0  0  0  0  0  0  0  # atno 4297 bound_to 1298
    3.6105   -8.8216    3.7948 LP  0  0  0  0  0  0  0  0  0  0  0  0  # atno 4298 bound_to 1298
    2.1272   -8.6291    8.0500 LP  0  0  0  0  0  0  0  0  0  0  0  0  # atno 4299 bound_to 2456
    1.0194   -7.9960    7.0309 LP  0  0  0  0  0  0  0  0  0  0  0  0  # atno 4300 bound_to 2456
    2.0370   -8.1245    6.0553 LP  0  0  0  0  0  0  0  0  0  0  0  0  # atno 4301 bound_to 2510
    2.5585   -7.6571    4.5801 LP  0  0  0  0  0  0  0  0  0  0  0  0  # atno 4302 bound_to 2510
   -3.5424  -16.6582   13.4883 LP  0  0  0  0  0  0  0  0  0  0  0  0  # atno 4306 bound_to 3712
   -2.7438  -18.0749   13.3403 LP  0  0  0  0  0  0  0  0  0  0  0  0  # atno 4307 bound_to 3712
    1.4501  -19.8858    8.8863 LP  0  0  0  0  0  0  0  0  0  0  0  0  # atno 4314 bound_to 3832
    2.9104  -20.1243    8.1955 LP  0  0  0  0  0  0  0  0  0  0  0  0  # atno 4315 bound_to 3832
   -4.1120  -23.3098   10.6052 LP  0  0  0  0  0  0  0  0  0  0  0  0  # atno 4318 bound_to 3762
   -5.4716  -22.4475   10.3317 LP  0  0  0  0  0  0  0  0  0  0  0  0  # atno 4319 bound_to 3762
   -3.8585   -5.2687    9.1467 LP  0  0  0  0  0  0  0  0  0  0  0  0  # atno 4320 bound_to 2467
   -5.4560   -5.3240    8.8124 LP  0  0  0  0  0  0  0  0  0  0  0  0  # atno 4321 bound_to 2467

> <Gold.Score>
     Score     S(PLP)   S(hbond)     S(cho)   S(metal)  DE(clash)   DE(tors)     intcor
     38.96     -41.22       0.00       0.00       0.00       0.43       1.13       0.44

> <Gold.PLP.Fitness>
38.9603

> <Gold.PLP.PLP>
-41.2200

> <Gold.PLP.part.hbond>
-0.2655

> <Gold.PLP.part.metal>
0.0000

> <Gold.PLP.part.buried>
-2.8562

> <Gold.PLP.part.nonpolar>
-39.0812

> <Gold.PLP.part.repulsive>
0.0000

> <Gold.PLP.ligand.clash>
0.4330

> <Gold.PLP.ligand.torsion>
1.1311

> <Gold.PLP.Chemscore.Hbond>
0.0000

> <Gold.PLP.Chemscore.CHOScore>
0.0000

> <Gold.PLP.Chemscore.Metal>
0.0000

> <Gold.PLP.Chemscore.Internal.Correction>
0.4354

