#       Name:                EN300-344045_i001
#       Creating user name   fsindt
#       Creation time:       Tue Feb 28 20:11:59 2023


#       File generated by GOLD software.
#

@<TRIPOS>MOLECULE
EN300-344045_i001|acide_2|mol2|6937|dock12
    30    31     1
SMALL
USER_CHARGES


@<TRIPOS>ATOM
      1 O1          -1.1846 -18.6350  13.0120 O.co2          1 <1>               -1.0000
      2 C2          -0.2334 -18.4183  12.2808 C.2            1 <1>                0.0000
      3 O3           0.8441 -18.9403  12.5113 O.co2          1 <1>                0.0000
      4 C4          -0.3910 -17.5103  11.0884 C.3            1 <1>                0.0000
      5 C5           0.1966 -16.1356  11.4131 C.3            1 <1>                0.0000
      6 C6          -0.7206 -15.3895  12.4041 C.3            1 <1>                0.0000
      7 C7          -0.0986 -15.6830  13.7919 C.3            1 <1>                0.0000
      8 C8           1.4221 -15.6418  13.5007 C.3            1 <1>                0.0000
      9 C9           1.5589 -16.2959  12.1103 C.3            1 <1>                0.0000
     10 C10          0.3541 -15.3302  10.1491 C.ar           1 <1>                0.0000
     11 C11         -0.1133 -15.8304   8.9482 C.ar           1 <1>                0.0000
     12 C12          0.0312 -15.0917   7.7887 C.ar           1 <1>                0.0000
     13 C13          0.6427 -13.8526   7.8303 C.ar           1 <1>                0.0000
     14 C14          1.1093 -13.3521   9.0314 C.ar           1 <1>                0.0000
     15 C15          0.9609 -14.0889  10.1916 C.ar           1 <1>                0.0000
     16 H16          0.1345 -17.9376  10.2343 H              1 <1>                0.0000
     17 H17         -1.4492 -17.4057  10.8487 H              1 <1>                0.0000
     18 H18         -0.7110 -14.3187  12.2006 H              1 <1>                0.0000
     19 H19         -1.7369 -15.7798  12.3513 H              1 <1>                0.0000
     20 H20         -0.3755 -14.9114  14.5104 H              1 <1>                0.0000
     21 H21         -0.3971 -16.6690  14.1482 H              1 <1>                0.0000
     22 H22          1.7776 -14.6117  13.4744 H              1 <1>                0.0000
     23 H23          1.9694 -16.2162  14.2481 H              1 <1>                0.0000
     24 H24          1.8013 -17.3532  12.2174 H              1 <1>                0.0000
     25 H25          2.3347 -15.7910  11.5348 H              1 <1>                0.0000
     26 H26         -0.5910 -16.7984   8.9156 H              1 <1>                0.0000
     27 H27         -0.3332 -15.4828   6.8503 H              1 <1>                0.0000
     28 H28          0.7562 -13.2758   6.9244 H              1 <1>                0.0000
     29 H29          1.5873 -12.3841   9.0639 H              1 <1>                0.0000
     30 H30          1.3254 -13.6979  11.1300 H              1 <1>                0.0000
@<TRIPOS>BOND
    1    1    2 ar    
    2    2    3 ar    
    3    2    4 1     
    4    4    5 1     
    5    4   16 1     
    6    4   17 1     
    7    5    6 1     
    8    5    9 1     
    9    5   10 1     
   10    6    7 1     
   11    6   18 1     
   12    6   19 1     
   13    7    8 1     
   14    7   20 1     
   15    7   21 1     
   16    8    9 1     
   17    8   22 1     
   18    8   23 1     
   19    9   24 1     
   20    9   25 1     
   21   10   11 ar    
   22   10   15 ar    
   23   11   12 ar    
   24   11   26 1     
   25   12   13 ar    
   26   12   27 1     
   27   13   14 ar    
   28   13   28 1     
   29   14   15 ar    
   30   14   29 1     
   31   15   30 1     
@<TRIPOS>SUBSTRUCTURE
      1 ****           1
@<TRIPOS>COMMENT
> <Gold.Version>
2022.2.0

> <Gold.Id.Protein>
3pbl|protein|mol2

> <Gold.Protein.RotatedTorsions>
[ 1303 1298 1297 1294 ] final   69.68 input  179.99 | X-H torsion
[ 2461 2456 2455 2452 ] final  139.41 input   30.03 | X-H torsion
[ 2515 2510 2509 2506 ] final  -70.71 input  -89.99 | X-H torsion
[ 3721 3712 3711 3710 ] final   49.97 input -179.91 | X-H torsion
[ 3841 3832 3831 3830 ] final  108.90 input -179.91 | X-H torsion
[ 3767 3762 3761 3758 ] final  164.35 input  -89.99 | X-H torsion
[ 2472 2467 2466 2463 ] final  105.02 input  -89.97 | X-H torsion

> <Gold.Protein.ActiveResidues>
 VAL82   VAL86   LEU89   PHE106  VAL107  ASP110  VAL111  MET112  CYS114  THR115 
 CYS181  SER182  ILE183  PHE188  VAL189  ILE190  SER192  SER193  SER196  TRP342 
 PHE345  PHE346  HIS349  VAL350  TYR365  THR369  GLY372  TYR373 

> <Gold.Protein.RotatedAtoms>
    4.1414  -10.2473    4.7176 H   0  0  0  0  0  0  0  0  0  0  0  0  # atno 1303 bound_to 1298
    1.9821   -8.8708    8.2409 H   0  0  0  0  0  0  0  0  0  0  0  0  # atno 2461 bound_to 2456
   -5.2837   -4.9927    7.9434 H   0  0  0  0  0  0  0  0  0  0  0  0  # atno 2472 bound_to 2467
    2.8350   -8.6660    4.4408 H   0  0  0  0  0  0  0  0  0  0  0  0  # atno 2515 bound_to 2510
   -2.5436  -17.9710   13.5130 H   0  0  0  0  0  0  0  0  0  0  0  0  # atno 3721 bound_to 3712
   -3.9782  -22.7262   11.4441 H   0  0  0  0  0  0  0  0  0  0  0  0  # atno 3767 bound_to 3762
    3.0134  -20.8157    9.0626 H   0  0  0  0  0  0  0  0  0  0  0  0  # atno 3841 bound_to 3832
    3.4254   -9.1174    3.7810 LP  0  0  0  0  0  0  0  0  0  0  0  0  # atno 4297 bound_to 1298
    4.7954   -8.7563    4.5929 LP  0  0  0  0  0  0  0  0  0  0  0  0  # atno 4298 bound_to 1298
    1.3492   -7.9220    7.0720 LP  0  0  0  0  0  0  0  0  0  0  0  0  # atno 4299 bound_to 2456
    0.4067   -9.0154    7.8354 LP  0  0  0  0  0  0  0  0  0  0  0  0  # atno 4300 bound_to 2456
    2.2532   -8.9136    5.9461 LP  0  0  0  0  0  0  0  0  0  0  0  0  # atno 4301 bound_to 2510
    2.2083   -7.4194    5.2888 LP  0  0  0  0  0  0  0  0  0  0  0  0  # atno 4302 bound_to 2510
   -3.0673  -17.2742   14.8614 LP  0  0  0  0  0  0  0  0  0  0  0  0  # atno 4306 bound_to 3712
   -3.5238  -16.7043   13.4007 LP  0  0  0  0  0  0  0  0  0  0  0  0  # atno 4307 bound_to 3712
    1.4806  -20.4744    9.3943 LP  0  0  0  0  0  0  0  0  0  0  0  0  # atno 4314 bound_to 3832
    2.2678  -19.6856    8.2007 LP  0  0  0  0  0  0  0  0  0  0  0  0  # atno 4315 bound_to 3832
   -4.7877  -23.1835   10.1016 LP  0  0  0  0  0  0  0  0  0  0  0  0  # atno 4318 bound_to 3762
   -5.3613  -21.9654   11.0256 LP  0  0  0  0  0  0  0  0  0  0  0  0  # atno 4319 bound_to 3762
   -3.6876   -4.9389    8.2836 LP  0  0  0  0  0  0  0  0  0  0  0  0  # atno 4320 bound_to 2467
   -4.7457   -5.4620    9.4120 LP  0  0  0  0  0  0  0  0  0  0  0  0  # atno 4321 bound_to 2467

> <Gold.Score>
     Score     S(PLP)   S(hbond)     S(cho)   S(metal)  DE(clash)   DE(tors)     intcor
     41.55     -39.62       0.99       0.00       0.00       0.54       0.47       0.44

> <Gold.PLP.Fitness>
41.5476

> <Gold.PLP.PLP>
-39.6178

> <Gold.PLP.part.hbond>
-0.9629

> <Gold.PLP.part.metal>
0.0000

> <Gold.PLP.part.buried>
-1.1931

> <Gold.PLP.part.nonpolar>
-38.3582

> <Gold.PLP.part.repulsive>
0.0711

> <Gold.PLP.ligand.clash>
0.5446

> <Gold.PLP.ligand.torsion>
0.4673

> <Gold.PLP.Chemscore.Hbond>
0.9913

> <Gold.PLP.Chemscore.CHOScore>
0.0000

> <Gold.PLP.Chemscore.Metal>
0.0000

> <Gold.Chemscore.Hbonds>
donor molecule, donor type, donor heavy atom, donor atom, acceptor molecule, acceptor atom, score
      P1  H  3712  3721       L1     1  0.99

> <Gold.PLP.Chemscore.Internal.Correction>
0.4354

