#       Name:                EN300-344045_i001
#       Creating user name   fsindt
#       Creation time:       Tue Feb 28 20:12:06 2023


#       File generated by GOLD software.
#

@<TRIPOS>MOLECULE
EN300-344045_i001|acide_2|mol2|6937|dock19
    30    31     1
SMALL
USER_CHARGES


@<TRIPOS>ATOM
      1 O1           1.1613 -18.1381  14.4581 O.co2          1 <1>               -1.0000
      2 C2           0.0841 -18.4694  14.9231 C.2            1 <1>                0.0000
      3 O3          -0.8268 -17.6615  14.9870 O.co2          1 <1>                0.0000
      4 C4          -0.1235 -19.8794  15.4130 C.3            1 <1>                0.0000
      5 C5          -0.1066 -20.8405  14.2228 C.3            1 <1>                0.0000
      6 C6          -1.2264 -20.4700  13.2284 C.3            1 <1>                0.0000
      7 C7          -0.5199 -19.5817  12.1745 C.3            1 <1>                0.0000
      8 C8           0.8631 -20.2629  12.0251 C.3            1 <1>                0.0000
      9 C9           1.2218 -20.7089  13.4577 C.3            1 <1>                0.0000
     10 C10         -0.2896 -22.2578  14.7015 C.ar           1 <1>                0.0000
     11 C11         -0.5323 -22.5096  16.0388 C.ar           1 <1>                0.0000
     12 C12         -0.7001 -23.8096  16.4779 C.ar           1 <1>                0.0000
     13 C13         -0.6258 -24.8576  15.5795 C.ar           1 <1>                0.0000
     14 C14         -0.3840 -24.6056  14.2421 C.ar           1 <1>                0.0000
     15 C15         -0.2206 -23.3053  13.8022 C.ar           1 <1>                0.0000
     16 H16          0.6753 -20.1447  16.1057 H              1 <1>                0.0000
     17 H17         -1.0845 -19.9491  15.9228 H              1 <1>                0.0000
     18 H18         -1.6333 -21.3665  12.7607 H              1 <1>                0.0000
     19 H19         -2.0145 -19.9104  13.7324 H              1 <1>                0.0000
     20 H20         -1.0626 -19.5978  11.2293 H              1 <1>                0.0000
     21 H21         -0.4101 -18.5609  12.5407 H              1 <1>                0.0000
     22 H22          0.7938 -21.1260  11.3630 H              1 <1>                0.0000
     23 H23          1.6001 -19.5522  11.6510 H              1 <1>                0.0000
     24 H24          1.8546 -19.9602  13.9343 H              1 <1>                0.0000
     25 H25          1.7348 -21.6703  13.4321 H              1 <1>                0.0000
     26 H26         -0.5903 -21.6909  16.7407 H              1 <1>                0.0000
     27 H27         -0.8889 -24.0065  17.5229 H              1 <1>                0.0000
     28 H28         -0.7562 -25.8733  15.9227 H              1 <1>                0.0000
     29 H29         -0.3257 -25.4244  13.5402 H              1 <1>                0.0000
     30 H30         -0.0317 -23.1084  12.7572 H              1 <1>                0.0000
@<TRIPOS>BOND
    1    1    2 ar    
    2    2    3 ar    
    3    2    4 1     
    4    4    5 1     
    5    4   16 1     
    6    4   17 1     
    7    5    6 1     
    8    5    9 1     
    9    5   10 1     
   10    6    7 1     
   11    6   18 1     
   12    6   19 1     
   13    7    8 1     
   14    7   20 1     
   15    7   21 1     
   16    8    9 1     
   17    8   22 1     
   18    8   23 1     
   19    9   24 1     
   20    9   25 1     
   21   10   11 ar    
   22   10   15 ar    
   23   11   12 ar    
   24   11   26 1     
   25   12   13 ar    
   26   12   27 1     
   27   13   14 ar    
   28   13   28 1     
   29   14   15 ar    
   30   14   29 1     
   31   15   30 1     
@<TRIPOS>SUBSTRUCTURE
      1 ****           1
@<TRIPOS>COMMENT
> <Gold.Version>
2022.2.0

> <Gold.Id.Protein>
3pbl|protein|mol2

> <Gold.Protein.RotatedTorsions>
[ 1303 1298 1297 1294 ] final  160.04 input  179.99 | X-H torsion
[ 2461 2456 2455 2452 ] final  -21.27 input   30.03 | X-H torsion
[ 2515 2510 2509 2506 ] final  160.80 input  -89.99 | X-H torsion
[ 3721 3712 3711 3710 ] final  -13.70 input -179.91 | X-H torsion
[ 3841 3832 3831 3830 ] final   61.48 input -179.91 | X-H torsion
[ 3767 3762 3761 3758 ] final  159.57 input  -89.99 | X-H torsion
[ 2472 2467 2466 2463 ] final   97.81 input  -89.97 | X-H torsion

> <Gold.Protein.ActiveResidues>
 VAL82   VAL86   LEU89   PHE106  VAL107  ASP110  VAL111  MET112  CYS114  THR115 
 CYS181  SER182  ILE183  PHE188  VAL189  ILE190  SER192  SER193  SER196  TRP342 
 PHE345  PHE346  HIS349  VAL350  TYR365  THR369  GLY372  TYR373 

> <Gold.Protein.RotatedAtoms>
    4.9112   -9.1598    4.8306 H   0  0  0  0  0  0  0  0  0  0  0  0  # atno 1303 bound_to 1298
    0.7312   -8.1408    7.0749 H   0  0  0  0  0  0  0  0  0  0  0  0  # atno 2461 bound_to 2456
   -5.2014   -4.9559    7.8664 H   0  0  0  0  0  0  0  0  0  0  0  0  # atno 2472 bound_to 2467
    2.2020   -8.8007    6.0102 H   0  0  0  0  0  0  0  0  0  0  0  0  # atno 2515 bound_to 2510
   -2.5273  -17.8586   14.4197 H   0  0  0  0  0  0  0  0  0  0  0  0  # atno 3721 bound_to 3712
   -3.9531  -22.7844   11.3976 H   0  0  0  0  0  0  0  0  0  0  0  0  # atno 3767 bound_to 3762
    2.4908  -20.9466    9.5034 H   0  0  0  0  0  0  0  0  0  0  0  0  # atno 3841 bound_to 3832
    3.7476  -10.2364    4.4391 LP  0  0  0  0  0  0  0  0  0  0  0  0  # atno 4297 bound_to 1298
    3.7030   -8.7252    3.8217 LP  0  0  0  0  0  0  0  0  0  0  0  0  # atno 4298 bound_to 1298
    0.8477   -9.2728    8.2464 LP  0  0  0  0  0  0  0  0  0  0  0  0  # atno 4299 bound_to 2456
    2.1588   -8.3945    7.8266 LP  0  0  0  0  0  0  0  0  0  0  0  0  # atno 4300 bound_to 2456
    2.2604   -7.4083    5.1596 LP  0  0  0  0  0  0  0  0  0  0  0  0  # atno 4301 bound_to 2510
    2.8344   -8.7899    4.5050 LP  0  0  0  0  0  0  0  0  0  0  0  0  # atno 4302 bound_to 2510
   -3.5085  -16.5985   14.2539 LP  0  0  0  0  0  0  0  0  0  0  0  0  # atno 4306 bound_to 3712
   -3.1013  -17.5097   12.9614 LP  0  0  0  0  0  0  0  0  0  0  0  0  # atno 4307 bound_to 3712
    1.4471  -19.8911    8.8929 LP  0  0  0  0  0  0  0  0  0  0  0  0  # atno 4314 bound_to 3832
    2.9050  -20.1176    8.1929 LP  0  0  0  0  0  0  0  0  0  0  0  0  # atno 4315 bound_to 3832
   -4.8539  -23.1450   10.0841 LP  0  0  0  0  0  0  0  0  0  0  0  0  # atno 4318 bound_to 3762
   -5.3200  -21.9457   11.0896 LP  0  0  0  0  0  0  0  0  0  0  0  0  # atno 4319 bound_to 3762
   -3.6556   -4.9745    8.3921 LP  0  0  0  0  0  0  0  0  0  0  0  0  # atno 4320 bound_to 2467
   -4.8601   -5.4632    9.3805 LP  0  0  0  0  0  0  0  0  0  0  0  0  # atno 4321 bound_to 2467

> <Gold.Score>
     Score     S(PLP)   S(hbond)     S(cho)   S(metal)  DE(clash)   DE(tors)     intcor
     37.49     -34.87       1.00       0.00       0.00       0.57       0.13       0.44

> <Gold.PLP.Fitness>
37.4881

> <Gold.PLP.PLP>
-34.8721

> <Gold.PLP.part.hbond>
-1.0000

> <Gold.PLP.part.metal>
0.0000

> <Gold.PLP.part.buried>
-4.0030

> <Gold.PLP.part.nonpolar>
-30.0033

> <Gold.PLP.part.repulsive>
0.0710

> <Gold.PLP.ligand.clash>
0.5651

> <Gold.PLP.ligand.torsion>
0.1271

> <Gold.PLP.Chemscore.Hbond>
1.0000

> <Gold.PLP.Chemscore.CHOScore>
0.0000

> <Gold.PLP.Chemscore.Metal>
0.0000

> <Gold.Chemscore.Hbonds>
donor molecule, donor type, donor heavy atom, donor atom, acceptor molecule, acceptor atom, score
      P1  H  3712  3721       L1     3  1.00

> <Gold.PLP.Chemscore.Internal.Correction>
0.4354

