#       Name:                EN300-344045_i001
#       Creating user name   fsindt
#       Creation time:       Tue Feb 28 20:12:04 2023


#       File generated by GOLD software.
#

@<TRIPOS>MOLECULE
EN300-344045_i001|acide_2|mol2|6937|dock17
    30    31     1
SMALL
USER_CHARGES


@<TRIPOS>ATOM
      1 O1          -0.6634 -10.7935   8.4455 O.co2          1 <1>               -1.0000
      2 C2          -0.0640 -11.3364   9.3578 C.2            1 <1>                0.0000
      3 O3          -0.4085 -11.1464  10.5119 O.co2          1 <1>                0.0000
      4 C4           1.0987 -12.2473   9.0588 C.3            1 <1>                0.0000
      5 C5           0.6074 -13.6944   8.9866 C.3            1 <1>                0.0000
      6 C6          -0.7422 -13.7577   8.2418 C.3            1 <1>                0.0000
      7 C7          -0.3547 -14.1015   6.7821 C.3            1 <1>                0.0000
      8 C8           0.8157 -15.0994   6.9651 C.3            1 <1>                0.0000
      9 C9           1.5978 -14.5475   8.1749 C.3            1 <1>                0.0000
     10 C10          0.4570 -14.2581  10.3761 C.ar           1 <1>                0.0000
     11 C11          1.3380 -15.2218  10.8301 C.ar           1 <1>                0.0000
     12 C12          1.2000 -15.7389  12.1046 C.ar           1 <1>                0.0000
     13 C13          0.1815 -15.2919  12.9254 C.ar           1 <1>                0.0000
     14 C14         -0.6989 -14.3275  12.4717 C.ar           1 <1>                0.0000
     15 C15         -0.5583 -13.8073  11.1986 C.ar           1 <1>                0.0000
     16 H16          1.5441 -11.9667   8.1042 H              1 <1>                0.0000
     17 H17          1.8445 -12.1558   9.8485 H              1 <1>                0.0000
     18 H18         -1.3740 -14.5396   8.6630 H              1 <1>                0.0000
     19 H19         -1.2475 -12.7929   8.2852 H              1 <1>                0.0000
     20 H20         -1.1880 -14.5744   6.2624 H              1 <1>                0.0000
     21 H21         -0.0224 -13.2098   6.2504 H              1 <1>                0.0000
     22 H22          0.4354 -16.0981   7.1801 H              1 <1>                0.0000
     23 H23          1.4472 -15.1138   6.0768 H              1 <1>                0.0000
     24 H24          2.4285 -13.9306   7.8323 H              1 <1>                0.0000
     25 H25          1.9700 -15.3700   8.7856 H              1 <1>                0.0000
     26 H26          2.1337 -15.5711  10.1889 H              1 <1>                0.0000
     27 H27          1.8878 -16.4924  12.4590 H              1 <1>                0.0000
     28 H28          0.0733 -15.6964  13.9208 H              1 <1>                0.0000
     29 H29         -1.4949 -13.9784  13.1128 H              1 <1>                0.0000
     30 H30         -1.2462 -13.0538  10.8442 H              1 <1>                0.0000
@<TRIPOS>BOND
    1    1    2 ar    
    2    2    3 ar    
    3    2    4 1     
    4    4    5 1     
    5    4   16 1     
    6    4   17 1     
    7    5    6 1     
    8    5    9 1     
    9    5   10 1     
   10    6    7 1     
   11    6   18 1     
   12    6   19 1     
   13    7    8 1     
   14    7   20 1     
   15    7   21 1     
   16    8    9 1     
   17    8   22 1     
   18    8   23 1     
   19    9   24 1     
   20    9   25 1     
   21   10   11 ar    
   22   10   15 ar    
   23   11   12 ar    
   24   11   26 1     
   25   12   13 ar    
   26   12   27 1     
   27   13   14 ar    
   28   13   28 1     
   29   14   15 ar    
   30   14   29 1     
   31   15   30 1     
@<TRIPOS>SUBSTRUCTURE
      1 ****           1
@<TRIPOS>COMMENT
> <Gold.Version>
2022.2.0

> <Gold.Id.Protein>
3pbl|protein|mol2

> <Gold.Protein.RotatedTorsions>
[ 1303 1298 1297 1294 ] final   86.91 input  179.99 | X-H torsion
[ 2461 2456 2455 2452 ] final -121.45 input   30.03 | X-H torsion
[ 2515 2510 2509 2506 ] final   50.85 input  -89.99 | X-H torsion
[ 3721 3712 3711 3710 ] final  -33.89 input -179.91 | X-H torsion
[ 3841 3832 3831 3830 ] final -129.77 input -179.91 | X-H torsion
[ 3767 3762 3761 3758 ] final  122.41 input  -89.99 | X-H torsion
[ 2472 2467 2466 2463 ] final  145.49 input  -89.97 | X-H torsion

> <Gold.Protein.ActiveResidues>
 VAL82   VAL86   LEU89   PHE106  VAL107  ASP110  VAL111  MET112  CYS114  THR115 
 CYS181  SER182  ILE183  PHE188  VAL189  ILE190  SER192  SER193  SER196  TRP342 
 PHE345  PHE346  HIS349  VAL350  TYR365  THR369  GLY372  TYR373 

> <Gold.Protein.RotatedAtoms>
    4.3747  -10.1463    4.8405 H   0  0  0  0  0  0  0  0  0  0  0  0  # atno 1303 bound_to 1298
    0.5916   -9.1836    8.0679 H   0  0  0  0  0  0  0  0  0  0  0  0  # atno 2461 bound_to 2456
   -5.5100   -5.2220    8.5105 H   0  0  0  0  0  0  0  0  0  0  0  0  # atno 2472 bound_to 2467
    2.1995   -7.4240    5.3124 H   0  0  0  0  0  0  0  0  0  0  0  0  # atno 2515 bound_to 2510
   -2.6251  -17.6563   14.6241 H   0  0  0  0  0  0  0  0  0  0  0  0  # atno 3721 bound_to 3712
   -3.9440  -23.1703   10.9370 H   0  0  0  0  0  0  0  0  0  0  0  0  # atno 3767 bound_to 3762
    2.3572  -19.6266    8.4042 H   0  0  0  0  0  0  0  0  0  0  0  0  # atno 3841 bound_to 3832
    3.3448   -9.3840    3.8284 LP  0  0  0  0  0  0  0  0  0  0  0  0  # atno 4297 bound_to 1298
    4.6426   -8.5908    4.4225 LP  0  0  0  0  0  0  0  0  0  0  0  0  # atno 4298 bound_to 1298
    2.1274   -8.6285    8.0494 LP  0  0  0  0  0  0  0  0  0  0  0  0  # atno 4299 bound_to 2456
    1.0186   -7.9963    7.0309 LP  0  0  0  0  0  0  0  0  0  0  0  0  # atno 4300 bound_to 2456
    2.8342   -8.6426    4.4304 LP  0  0  0  0  0  0  0  0  0  0  0  0  # atno 4301 bound_to 2510
    2.2631   -8.9330    5.9324 LP  0  0  0  0  0  0  0  0  0  0  0  0  # atno 4302 bound_to 2510
   -3.5622  -16.5557   13.9253 LP  0  0  0  0  0  0  0  0  0  0  0  0  # atno 4306 bound_to 3712
   -2.9348  -17.7860   13.0540 LP  0  0  0  0  0  0  0  0  0  0  0  0  # atno 4307 bound_to 3712
    2.9945  -21.0027    8.9299 LP  0  0  0  0  0  0  0  0  0  0  0  0  # atno 4314 bound_to 3832
    1.5118  -20.5310    9.4257 LP  0  0  0  0  0  0  0  0  0  0  0  0  # atno 4315 bound_to 3832
   -5.3011  -22.7468   10.1335 LP  0  0  0  0  0  0  0  0  0  0  0  0  # atno 4318 bound_to 3762
   -4.8820  -21.9582   11.5006 LP  0  0  0  0  0  0  0  0  0  0  0  0  # atno 4319 bound_to 3762
   -4.1010   -4.8087    7.7963 LP  0  0  0  0  0  0  0  0  0  0  0  0  # atno 4320 bound_to 2467
   -4.1060   -5.3629    9.3323 LP  0  0  0  0  0  0  0  0  0  0  0  0  # atno 4321 bound_to 2467

> <Gold.Score>
     Score     S(PLP)   S(hbond)     S(cho)   S(metal)  DE(clash)   DE(tors)     intcor
     42.38     -40.86       1.00       0.00       0.00       0.00       0.96       0.44

> <Gold.PLP.Fitness>
42.3762

> <Gold.PLP.PLP>
-40.8583

> <Gold.PLP.part.hbond>
-1.0000

> <Gold.PLP.part.metal>
0.0000

> <Gold.PLP.part.buried>
-0.8371

> <Gold.PLP.part.nonpolar>
-40.4341

> <Gold.PLP.part.repulsive>
0.0044

> <Gold.PLP.ligand.clash>
0.0000

> <Gold.PLP.ligand.torsion>
0.9587

> <Gold.PLP.Chemscore.Hbond>
1.0000

> <Gold.PLP.Chemscore.CHOScore>
0.0000

> <Gold.PLP.Chemscore.Metal>
0.0000

> <Gold.Chemscore.Hbonds>
donor molecule, donor type, donor heavy atom, donor atom, acceptor molecule, acceptor atom, score
      P1  H  2456  2461       L1     1  1.00

> <Gold.PLP.Chemscore.Internal.Correction>
0.4354

