#       Name:                EN300-344045_i001
#       Creating user name   fsindt
#       Creation time:       Tue Feb 28 20:11:58 2023


#       File generated by GOLD software.
#

@<TRIPOS>MOLECULE
EN300-344045_i001|acide_2|mol2|6937|dock9
    30    31     1
SMALL
USER_CHARGES


@<TRIPOS>ATOM
      1 O1           1.3992 -12.0089   7.3051 O.co2          1 <1>               -1.0000
      2 C2           0.7200 -11.7209   8.2757 C.2            1 <1>                0.0000
      3 O3          -0.1249 -10.8459   8.1906 O.co2          1 <1>                0.0000
      4 C4           0.9204 -12.4507   9.5789 C.3            1 <1>                0.0000
      5 C5           0.6680 -13.9452   9.3705 C.3            1 <1>                0.0000
      6 C6          -0.7202 -14.1629   8.7336 C.3            1 <1>                0.0000
      7 C7          -0.4284 -14.2767   7.2167 C.3            1 <1>                0.0000
      8 C8           0.9019 -15.0693   7.1830 C.3            1 <1>                0.0000
      9 C9           1.6992 -14.5215   8.3847 C.3            1 <1>                0.0000
     10 C10          0.7506 -14.6711  10.6887 C.ar           1 <1>                0.0000
     11 C11         -0.4059 -15.0760  11.3284 C.ar           1 <1>                0.0000
     12 C12         -0.3300 -15.7418  12.5375 C.ar           1 <1>                0.0000
     13 C13          0.9024 -16.0032  13.1065 C.ar           1 <1>                0.0000
     14 C14          2.0590 -15.5990  12.4662 C.ar           1 <1>                0.0000
     15 C15          1.9833 -14.9371  11.2550 C.ar           1 <1>                0.0000
     16 H16          1.9425 -12.2998   9.9265 H              1 <1>                0.0000
     17 H17          0.2230 -12.0646  10.3225 H              1 <1>                0.0000
     18 H18         -1.1704 -15.0833   9.1056 H              1 <1>                0.0000
     19 H19         -1.3699 -13.3110   8.9342 H              1 <1>                0.0000
     20 H20         -1.2204 -14.8295   6.7114 H              1 <1>                0.0000
     21 H21         -0.3011 -13.2894   6.7727 H              1 <1>                0.0000
     22 H22          0.7136 -16.1360   7.3045 H              1 <1>                0.0000
     23 H23          1.4359 -14.8789   6.2521 H              1 <1>                0.0000
     24 H24          2.3795 -13.7365   8.0546 H              1 <1>                0.0000
     25 H25          2.2599 -15.3269   8.8591 H              1 <1>                0.0000
     26 H26         -1.3687 -14.8719  10.8839 H              1 <1>                0.0000
     27 H27         -1.2336 -16.0575  13.0377 H              1 <1>                0.0000
     28 H28          0.9617 -16.5227  14.0514 H              1 <1>                0.0000
     29 H29          3.0219 -15.8029  12.9109 H              1 <1>                0.0000
     30 H30          2.8869 -14.6213  10.7547 H              1 <1>                0.0000
@<TRIPOS>BOND
    1    1    2 ar    
    2    2    3 ar    
    3    2    4 1     
    4    4    5 1     
    5    4   16 1     
    6    4   17 1     
    7    5    6 1     
    8    5    9 1     
    9    5   10 1     
   10    6    7 1     
   11    6   18 1     
   12    6   19 1     
   13    7    8 1     
   14    7   20 1     
   15    7   21 1     
   16    8    9 1     
   17    8   22 1     
   18    8   23 1     
   19    9   24 1     
   20    9   25 1     
   21   10   11 ar    
   22   10   15 ar    
   23   11   12 ar    
   24   11   26 1     
   25   12   13 ar    
   26   12   27 1     
   27   13   14 ar    
   28   13   28 1     
   29   14   15 ar    
   30   14   29 1     
   31   15   30 1     
@<TRIPOS>SUBSTRUCTURE
      1 ****           1
@<TRIPOS>COMMENT
> <Gold.Version>
2022.2.0

> <Gold.Id.Protein>
3pbl|protein|mol2

> <Gold.Protein.RotatedTorsions>
[ 1303 1298 1297 1294 ] final  116.46 input  179.99 | X-H torsion
[ 2461 2456 2455 2452 ] final -128.60 input   30.03 | X-H torsion
[ 2515 2510 2509 2506 ] final  -72.55 input  -89.99 | X-H torsion
[ 3721 3712 3711 3710 ] final  166.02 input -179.91 | X-H torsion
[ 3841 3832 3831 3830 ] final    7.93 input -179.91 | X-H torsion
[ 3767 3762 3761 3758 ] final   75.74 input  -89.99 | X-H torsion
[ 2472 2467 2466 2463 ] final  -63.60 input  -89.97 | X-H torsion

> <Gold.Protein.ActiveResidues>
 VAL82   VAL86   LEU89   PHE106  VAL107  ASP110  VAL111  MET112  CYS114  THR115 
 CYS181  SER182  ILE183  PHE188  VAL189  ILE190  SER192  SER193  SER196  TRP342 
 PHE345  PHE346  HIS349  VAL350  TYR365  THR369  GLY372  TYR373 

> <Gold.Protein.RotatedAtoms>
    4.7111   -9.8200    4.9477 H   0  0  0  0  0  0  0  0  0  0  0  0  # atno 1303 bound_to 1298
    0.6764   -9.2245    8.1384 H   0  0  0  0  0  0  0  0  0  0  0  0  # atno 2461 bound_to 2456
   -3.7542   -5.2083    9.0086 H   0  0  0  0  0  0  0  0  0  0  0  0  # atno 2472 bound_to 2467
    2.8357   -8.6935    4.4534 H   0  0  0  0  0  0  0  0  0  0  0  0  # atno 2515 bound_to 2510
   -3.2803  -16.7080   13.3660 H   0  0  0  0  0  0  0  0  0  0  0  0  # atno 3721 bound_to 3712
   -4.3600  -23.3304   10.3376 H   0  0  0  0  0  0  0  0  0  0  0  0  # atno 3767 bound_to 3762
    1.8109  -20.5748    9.5914 H   0  0  0  0  0  0  0  0  0  0  0  0  # atno 3841 bound_to 3832
    3.3694   -9.8256    4.0169 LP  0  0  0  0  0  0  0  0  0  0  0  0  # atno 4297 bound_to 1298
    4.2814   -8.4755    4.1267 LP  0  0  0  0  0  0  0  0  0  0  0  0  # atno 4298 bound_to 1298
    2.1512   -8.5429    7.9723 LP  0  0  0  0  0  0  0  0  0  0  0  0  # atno 4299 bound_to 2456
    0.9100   -8.0409    7.0375 LP  0  0  0  0  0  0  0  0  0  0  0  0  # atno 4300 bound_to 2456
    2.2417   -8.8902    5.9614 LP  0  0  0  0  0  0  0  0  0  0  0  0  # atno 4301 bound_to 2510
    2.2192   -7.4153    5.2608 LP  0  0  0  0  0  0  0  0  0  0  0  0  # atno 4302 bound_to 2510
   -2.6649  -18.1765   13.5720 LP  0  0  0  0  0  0  0  0  0  0  0  0  # atno 4306 bound_to 3712
   -3.0755  -17.2601   14.8597 LP  0  0  0  0  0  0  0  0  0  0  0  0  # atno 4307 bound_to 3712
    2.0267  -19.6373    8.3067 LP  0  0  0  0  0  0  0  0  0  0  0  0  # atno 4314 bound_to 3832
    3.1107  -20.8010    8.6774 LP  0  0  0  0  0  0  0  0  0  0  0  0  # atno 4315 bound_to 3832
   -5.5092  -22.1994   10.5970 LP  0  0  0  0  0  0  0  0  0  0  0  0  # atno 4318 bound_to 3762
   -4.2581  -22.3455   11.6363 LP  0  0  0  0  0  0  0  0  0  0  0  0  # atno 4319 bound_to 3762
   -5.3784   -5.3728    8.9714 LP  0  0  0  0  0  0  0  0  0  0  0  0  # atno 4320 bound_to 2467
   -4.5842   -4.8125    7.6592 LP  0  0  0  0  0  0  0  0  0  0  0  0  # atno 4321 bound_to 2467

> <Gold.Score>
     Score     S(PLP)   S(hbond)     S(cho)   S(metal)  DE(clash)   DE(tors)     intcor
     42.05     -40.10       1.00       0.00       0.00       0.15       0.68       0.46

> <Gold.PLP.Fitness>
42.0529

> <Gold.PLP.PLP>
-40.1010

> <Gold.PLP.part.hbond>
-1.0000

> <Gold.PLP.part.metal>
0.0000

> <Gold.PLP.part.buried>
-3.8344

> <Gold.PLP.part.nonpolar>
-36.1490

> <Gold.PLP.part.repulsive>
0.0660

> <Gold.PLP.ligand.clash>
0.1536

> <Gold.PLP.ligand.torsion>
0.6773

> <Gold.PLP.Chemscore.Hbond>
1.0000

> <Gold.PLP.Chemscore.CHOScore>
0.0000

> <Gold.PLP.Chemscore.Metal>
0.0000

> <Gold.Chemscore.Hbonds>
donor molecule, donor type, donor heavy atom, donor atom, acceptor molecule, acceptor atom, score
      P1  H  2456  2461       L1     3  1.00

> <Gold.PLP.Chemscore.Internal.Correction>
0.4601

