#       Name:                EN300-344045_i001
#       Creating user name   fsindt
#       Creation time:       Tue Feb 28 20:11:55 2023


#       File generated by GOLD software.
#

@<TRIPOS>MOLECULE
EN300-344045_i001|acide_2|mol2|6937|dock2
    30    31     1
SMALL
USER_CHARGES


@<TRIPOS>ATOM
      1 O1           0.5661 -15.7707  10.9576 O.co2          1 <1>               -1.0000
      2 C2           0.2489 -14.5943  11.0019 C.2            1 <1>                0.0000
      3 O3          -0.6663 -14.2364  11.7237 O.co2          1 <1>                0.0000
      4 C4           0.9922 -13.5817  10.1694 C.3            1 <1>                0.0000
      5 C5           0.0568 -13.0163   9.0988 C.3            1 <1>                0.0000
      6 C6           0.8768 -12.3025   8.0042 C.3            1 <1>                0.0000
      7 C7           1.0511 -13.3749   6.9002 C.3            1 <1>                0.0000
      8 C8          -0.3163 -14.1023   6.9114 C.3            1 <1>                0.0000
      9 C9          -0.7017 -14.1605   8.4040 C.3            1 <1>                0.0000
     10 C10         -0.9194 -12.0528   9.7233 C.ar           1 <1>                0.0000
     11 C11         -0.7018 -11.5818  11.0046 C.ar           1 <1>                0.0000
     12 C12         -1.5972 -10.6981  11.5774 C.ar           1 <1>                0.0000
     13 C13         -2.7099 -10.2850  10.8687 C.ar           1 <1>                0.0000
     14 C14         -2.9270 -10.7553   9.5871 C.ar           1 <1>                0.0000
     15 C15         -2.0292 -11.6357   9.0126 C.ar           1 <1>                0.0000
     16 H16          1.3431 -12.7722  10.8096 H              1 <1>                0.0000
     17 H17          1.8455 -14.0614   9.6898 H              1 <1>                0.0000
     18 H18          0.3298 -11.4425   7.6177 H              1 <1>                0.0000
     19 H19          1.8472 -11.9949   8.3939 H              1 <1>                0.0000
     20 H20          1.2319 -12.9071   5.9324 H              1 <1>                0.0000
     21 H21          1.8570 -14.0634   7.1543 H              1 <1>                0.0000
     22 H22         -1.0559 -13.5330   6.3483 H              1 <1>                0.0000
     23 H23         -0.2166 -15.1082   6.5036 H              1 <1>                0.0000
     24 H24         -0.4034 -15.1187   8.8294 H              1 <1>                0.0000
     25 H25         -1.7765 -14.0194   8.5179 H              1 <1>                0.0000
     26 H26          0.1674 -11.9045  11.5583 H              1 <1>                0.0000
     27 H27         -1.4278 -10.3307  12.5787 H              1 <1>                0.0000
     28 H28         -3.4099  -9.5951  11.3165 H              1 <1>                0.0000
     29 H29         -3.7964 -10.4328   9.0334 H              1 <1>                0.0000
     30 H30         -2.1987 -12.0032   8.0113 H              1 <1>                0.0000
@<TRIPOS>BOND
    1    1    2 ar    
    2    2    3 ar    
    3    2    4 1     
    4    4    5 1     
    5    4   16 1     
    6    4   17 1     
    7    5    6 1     
    8    5    9 1     
    9    5   10 1     
   10    6    7 1     
   11    6   18 1     
   12    6   19 1     
   13    7    8 1     
   14    7   20 1     
   15    7   21 1     
   16    8    9 1     
   17    8   22 1     
   18    8   23 1     
   19    9   24 1     
   20    9   25 1     
   21   10   11 ar    
   22   10   15 ar    
   23   11   12 ar    
   24   11   26 1     
   25   12   13 ar    
   26   12   27 1     
   27   13   14 ar    
   28   13   28 1     
   29   14   15 ar    
   30   14   29 1     
   31   15   30 1     
@<TRIPOS>SUBSTRUCTURE
      1 ****           1
@<TRIPOS>COMMENT
> <Gold.Version>
2022.2.0

> <Gold.Id.Protein>
3pbl|protein|mol2

> <Gold.Protein.RotatedTorsions>
[ 1303 1298 1297 1294 ] final -143.77 input  179.99 | X-H torsion
[ 2461 2456 2455 2452 ] final  -67.46 input   30.03 | X-H torsion
[ 2515 2510 2509 2506 ] final   94.83 input  -89.99 | X-H torsion
[ 3721 3712 3711 3710 ] final -155.89 input -179.91 | X-H torsion
[ 3841 3832 3831 3830 ] final -151.45 input -179.91 | X-H torsion
[ 3767 3762 3761 3758 ] final  114.62 input  -89.99 | X-H torsion
[ 2472 2467 2466 2463 ] final  -71.44 input  -89.97 | X-H torsion

> <Gold.Protein.ActiveResidues>
 VAL82   VAL86   LEU89   PHE106  VAL107  ASP110  VAL111  MET112  CYS114  THR115 
 CYS181  SER182  ILE183  PHE188  VAL189  ILE190  SER192  SER193  SER196  TRP342 
 PHE345  PHE346  HIS349  VAL350  TYR365  THR369  GLY372  TYR373 

> <Gold.Protein.RotatedAtoms>
    4.5391   -8.5299    4.3275 H   0  0  0  0  0  0  0  0  0  0  0  0  # atno 1303 bound_to 1298
    0.3432   -8.6490    7.4472 H   0  0  0  0  0  0  0  0  0  0  0  0  # atno 2461 bound_to 2456
   -3.8244   -5.2517    9.1076 H   0  0  0  0  0  0  0  0  0  0  0  0  # atno 2472 bound_to 2467
    2.0359   -7.7953    5.8899 H   0  0  0  0  0  0  0  0  0  0  0  0  # atno 2515 bound_to 2510
   -3.3346  -16.5304   13.8999 H   0  0  0  0  0  0  0  0  0  0  0  0  # atno 3721 bound_to 3712
   -3.9838  -23.2270   10.8293 H   0  0  0  0  0  0  0  0  0  0  0  0  # atno 3767 bound_to 3762
    2.6470  -19.7644    8.3482 H   0  0  0  0  0  0  0  0  0  0  0  0  # atno 3841 bound_to 3832
    4.4930  -10.0623    4.8895 LP  0  0  0  0  0  0  0  0  0  0  0  0  # atno 4297 bound_to 1298
    3.3300   -9.5295    3.8746 LP  0  0  0  0  0  0  0  0  0  0  0  0  # atno 4298 bound_to 1298
    1.5649   -9.1722    8.3963 LP  0  0  0  0  0  0  0  0  0  0  0  0  # atno 4299 bound_to 2456
    1.8294   -7.9870    7.3046 LP  0  0  0  0  0  0  0  0  0  0  0  0  # atno 4300 bound_to 2456
    2.6959   -7.9506    4.4046 LP  0  0  0  0  0  0  0  0  0  0  0  0  # atno 4301 bound_to 2510
    2.5651   -9.2534    5.3804 LP  0  0  0  0  0  0  0  0  0  0  0  0  # atno 4302 bound_to 2510
   -2.8959  -17.8477   13.0936 LP  0  0  0  0  0  0  0  0  0  0  0  0  # atno 4306 bound_to 3712
   -2.7819  -17.7940   14.7217 LP  0  0  0  0  0  0  0  0  0  0  0  0  # atno 4307 bound_to 3712
    2.7712  -21.1300    9.1822 LP  0  0  0  0  0  0  0  0  0  0  0  0  # atno 4314 bound_to 3832
    1.4004  -20.2444    9.2380 LP  0  0  0  0  0  0  0  0  0  0  0  0  # atno 4315 bound_to 3832
   -5.3690  -22.6508   10.1842 LP  0  0  0  0  0  0  0  0  0  0  0  0  # atno 4318 bound_to 3762
   -4.7742  -21.9975   11.5576 LP  0  0  0  0  0  0  0  0  0  0  0  0  # atno 4319 bound_to 3762
   -5.4362   -5.3394    8.8612 LP  0  0  0  0  0  0  0  0  0  0  0  0  # atno 4320 bound_to 2467
   -4.4562   -4.8025    7.6704 LP  0  0  0  0  0  0  0  0  0  0  0  0  # atno 4321 bound_to 2467

> <Gold.Score>
     Score     S(PLP)   S(hbond)     S(cho)   S(metal)  DE(clash)   DE(tors)     intcor
     46.08     -46.99       0.00       0.00       0.00       0.00       0.69       0.47

> <Gold.PLP.Fitness>
46.0802

> <Gold.PLP.PLP>
-46.9933

> <Gold.PLP.part.hbond>
0.0000

> <Gold.PLP.part.metal>
0.0000

> <Gold.PLP.part.buried>
-3.4609

> <Gold.PLP.part.nonpolar>
-45.1760

> <Gold.PLP.part.repulsive>
0.7074

> <Gold.PLP.ligand.clash>
0.0000

> <Gold.PLP.ligand.torsion>
0.6900

> <Gold.PLP.Chemscore.Hbond>
0.0000

> <Gold.PLP.Chemscore.CHOScore>
0.0000

> <Gold.PLP.Chemscore.Metal>
0.0000

> <Gold.PLP.Chemscore.Internal.Correction>
0.4669

