#       Name:                EN300-344045_i001
#       Creating user name   fsindt
#       Creation time:       Tue Feb 28 20:11:54 2023


#       File generated by GOLD software.
#

@<TRIPOS>MOLECULE
EN300-344045_i001
    30    31     1
SMALL
USER_CHARGES


@<TRIPOS>ATOM
      1 O1          -0.1024   2.2461  -1.2465 O.co2          1 <1>               -1.0000
      2 C2          -0.7349   2.5223  -0.2415 C.2            1 <1>                0.0000
      3 O3          -1.1003   3.6692  -0.0471 O.co2          1 <1>                0.0000
      4 C4          -1.0706   1.4450   0.7574 C.3            1 <1>                0.0000
      5 C5          -0.6063   0.0895   0.2209 C.3            1 <1>                0.0000
      6 C6          -1.0739  -1.0397   1.1623 C.3            1 <1>                0.0000
      7 C7          -2.3927  -1.5436   0.5252 C.3            1 <1>                0.0000
      8 C8          -2.0892  -1.4706  -0.9919 C.3            1 <1>                0.0000
      9 C9          -1.2518  -0.1845  -1.1487 C.3            1 <1>                0.0000
     10 C10          0.8956   0.0703   0.0980 C.ar           1 <1>                0.0000
     11 C11          1.5261  -1.0022  -0.5045 C.ar           1 <1>                0.0000
     12 C12          2.9037  -1.0198  -0.6172 C.ar           1 <1>                0.0000
     13 C13          3.6508   0.0354  -0.1279 C.ar           1 <1>                0.0000
     14 C14          3.0202   1.1083   0.4738 C.ar           1 <1>                0.0000
     15 C15          1.6422   1.1279   0.5826 C.ar           1 <1>                0.0000
     16 H16         -0.5664   1.6544   1.7009 H              1 <1>                0.0000
     17 H17         -2.1484   1.4221   0.9187 H              1 <1>                0.0000
     18 H18         -0.3351  -1.8405   1.1938 H              1 <1>                0.0000
     19 H19         -1.2584  -0.6500   2.1634 H              1 <1>                0.0000
     20 H20         -2.6009  -2.5697   0.8286 H              1 <1>                0.0000
     21 H21         -3.2229  -0.8868   0.7851 H              1 <1>                0.0000
     22 H22         -1.5144  -2.3410  -1.3083 H              1 <1>                0.0000
     23 H23         -3.0146  -1.3953  -1.5629 H              1 <1>                0.0000
     24 H24         -1.8959   0.6482  -1.4312 H              1 <1>                0.0000
     25 H25         -0.4789  -0.3318  -1.9030 H              1 <1>                0.0000
     26 H26          0.9425  -1.8266  -0.8868 H              1 <1>                0.0000
     27 H27          3.3964  -1.8581  -1.0872 H              1 <1>                0.0000
     28 H28          4.7271   0.0213  -0.2153 H              1 <1>                0.0000
     29 H29          3.6038   1.9326   0.8564 H              1 <1>                0.0000
     30 H30          1.1495   1.9662   1.0527 H              1 <1>                0.0000
@<TRIPOS>BOND
    1    1    2 ar    
    2    2    3 ar    
    3    2    4 1     
    4    4    5 1     
    5    4   16 1     
    6    4   17 1     
    7    5    6 1     
    8    5    9 1     
    9    5   10 1     
   10    6    7 1     
   11    6   18 1     
   12    6   19 1     
   13    7    8 1     
   14    7   20 1     
   15    7   21 1     
   16    8    9 1     
   17    8   22 1     
   18    8   23 1     
   19    9   24 1     
   20    9   25 1     
   21   10   11 ar    
   22   10   15 ar    
   23   11   12 ar    
   24   11   26 1     
   25   12   13 ar    
   26   12   27 1     
   27   13   14 ar    
   28   13   28 1     
   29   14   15 ar    
   30   14   29 1     
   31   15   30 1     
@<TRIPOS>SUBSTRUCTURE
      1 ****           1
