#       Name:                EN300-344045_i001
#       Creating user name   fsindt
#       Creation time:       Tue Feb 28 20:11:56 2023


#       File generated by GOLD software.
#

@<TRIPOS>MOLECULE
EN300-344045_i001|acide_2|mol2|6937|dock5
    30    31     1
SMALL
USER_CHARGES


@<TRIPOS>ATOM
      1 O1           0.1290  -9.6537  12.2260 O.co2          1 <1>               -1.0000
      2 C2          -0.0455  -9.6843  11.0197 C.2            1 <1>                0.0000
      3 O3          -0.6956  -8.8081  10.4754 O.co2          1 <1>                0.0000
      4 C4           0.5477 -10.8015  10.2006 C.3            1 <1>                0.0000
      5 C5          -0.5739 -11.7000   9.6757 C.3            1 <1>                0.0000
      6 C6          -1.3451 -12.3265  10.8558 C.3            1 <1>                0.0000
      7 C7          -2.5599 -11.3869  11.0572 C.3            1 <1>                0.0000
      8 C8          -2.9452 -11.0102   9.6051 C.3            1 <1>                0.0000
      9 C9          -1.5912 -10.8631   8.8805 C.3            1 <1>                0.0000
     10 C10          0.0004 -12.7842   8.8006 C.ar           1 <1>                0.0000
     11 C11         -0.0699 -14.1054   9.2011 C.ar           1 <1>                0.0000
     12 C12          0.4570 -15.0998   8.3984 C.ar           1 <1>                0.0000
     13 C13          1.0537 -14.7732   7.1950 C.ar           1 <1>                0.0000
     14 C14          1.1232 -13.4521   6.7941 C.ar           1 <1>                0.0000
     15 C15          0.5924 -12.4580   7.5948 C.ar           1 <1>                0.0000
     16 H16          1.1006 -10.3819   9.3601 H              1 <1>                0.0000
     17 H17          1.2230 -11.3891  10.8226 H              1 <1>                0.0000
     18 H18         -1.6790 -13.3326  10.6021 H              1 <1>                0.0000
     19 H19         -0.7239 -12.3442  11.7512 H              1 <1>                0.0000
     20 H20         -3.3777 -11.9131  11.5498 H              1 <1>                0.0000
     21 H21         -2.2730 -10.5006  11.6231 H              1 <1>                0.0000
     22 H22         -3.5375 -11.8037   9.1495 H              1 <1>                0.0000
     23 H23         -3.4916 -10.0672   9.5878 H              1 <1>                0.0000
     24 H24         -1.2860  -9.8168   8.8686 H              1 <1>                0.0000
     25 H25         -1.6702 -11.2410   7.8612 H              1 <1>                0.0000
     26 H26         -0.5361 -14.3606  10.1413 H              1 <1>                0.0000
     27 H27          0.4027 -16.1320   8.7117 H              1 <1>                0.0000
     28 H28          1.4659 -15.5501   6.5683 H              1 <1>                0.0000
     29 H29          1.5896 -13.1968   5.8541 H              1 <1>                0.0000
     30 H30          0.6467 -11.4258   7.2816 H              1 <1>                0.0000
@<TRIPOS>BOND
    1    1    2 ar    
    2    2    3 ar    
    3    2    4 1     
    4    4    5 1     
    5    4   16 1     
    6    4   17 1     
    7    5    6 1     
    8    5    9 1     
    9    5   10 1     
   10    6    7 1     
   11    6   18 1     
   12    6   19 1     
   13    7    8 1     
   14    7   20 1     
   15    7   21 1     
   16    8    9 1     
   17    8   22 1     
   18    8   23 1     
   19    9   24 1     
   20    9   25 1     
   21   10   11 ar    
   22   10   15 ar    
   23   11   12 ar    
   24   11   26 1     
   25   12   13 ar    
   26   12   27 1     
   27   13   14 ar    
   28   13   28 1     
   29   14   15 ar    
   30   14   29 1     
   31   15   30 1     
@<TRIPOS>SUBSTRUCTURE
      1 ****           1
@<TRIPOS>COMMENT
> <Gold.Version>
2022.2.0

> <Gold.Id.Protein>
3pbl|protein|mol2

> <Gold.Protein.RotatedTorsions>
[ 1303 1298 1297 1294 ] final  -33.05 input  179.99 | X-H torsion
[ 2461 2456 2455 2452 ] final  112.75 input   30.03 | X-H torsion
[ 2515 2510 2509 2506 ] final  -10.36 input  -89.99 | X-H torsion
[ 3721 3712 3711 3710 ] final   -5.95 input -179.91 | X-H torsion
[ 3841 3832 3831 3830 ] final  113.12 input -179.91 | X-H torsion
[ 3767 3762 3761 3758 ] final  -93.38 input  -89.99 | X-H torsion
[ 2472 2467 2466 2463 ] final   -1.73 input  -89.97 | X-H torsion

> <Gold.Protein.ActiveResidues>
 VAL82   VAL86   LEU89   PHE106  VAL107  ASP110  VAL111  MET112  CYS114  THR115 
 CYS181  SER182  ILE183  PHE188  VAL189  ILE190  SER192  SER193  SER196  TRP342 
 PHE345  PHE346  HIS349  VAL350  TYR365  THR369  GLY372  TYR373 

> <Gold.Protein.RotatedAtoms>
    3.3446   -9.3845    3.8291 H   0  0  0  0  0  0  0  0  0  0  0  0  # atno 1303 bound_to 1298
    2.1481   -8.5589    7.9873 H   0  0  0  0  0  0  0  0  0  0  0  0  # atno 2461 bound_to 2456
   -3.7822   -4.8825    8.0961 H   0  0  0  0  0  0  0  0  0  0  0  0  # atno 2472 bound_to 2467
    2.6090   -7.7483    4.5074 H   0  0  0  0  0  0  0  0  0  0  0  0  # atno 2515 bound_to 2510
   -2.5017  -17.9185   14.3224 H   0  0  0  0  0  0  0  0  0  0  0  0  # atno 3721 bound_to 3712
   -5.1877  -21.9158   11.2534 H   0  0  0  0  0  0  0  0  0  0  0  0  # atno 3767 bound_to 3762
    3.0424  -20.7834    9.0157 H   0  0  0  0  0  0  0  0  0  0  0  0  # atno 3841 bound_to 3832
    4.6423   -8.5905    4.4222 LP  0  0  0  0  0  0  0  0  0  0  0  0  # atno 4297 bound_to 1298
    4.3756  -10.1463    4.8405 LP  0  0  0  0  0  0  0  0  0  0  0  0  # atno 4298 bound_to 1298
    0.9301   -8.0318    7.0355 LP  0  0  0  0  0  0  0  0  0  0  0  0  # atno 4299 bound_to 2456
    0.6599   -9.2174    8.1255 LP  0  0  0  0  0  0  0  0  0  0  0  0  # atno 4300 bound_to 2456
    2.6581   -9.2458    5.1561 LP  0  0  0  0  0  0  0  0  0  0  0  0  # atno 4301 bound_to 2510
    2.0295   -8.0053    6.0120 LP  0  0  0  0  0  0  0  0  0  0  0  0  # atno 4302 bound_to 2510
   -3.4735  -16.6414   14.3709 LP  0  0  0  0  0  0  0  0  0  0  0  0  # atno 4306 bound_to 3712
   -3.1659  -17.3977   12.9567 LP  0  0  0  0  0  0  0  0  0  0  0  0  # atno 4307 bound_to 3712
    1.5113  -20.5300    9.4252 LP  0  0  0  0  0  0  0  0  0  0  0  0  # atno 4314 bound_to 3832
    2.2037  -19.6673    8.2240 LP  0  0  0  0  0  0  0  0  0  0  0  0  # atno 4315 bound_to 3832
   -3.9126  -22.9360   11.2540 LP  0  0  0  0  0  0  0  0  0  0  0  0  # atno 4318 bound_to 3762
   -5.0272  -23.0230   10.0638 LP  0  0  0  0  0  0  0  0  0  0  0  0  # atno 4319 bound_to 3762
   -4.5297   -5.4461    9.4340 LP  0  0  0  0  0  0  0  0  0  0  0  0  # atno 4320 bound_to 2467
   -5.4048   -5.0649    8.1090 LP  0  0  0  0  0  0  0  0  0  0  0  0  # atno 4321 bound_to 2467

> <Gold.Score>
     Score     S(PLP)   S(hbond)     S(cho)   S(metal)  DE(clash)   DE(tors)     intcor
     41.24     -41.43       0.00       0.00       0.00       0.22       0.21       0.46

> <Gold.PLP.Fitness>
41.2390

> <Gold.PLP.PLP>
-41.4251

> <Gold.PLP.part.hbond>
-0.7624

> <Gold.PLP.part.metal>
0.0000

> <Gold.PLP.part.buried>
4.4610

> <Gold.PLP.part.nonpolar>
-47.1913

> <Gold.PLP.part.repulsive>
0.7449

> <Gold.PLP.ligand.clash>
0.2249

> <Gold.PLP.ligand.torsion>
0.2122

> <Gold.PLP.Chemscore.Hbond>
0.0000

> <Gold.PLP.Chemscore.CHOScore>
0.0000

> <Gold.PLP.Chemscore.Metal>
0.0000

> <Gold.PLP.Chemscore.Internal.Correction>
0.4633

