#       Name:                EN300-261105_i001
#       Creating user name   aseyller
#       Creation time:       Fri Apr 21 17:39:11 2023


#       File generated by GOLD software.
#

@<TRIPOS>MOLECULE
EN300-261105_i001|Sulfonylchlorides|mol2|318|dock2
    25    25     1
SMALL
USER_CHARGES


@<TRIPOS>ATOM
      1 Cl1         31.6332  34.2676  38.3474 Cl             1 <1>                0.0000
      2 S2          32.1066  35.9241  37.2929 S.o2           1 <1>                0.0000
      3 O3          33.2992  36.3987  37.9024 O.2            1 <1>                0.0000
      4 O4          32.0975  35.4922  35.9391 O.2            1 <1>                0.0000
      5 C5          30.7334  37.0674  37.6054 C.3            1 <1>                0.0000
      6 C6          29.6995  36.3888  38.5061 C.3            1 <1>                0.0000
      7 C7          28.3201  36.9987  38.2487 C.3            1 <1>                0.0000
      8 C8          27.3067  36.3984  39.2252 C.3            1 <1>                0.0000
      9 C9          26.0319  37.2729  39.3053 C.3            1 <1>                0.0000
     10 C10         25.6745  37.2832  40.8043 C.3            1 <1>                0.0000
     11 O11         26.6325  36.4496  41.4778 O.3            1 <1>                0.0000
     12 C12         27.8363  36.4622  40.6805 C.3            1 <1>                0.0000
     13 H13         31.1115  37.9635  38.0975 H              1 <1>                0.0000
     14 H14         30.2667  37.3421  36.6594 H              1 <1>                0.0000
     15 H15         29.6714  35.3214  38.2869 H              1 <1>                0.0000
     16 H16         29.9736  36.5381  39.5505 H              1 <1>                0.0000
     17 H17         28.3676  38.0781  38.3922 H              1 <1>                0.0000
     18 H18         28.0120  36.7815  37.2260 H              1 <1>                0.0000
     19 H19         27.0592  35.3745  38.9454 H              1 <1>                0.0000
     20 H20         26.2402  38.2841  38.9558 H              1 <1>                0.0000
     21 H21         25.2255  36.8259  38.7240 H              1 <1>                0.0000
     22 H22         25.7311  38.3004  41.1919 H              1 <1>                0.0000
     23 H23         24.6703  36.8847  40.9487 H              1 <1>                0.0000
     24 H24         28.4531  35.5915  40.9030 H              1 <1>                0.0000
     25 H25         28.3962  37.3828  40.8452 H              1 <1>                0.0000
@<TRIPOS>BOND
    1    1    2 1     
    2    2    3 2     
    3    2    4 2     
    4    2    5 1     
    5    5    6 1     
    6    5   13 1     
    7    5   14 1     
    8    6    7 1     
    9    6   15 1     
   10    6   16 1     
   11    7    8 1     
   12    7   17 1     
   13    7   18 1     
   14    8    9 1     
   15    8   12 1     
   16    8   19 1     
   17    9   10 1     
   18    9   20 1     
   19    9   21 1     
   20   10   11 1     
   21   10   22 1     
   22   10   23 1     
   23   11   12 1     
   24   12   24 1     
   25   12   25 1     
@<TRIPOS>SUBSTRUCTURE
      1 ****           1
@<TRIPOS>COMMENT
> <Gold.Version>
2022.2.0

> <Gold.Id.Protein>
1qkm|1qkm_protein|mol2

> <Gold.Protein.RotatedTorsions>
[  496  491  490  487 ] final -119.96 input  -89.99 | X-H torsion

> <Gold.Protein.ActiveResidues>
 MET295  LEU298  THR299  LEU301  ALA302  GLU305  TRP335  MET336  LEU339  MET340 
 GLY342  LEU343  ARG346  PHE356  ILE373  ILE376  PHE377  LEU380  LYS471  GLY472 
 MET473  HIS475  LEU476  LEU477  ASN478  MET479  VAL484  VAL487 

> <Gold.Protein.RotatedAtoms>
   37.0257   34.3566   40.8007 H   0  0  0  0  0  0  0  0  0  0  0  0  # atno 496  bound_to 491 

> <Gold.Score>
     Score     S(PLP)   S(hbond)     S(cho)   S(metal)  DE(clash)   DE(tors)     intcor
     38.44     -38.92       0.00       0.00       0.00       0.00       0.33       0.18

> <Gold.PLP.Fitness>
38.4384

> <Gold.PLP.PLP>
-38.9183

> <Gold.PLP.part.hbond>
0.0000

> <Gold.PLP.part.metal>
0.0000

> <Gold.PLP.part.buried>
-4.2554

> <Gold.PLP.part.nonpolar>
-36.1711

> <Gold.PLP.part.repulsive>
0.8319

> <Gold.PLP.ligand.clash>
0.0000

> <Gold.PLP.ligand.torsion>
0.3295

> <Gold.PLP.Chemscore.Hbond>
0.0000

> <Gold.PLP.Chemscore.CHOScore>
0.0000

> <Gold.PLP.Chemscore.Metal>
0.0000

> <Gold.PLP.Chemscore.Internal.Correction>
0.1791

