#       Name:                EN300-261105_i001
#       Creating user name   aseyller
#       Creation time:       Fri Apr 21 17:39:24 2023


#       File generated by GOLD software.
#

@<TRIPOS>MOLECULE
EN300-261105_i001|Sulfonylchlorides|mol2|318|dock16
    25    25     1
SMALL
USER_CHARGES


@<TRIPOS>ATOM
      1 Cl1         32.9980  37.0908  35.1833 Cl             1 <1>                0.0000
      2 S2          31.1355  37.8007  35.5113 S.o2           1 <1>                0.0000
      3 O3          31.1488  39.0993  34.9345 O.2            1 <1>                0.0000
      4 O4          30.2794  36.7843  35.0080 O.2            1 <1>                0.0000
      5 C5          31.0033  37.9077  37.3173 C.3            1 <1>                0.0000
      6 C6          29.9664  36.8980  37.8135 C.3            1 <1>                0.0000
      7 C7          28.5927  37.5684  37.8797 C.3            1 <1>                0.0000
      8 C8          27.6322  36.6854  38.6788 C.3            1 <1>                0.0000
      9 C9          26.2411  37.3532  38.8023 C.3            1 <1>                0.0000
     10 C10         25.8148  37.0719  40.2563 C.3            1 <1>                0.0000
     11 O11         26.8509  36.2789  40.8595 O.3            1 <1>                0.0000
     12 C12         28.0766  36.5845  40.1603 C.3            1 <1>                0.0000
     13 H13         31.9712  37.6849  37.7663 H              1 <1>                0.0000
     14 H14         30.6948  38.9141  37.6001 H              1 <1>                0.0000
     15 H15         29.9252  36.0523  37.1270 H              1 <1>                0.0000
     16 H16         30.2475  36.5467  38.8063 H              1 <1>                0.0000
     17 H17         28.6852  38.5388  38.3673 H              1 <1>                0.0000
     18 H18         28.2060  37.7048  36.8698 H              1 <1>                0.0000
     19 H19         27.5504  35.6962  38.2285 H              1 <1>                0.0000
     20 H20         26.3162  38.4265  38.6276 H              1 <1>                0.0000
     21 H21         25.5372  36.9003  38.1040 H              1 <1>                0.0000
     22 H22         25.7038  38.0111  40.7983 H              1 <1>                0.0000
     23 H23         24.8737  36.5221  40.2668 H              1 <1>                0.0000
     24 H24         28.8025  35.7817  40.2894 H              1 <1>                0.0000
     25 H25         28.4877  37.5339  40.5033 H              1 <1>                0.0000
@<TRIPOS>BOND
    1    1    2 1     
    2    2    3 2     
    3    2    4 2     
    4    2    5 1     
    5    5    6 1     
    6    5   13 1     
    7    5   14 1     
    8    6    7 1     
    9    6   15 1     
   10    6   16 1     
   11    7    8 1     
   12    7   17 1     
   13    7   18 1     
   14    8    9 1     
   15    8   12 1     
   16    8   19 1     
   17    9   10 1     
   18    9   20 1     
   19    9   21 1     
   20   10   11 1     
   21   10   22 1     
   22   10   23 1     
   23   11   12 1     
   24   12   24 1     
   25   12   25 1     
@<TRIPOS>SUBSTRUCTURE
      1 ****           1
@<TRIPOS>COMMENT
> <Gold.Version>
2022.2.0

> <Gold.Id.Protein>
1qkm|1qkm_protein|mol2

> <Gold.Protein.RotatedTorsions>
[  496  491  490  487 ] final -162.78 input  -89.99 | X-H torsion

> <Gold.Protein.ActiveResidues>
 MET295  LEU298  THR299  LEU301  ALA302  GLU305  TRP335  MET336  LEU339  MET340 
 GLY342  LEU343  ARG346  PHE356  ILE373  ILE376  PHE377  LEU380  LYS471  GLY472 
 MET473  HIS475  LEU476  LEU477  ASN478  MET479  VAL484  VAL487 

> <Gold.Protein.RotatedAtoms>
   37.2848   33.7199   40.7582 H   0  0  0  0  0  0  0  0  0  0  0  0  # atno 496  bound_to 491 

> <Gold.Score>
     Score     S(PLP)   S(hbond)     S(cho)   S(metal)  DE(clash)   DE(tors)     intcor
     35.97     -36.56       0.00       0.00       0.00       0.00       0.37       0.15

> <Gold.PLP.Fitness>
35.9657

> <Gold.PLP.PLP>
-36.5583

> <Gold.PLP.part.hbond>
0.0000

> <Gold.PLP.part.metal>
0.0000

> <Gold.PLP.part.buried>
-3.8261

> <Gold.PLP.part.nonpolar>
-33.4873

> <Gold.PLP.part.repulsive>
0.1767

> <Gold.PLP.ligand.clash>
0.0000

> <Gold.PLP.ligand.torsion>
0.3731

> <Gold.PLP.Chemscore.Hbond>
0.0000

> <Gold.PLP.Chemscore.CHOScore>
0.0000

> <Gold.PLP.Chemscore.Metal>
0.0000

> <Gold.PLP.Chemscore.Internal.Correction>
0.1537

