#       Name:                EN300-261105_i001
#       Creating user name   aseyller
#       Creation time:       Fri Apr 21 17:39:16 2023


#       File generated by GOLD software.
#

@<TRIPOS>MOLECULE
EN300-261105_i001|Sulfonylchlorides|mol2|318|dock8
    25    25     1
SMALL
USER_CHARGES


@<TRIPOS>ATOM
      1 Cl1         32.2919  35.6709  35.4803 Cl             1 <1>                0.0000
      2 S2          32.1054  35.7856  37.4884 S.o2           1 <1>                0.0000
      3 O3          31.7973  34.4572  37.8882 O.2            1 <1>                0.0000
      4 O4          33.3028  36.4202  37.9159 O.2            1 <1>                0.0000
      5 C5          30.6792  36.8758  37.7490 C.3            1 <1>                0.0000
      6 C6          29.6154  36.1379  38.5644 C.3            1 <1>                0.0000
      7 C7          28.2409  36.7459  38.2783 C.3            1 <1>                0.0000
      8 C8          27.2409  36.2641  39.3314 C.3            1 <1>                0.0000
      9 C9          25.9057  37.0398  39.2210 C.3            1 <1>                0.0000
     10 C10         25.4998  37.3031  40.6841 C.3            1 <1>                0.0000
     11 O11         26.4916  36.6845  41.5207 O.3            1 <1>                0.0000
     12 C12         27.7169  36.6384  40.7582 C.3            1 <1>                0.0000
     13 H13         30.9973  37.7675  38.2892 H              1 <1>                0.0000
     14 H14         30.2618  37.1650  36.7845 H              1 <1>                0.0000
     15 H15         29.6113  35.0839  38.2870 H              1 <1>                0.0000
     16 H16         29.8409  36.2333  39.6266 H              1 <1>                0.0000
     17 H17         28.3100  37.8331  38.3134 H              1 <1>                0.0000
     18 H18         27.9049  36.4351  37.2891 H              1 <1>                0.0000
     19 H19         27.0753  35.1903  39.2452 H              1 <1>                0.0000
     20 H20         26.0537  37.9807  38.6909 H              1 <1>                0.0000
     21 H21         25.1521  36.4326  38.7194 H              1 <1>                0.0000
     22 H22         25.4720  38.3762  40.8737 H              1 <1>                0.0000
     23 H23         24.5219  36.8642  40.8822 H              1 <1>                0.0000
     24 H24         28.3858  35.8736  41.1526 H              1 <1>                0.0000
     25 H25         28.2049  37.6131  40.7567 H              1 <1>                0.0000
@<TRIPOS>BOND
    1    1    2 1     
    2    2    3 2     
    3    2    4 2     
    4    2    5 1     
    5    5    6 1     
    6    5   13 1     
    7    5   14 1     
    8    6    7 1     
    9    6   15 1     
   10    6   16 1     
   11    7    8 1     
   12    7   17 1     
   13    7   18 1     
   14    8    9 1     
   15    8   12 1     
   16    8   19 1     
   17    9   10 1     
   18    9   20 1     
   19    9   21 1     
   20   10   11 1     
   21   10   22 1     
   22   10   23 1     
   23   11   12 1     
   24   12   24 1     
   25   12   25 1     
@<TRIPOS>SUBSTRUCTURE
      1 ****           1
@<TRIPOS>COMMENT
> <Gold.Version>
2022.2.0

> <Gold.Id.Protein>
1qkm|1qkm_protein|mol2

> <Gold.Protein.RotatedTorsions>
[  496  491  490  487 ] final   57.25 input  -89.99 | X-H torsion

> <Gold.Protein.ActiveResidues>
 MET295  LEU298  THR299  LEU301  ALA302  GLU305  TRP335  MET336  LEU339  MET340 
 GLY342  LEU343  ARG346  PHE356  ILE373  ILE376  PHE377  LEU380  LYS471  GLY472 
 MET473  HIS475  LEU476  LEU477  ASN478  MET479  VAL484  VAL487 

> <Gold.Protein.RotatedAtoms>
   36.5290   33.3550   42.3193 H   0  0  0  0  0  0  0  0  0  0  0  0  # atno 496  bound_to 491 

> <Gold.Score>
     Score     S(PLP)   S(hbond)     S(cho)   S(metal)  DE(clash)   DE(tors)     intcor
     38.05     -38.46       0.00       0.00       0.00       0.00       0.28       0.15

> <Gold.PLP.Fitness>
38.0465

> <Gold.PLP.PLP>
-38.4583

> <Gold.PLP.part.hbond>
0.0000

> <Gold.PLP.part.metal>
0.0000

> <Gold.PLP.part.buried>
-4.6043

> <Gold.PLP.part.nonpolar>
-34.6651

> <Gold.PLP.part.repulsive>
0.2512

> <Gold.PLP.ligand.clash>
0.0000

> <Gold.PLP.ligand.torsion>
0.2834

> <Gold.PLP.Chemscore.Hbond>
0.0000

> <Gold.PLP.Chemscore.CHOScore>
0.0000

> <Gold.PLP.Chemscore.Metal>
0.0000

> <Gold.PLP.Chemscore.Internal.Correction>
0.1549

