#       Name:                EN300-261105_i001
#       Creating user name   aseyller
#       Creation time:       Fri Apr 21 17:39:26 2023


#       File generated by GOLD software.
#

@<TRIPOS>MOLECULE
EN300-261105_i001|Sulfonylchlorides|mol2|318|dock19
    25    25     1
SMALL
USER_CHARGES


@<TRIPOS>ATOM
      1 Cl1         28.7875  38.7105  37.0492 Cl             1 <1>                0.0000
      2 S2          30.5847  37.9638  36.5078 S.o2           1 <1>                0.0000
      3 O3          30.2996  37.1468  35.3807 O.2            1 <1>                0.0000
      4 O4          31.4188  39.1083  36.3909 O.2            1 <1>                0.0000
      5 C5          31.0955  36.9454  37.9193 C.3            1 <1>                0.0000
      6 C6          29.9796  36.9277  38.9659 C.3            1 <1>                0.0000
      7 C7          29.7100  35.4854  39.3997 C.3            1 <1>                0.0000
      8 C8          28.3737  35.4173  40.1415 C.3            1 <1>                0.0000
      9 C9          27.2100  35.8694  39.2261 C.3            1 <1>                0.0000
     10 C10         26.3154  36.7229  40.1460 C.3            1 <1>                0.0000
     11 O11         26.9044  36.6987  41.4570 O.3            1 <1>                0.0000
     12 C12         28.3186  36.4682  41.2796 C.3            1 <1>                0.0000
     13 H13         31.2926  35.9282  37.5811 H              1 <1>                0.0000
     14 H14         32.0006  37.3633  38.3603 H              1 <1>                0.0000
     15 H15         30.2838  37.5165  39.8313 H              1 <1>                0.0000
     16 H16         29.0726  37.3537  38.5372 H              1 <1>                0.0000
     17 H17         29.6706  34.8429  38.5201 H              1 <1>                0.0000
     18 H18         30.5096  35.1490  40.0596 H              1 <1>                0.0000
     19 H19         28.1967  34.4140  40.5289 H              1 <1>                0.0000
     20 H20         27.5871  36.4689  38.3975 H              1 <1>                0.0000
     21 H21         26.6598  35.0053  38.8536 H              1 <1>                0.0000
     22 H22         26.2749  37.7476  39.7767 H              1 <1>                0.0000
     23 H23         25.3114  36.3000  40.1829 H              1 <1>                0.0000
     24 H24         28.7599  36.0685  42.1926 H              1 <1>                0.0000
     25 H25         28.8224  37.3866  40.9786 H              1 <1>                0.0000
@<TRIPOS>BOND
    1    1    2 1     
    2    2    3 2     
    3    2    4 2     
    4    2    5 1     
    5    5    6 1     
    6    5   13 1     
    7    5   14 1     
    8    6    7 1     
    9    6   15 1     
   10    6   16 1     
   11    7    8 1     
   12    7   17 1     
   13    7   18 1     
   14    8    9 1     
   15    8   12 1     
   16    8   19 1     
   17    9   10 1     
   18    9   20 1     
   19    9   21 1     
   20   10   11 1     
   21   10   22 1     
   22   10   23 1     
   23   11   12 1     
   24   12   24 1     
   25   12   25 1     
@<TRIPOS>SUBSTRUCTURE
      1 ****           1
@<TRIPOS>COMMENT
> <Gold.Version>
2022.2.0

> <Gold.Id.Protein>
1qkm|1qkm_protein|mol2

> <Gold.Protein.RotatedTorsions>
[  496  491  490  487 ] final  -26.19 input  -89.99 | X-H torsion

> <Gold.Protein.ActiveResidues>
 MET295  LEU298  THR299  LEU301  ALA302  GLU305  TRP335  MET336  LEU339  MET340 
 GLY342  LEU343  ARG346  PHE356  ILE373  ILE376  PHE377  LEU380  LYS471  GLY472 
 MET473  HIS475  LEU476  LEU477  ASN478  MET479  VAL484  VAL487 

> <Gold.Protein.RotatedAtoms>
   36.3002   34.5350   41.9572 H   0  0  0  0  0  0  0  0  0  0  0  0  # atno 496  bound_to 491 

> <Gold.Score>
     Score     S(PLP)   S(hbond)     S(cho)   S(metal)  DE(clash)   DE(tors)     intcor
     36.34     -37.18       0.00       0.00       0.00       0.00       0.50       0.15

> <Gold.PLP.Fitness>
36.3397

> <Gold.PLP.PLP>
-37.1828

> <Gold.PLP.part.hbond>
0.0000

> <Gold.PLP.part.metal>
0.0000

> <Gold.PLP.part.buried>
-3.1980

> <Gold.PLP.part.nonpolar>
-34.1409

> <Gold.PLP.part.repulsive>
0.1571

> <Gold.PLP.ligand.clash>
0.0000

> <Gold.PLP.ligand.torsion>
0.4984

> <Gold.PLP.Chemscore.Hbond>
0.0000

> <Gold.PLP.Chemscore.CHOScore>
0.0000

> <Gold.PLP.Chemscore.Metal>
0.0000

> <Gold.PLP.Chemscore.Internal.Correction>
0.1537

