#       Name:                EN300-261105_i001
#       Creating user name   aseyller
#       Creation time:       Fri Apr 21 17:39:15 2023


#       File generated by GOLD software.
#

@<TRIPOS>MOLECULE
EN300-261105_i001|Sulfonylchlorides|mol2|318|dock6
    25    25     1
SMALL
USER_CHARGES


@<TRIPOS>ATOM
      1 Cl1         30.6086  39.6396  35.9227 Cl             1 <1>                0.0000
      2 S2          31.1706  37.6997  35.8879 S.o2           1 <1>                0.0000
      3 O3          29.9952  37.0012  35.5010 O.2            1 <1>                0.0000
      4 O4          32.3332  37.6863  35.0709 O.2            1 <1>                0.0000
      5 C5          31.5983  37.3214  37.6097 C.3            1 <1>                0.0000
      6 C6          30.5171  36.4266  38.2190 C.3            1 <1>                0.0000
      7 C7          29.1855  37.1798  38.2429 C.3            1 <1>                0.0000
      8 C8          28.1505  36.3614  39.0175 C.3            1 <1>                0.0000
      9 C9          26.7321  36.9562  38.8417 C.3            1 <1>                0.0000
     10 C10         26.1037  36.8557  40.2453 C.3            1 <1>                0.0000
     11 O11         27.0672  36.2175  41.1001 O.3            1 <1>                0.0000
     12 C12         28.3714  36.4948  40.5459 C.3            1 <1>                0.0000
     13 H13         32.5575  36.8047  37.6408 H              1 <1>                0.0000
     14 H14         31.6663  38.2483  38.1793 H              1 <1>                0.0000
     15 H15         30.4125  35.5229  37.6187 H              1 <1>                0.0000
     16 H16         30.7999  36.1564  39.2364 H              1 <1>                0.0000
     17 H17         29.3230  38.1456  38.7292 H              1 <1>                0.0000
     18 H18         28.8367  37.3337  37.2218 H              1 <1>                0.0000
     19 H19         28.1749  35.3160  38.7102 H              1 <1>                0.0000
     20 H20         26.7915  37.9972  38.5240 H              1 <1>                0.0000
     21 H21         26.1586  36.3693  38.1241 H              1 <1>                0.0000
     22 H22         25.8770  37.8530  40.6222 H              1 <1>                0.0000
     23 H23         25.1934  36.2578  40.2019 H              1 <1>                0.0000
     24 H24         29.0998  35.7623  40.8937 H              1 <1>                0.0000
     25 H25         28.6899  37.5055  40.8009 H              1 <1>                0.0000
@<TRIPOS>BOND
    1    1    2 1     
    2    2    3 2     
    3    2    4 2     
    4    2    5 1     
    5    5    6 1     
    6    5   13 1     
    7    5   14 1     
    8    6    7 1     
    9    6   15 1     
   10    6   16 1     
   11    7    8 1     
   12    7   17 1     
   13    7   18 1     
   14    8    9 1     
   15    8   12 1     
   16    8   19 1     
   17    9   10 1     
   18    9   20 1     
   19    9   21 1     
   20   10   11 1     
   21   10   22 1     
   22   10   23 1     
   23   11   12 1     
   24   12   24 1     
   25   12   25 1     
@<TRIPOS>SUBSTRUCTURE
      1 ****           1
@<TRIPOS>COMMENT
> <Gold.Version>
2022.2.0

> <Gold.Id.Protein>
1qkm|1qkm_protein|mol2

> <Gold.Protein.RotatedTorsions>
[  496  491  490  487 ] final   92.10 input  -89.99 | X-H torsion

> <Gold.Protein.ActiveResidues>
 MET295  LEU298  THR299  LEU301  ALA302  GLU305  TRP335  MET336  LEU339  MET340 
 GLY342  LEU343  ARG346  PHE356  ILE373  ILE376  PHE377  LEU380  LYS471  GLY472 
 MET473  HIS475  LEU476  LEU477  ASN478  MET479  VAL484  VAL487 

> <Gold.Protein.RotatedAtoms>
   36.8397   33.0087   41.9988 H   0  0  0  0  0  0  0  0  0  0  0  0  # atno 496  bound_to 491 

> <Gold.Score>
     Score     S(PLP)   S(hbond)     S(cho)   S(metal)  DE(clash)   DE(tors)     intcor
     35.81     -36.35       0.00       0.00       0.00       0.00       0.34       0.15

> <Gold.PLP.Fitness>
35.8134

> <Gold.PLP.PLP>
-36.3481

> <Gold.PLP.part.hbond>
0.0000

> <Gold.PLP.part.metal>
0.0000

> <Gold.PLP.part.buried>
-3.8784

> <Gold.PLP.part.nonpolar>
-32.8751

> <Gold.PLP.part.repulsive>
0.2380

> <Gold.PLP.ligand.clash>
0.0000

> <Gold.PLP.ligand.torsion>
0.3448

> <Gold.PLP.Chemscore.Hbond>
0.0000

> <Gold.PLP.Chemscore.CHOScore>
0.0000

> <Gold.PLP.Chemscore.Metal>
0.0000

> <Gold.PLP.Chemscore.Internal.Correction>
0.1549

