#       Name:                EN300-261105_i001
#       Creating user name   aseyller
#       Creation time:       Fri Apr 21 17:39:12 2023


#       File generated by GOLD software.
#

@<TRIPOS>MOLECULE
EN300-261105_i001|Sulfonylchlorides|mol2|318|dock3
    25    25     1
SMALL
USER_CHARGES


@<TRIPOS>ATOM
      1 Cl1         32.0437  38.4998  34.2958 Cl             1 <1>                0.0000
      2 S2          31.4958  37.4290  35.9185 S.o2           1 <1>                0.0000
      3 O3          31.4843  36.0831  35.4627 O.2            1 <1>                0.0000
      4 O4          32.3939  37.8502  36.9360 O.2            1 <1>                0.0000
      5 C5          29.8105  37.9916  36.2843 C.3            1 <1>                0.0000
      6 C6          29.2012  37.1041  37.3714 C.3            1 <1>                0.0000
      7 C7          27.7430  37.5069  37.6007 C.3            1 <1>                0.0000
      8 C8          27.1369  36.6267  38.6956 C.3            1 <1>                0.0000
      9 C9          25.8000  37.2192  39.2038 C.3            1 <1>                0.0000
     10 C10         25.8522  37.0146  40.7303 C.3            1 <1>                0.0000
     11 O11         27.0790  36.3269  41.0276 O.3            1 <1>                0.0000
     12 C12         28.0115  36.6544  39.9750 C.3            1 <1>                0.0000
     13 H13         29.8397  39.0242  36.6323 H              1 <1>                0.0000
     14 H14         29.2027  37.9296  35.3816 H              1 <1>                0.0000
     15 H15         29.2448  36.0616  37.0562 H              1 <1>                0.0000
     16 H16         29.7621  37.2273  38.2979 H              1 <1>                0.0000
     17 H17         27.6988  38.5516  37.9083 H              1 <1>                0.0000
     18 H18         27.1804  37.3763  36.6764 H              1 <1>                0.0000
     19 H19         26.9996  35.6057  38.3397 H              1 <1>                0.0000
     20 H20         25.7370  38.2805  38.9630 H              1 <1>                0.0000
     21 H21         24.9559  36.6790  38.7752 H              1 <1>                0.0000
     22 H22         25.8375  37.9809  41.2345 H              1 <1>                0.0000
     23 H23         25.0026  36.4129  41.0529 H              1 <1>                0.0000
     24 H24         28.8018  35.9061  39.9158 H              1 <1>                0.0000
     25 H25         28.4327  37.6476  40.1305 H              1 <1>                0.0000
@<TRIPOS>BOND
    1    1    2 1     
    2    2    3 2     
    3    2    4 2     
    4    2    5 1     
    5    5    6 1     
    6    5   13 1     
    7    5   14 1     
    8    6    7 1     
    9    6   15 1     
   10    6   16 1     
   11    7    8 1     
   12    7   17 1     
   13    7   18 1     
   14    8    9 1     
   15    8   12 1     
   16    8   19 1     
   17    9   10 1     
   18    9   20 1     
   19    9   21 1     
   20   10   11 1     
   21   10   22 1     
   22   10   23 1     
   23   11   12 1     
   24   12   24 1     
   25   12   25 1     
@<TRIPOS>SUBSTRUCTURE
      1 ****           1
@<TRIPOS>COMMENT
> <Gold.Version>
2022.2.0

> <Gold.Id.Protein>
1qkm|1qkm_protein|mol2

> <Gold.Protein.RotatedTorsions>
[  496  491  490  487 ] final  -74.96 input  -89.99 | X-H torsion

> <Gold.Protein.ActiveResidues>
 MET295  LEU298  THR299  LEU301  ALA302  GLU305  TRP335  MET336  LEU339  MET340 
 GLY342  LEU343  ARG346  PHE356  ILE373  ILE376  PHE377  LEU380  LYS471  GLY472 
 MET473  HIS475  LEU476  LEU477  ASN478  MET479  VAL484  VAL487 

> <Gold.Protein.RotatedAtoms>
   36.6211   34.7229   41.2731 H   0  0  0  0  0  0  0  0  0  0  0  0  # atno 496  bound_to 491 

> <Gold.Score>
     Score     S(PLP)   S(hbond)     S(cho)   S(metal)  DE(clash)   DE(tors)     intcor
     36.57     -36.81       0.00       0.00       0.00       0.00       0.21       0.18

> <Gold.PLP.Fitness>
36.5694

> <Gold.PLP.PLP>
-36.8088

> <Gold.PLP.part.hbond>
0.0000

> <Gold.PLP.part.metal>
0.0000

> <Gold.PLP.part.buried>
-2.6366

> <Gold.PLP.part.nonpolar>
-34.4377

> <Gold.PLP.part.repulsive>
0.1681

> <Gold.PLP.ligand.clash>
0.0000

> <Gold.PLP.ligand.torsion>
0.2092

> <Gold.PLP.Chemscore.Hbond>
0.0000

> <Gold.PLP.Chemscore.CHOScore>
0.0000

> <Gold.PLP.Chemscore.Metal>
0.0000

> <Gold.PLP.Chemscore.Internal.Correction>
0.1791

