#       Name:                EN300-261105_i001
#       Creating user name   aseyller
#       Creation time:       Fri Apr 21 17:39:19 2023


#       File generated by GOLD software.
#

@<TRIPOS>MOLECULE
EN300-261105_i001|Sulfonylchlorides|mol2|318|dock11
    25    25     1
SMALL
USER_CHARGES


@<TRIPOS>ATOM
      1 Cl1         32.9992  37.5021  35.1654 Cl             1 <1>                0.0000
      2 S2          31.1449  37.8461  35.8888 S.o2           1 <1>                0.0000
      3 O3          31.0100  39.2601  35.8493 O.2            1 <1>                0.0000
      4 O4          30.3033  37.0079  35.1088 O.2            1 <1>                0.0000
      5 C5          31.2124  37.2608  37.6044 C.3            1 <1>                0.0000
      6 C6          30.2494  36.0850  37.7805 C.3            1 <1>                0.0000
      7 C7          30.0046  35.8452  39.2717 C.3            1 <1>                0.0000
      8 C8          28.8407  36.7186  39.7443 C.3            1 <1>                0.0000
      9 C9          28.4587  36.3855  41.2071 C.3            1 <1>                0.0000
     10 C10         26.9179  36.4137  41.2109 C.3            1 <1>                0.0000
     11 O11         26.4939  36.7795  39.8870 O.3            1 <1>                0.0000
     12 C12         27.5389  36.3660  38.9805 C.3            1 <1>                0.0000
     13 H13         32.2268  36.9378  37.8384 H              1 <1>                0.0000
     14 H14         30.9248  38.0698  38.2760 H              1 <1>                0.0000
     15 H15         29.3036  36.3133  37.2892 H              1 <1>                0.0000
     16 H16         30.6835  35.1899  37.3351 H              1 <1>                0.0000
     17 H17         29.7613  34.7955  39.4357 H              1 <1>                0.0000
     18 H18         30.9029  36.1019  39.8332 H              1 <1>                0.0000
     19 H19         29.0814  37.7761  39.6362 H              1 <1>                0.0000
     20 H20         28.8229  35.3952  41.4806 H              1 <1>                0.0000
     21 H21         28.8557  37.1401  41.8863 H              1 <1>                0.0000
     22 H22         26.5298  35.4273  41.4651 H              1 <1>                0.0000
     23 H23         26.5624  37.1509  41.9308 H              1 <1>                0.0000
     24 H24         27.4792  36.9238  38.0460 H              1 <1>                0.0000
     25 H25         27.4823  35.2937  38.7930 H              1 <1>                0.0000
@<TRIPOS>BOND
    1    1    2 1     
    2    2    3 2     
    3    2    4 2     
    4    2    5 1     
    5    5    6 1     
    6    5   13 1     
    7    5   14 1     
    8    6    7 1     
    9    6   15 1     
   10    6   16 1     
   11    7    8 1     
   12    7   17 1     
   13    7   18 1     
   14    8    9 1     
   15    8   12 1     
   16    8   19 1     
   17    9   10 1     
   18    9   20 1     
   19    9   21 1     
   20   10   11 1     
   21   10   22 1     
   22   10   23 1     
   23   11   12 1     
   24   12   24 1     
   25   12   25 1     
@<TRIPOS>SUBSTRUCTURE
      1 ****           1
@<TRIPOS>COMMENT
> <Gold.Version>
2022.2.0

> <Gold.Id.Protein>
1qkm|1qkm_protein|mol2

> <Gold.Protein.RotatedTorsions>
[  496  491  490  487 ] final  131.99 input  -89.99 | X-H torsion

> <Gold.Protein.ActiveResidues>
 MET295  LEU298  THR299  LEU301  ALA302  GLU305  TRP335  MET336  LEU339  MET340 
 GLY342  LEU343  ARG346  PHE356  ILE373  ILE376  PHE377  LEU380  LYS471  GLY472 
 MET473  HIS475  LEU476  LEU477  ASN478  MET479  VAL484  VAL487 

> <Gold.Protein.RotatedAtoms>
   37.1661   32.9798   41.4451 H   0  0  0  0  0  0  0  0  0  0  0  0  # atno 496  bound_to 491 

> <Gold.Score>
     Score     S(PLP)   S(hbond)     S(cho)   S(metal)  DE(clash)   DE(tors)     intcor
     35.58     -36.07       0.00       0.00       0.00       0.00       0.32       0.15

> <Gold.PLP.Fitness>
35.5844

> <Gold.PLP.PLP>
-36.0735

> <Gold.PLP.part.hbond>
0.0000

> <Gold.PLP.part.metal>
0.0000

> <Gold.PLP.part.buried>
-3.8262

> <Gold.PLP.part.nonpolar>
-32.7296

> <Gold.PLP.part.repulsive>
0.1272

> <Gold.PLP.ligand.clash>
0.0000

> <Gold.PLP.ligand.torsion>
0.3213

> <Gold.PLP.Chemscore.Hbond>
0.0000

> <Gold.PLP.Chemscore.CHOScore>
0.0000

> <Gold.PLP.Chemscore.Metal>
0.0000

> <Gold.PLP.Chemscore.Internal.Correction>
0.1537

