#       Name:                EN300-261105_i001
#       Creating user name   aseyller
#       Creation time:       Fri Apr 21 17:39:23 2023


#       File generated by GOLD software.
#

@<TRIPOS>MOLECULE
EN300-261105_i001|Sulfonylchlorides|mol2|318|dock15
    25    25     1
SMALL
USER_CHARGES


@<TRIPOS>ATOM
      1 Cl1         30.8033  37.9158  34.6158 Cl             1 <1>                0.0000
      2 S2          30.8829  38.2968  36.5979 S.o2           1 <1>                0.0000
      3 O3          32.1428  37.7799  37.0038 O.2            1 <1>                0.0000
      4 O4          30.5929  39.6841  36.7001 O.2            1 <1>                0.0000
      5 C5          29.5334  37.3107  37.3029 C.3            1 <1>                0.0000
      6 C6          30.0547  36.5163  38.5021 C.3            1 <1>                0.0000
      7 C7          28.8971  35.7558  39.1522 C.3            1 <1>                0.0000
      8 C8          27.8260  36.7491  39.6073 C.3            1 <1>                0.0000
      9 C9          27.4905  36.5517  41.1056 C.3            1 <1>                0.0000
     10 C10         25.9582  36.7008  41.1724 C.3            1 <1>                0.0000
     11 O11         25.5000  37.0038  39.8440 O.3            1 <1>                0.0000
     12 C12         26.4664  36.4463  38.9274 C.3            1 <1>                0.0000
     13 H13         28.7305  37.9729  37.6271 H              1 <1>                0.0000
     14 H14         29.1537  36.6221  36.5481 H              1 <1>                0.0000
     15 H15         30.8121  35.8077  38.1670 H              1 <1>                0.0000
     16 H16         30.4932  37.2006  39.2284 H              1 <1>                0.0000
     17 H17         28.4664  35.0627  38.4296 H              1 <1>                0.0000
     18 H18         29.2663  35.1994  40.0137 H              1 <1>                0.0000
     19 H19         28.1401  37.7741  39.4106 H              1 <1>                0.0000
     20 H20         27.7919  35.5578  41.4365 H              1 <1>                0.0000
     21 H21         27.9751  37.3191  41.7093 H              1 <1>                0.0000
     22 H22         25.5097  35.7685  41.5155 H              1 <1>                0.0000
     23 H23         25.6939  37.5129  41.8497 H              1 <1>                0.0000
     24 H24         26.4041  36.9393  37.9573 H              1 <1>                0.0000
     25 H25         26.3205  35.3712  38.8230 H              1 <1>                0.0000
@<TRIPOS>BOND
    1    1    2 1     
    2    2    3 2     
    3    2    4 2     
    4    2    5 1     
    5    5    6 1     
    6    5   13 1     
    7    5   14 1     
    8    6    7 1     
    9    6   15 1     
   10    6   16 1     
   11    7    8 1     
   12    7   17 1     
   13    7   18 1     
   14    8    9 1     
   15    8   12 1     
   16    8   19 1     
   17    9   10 1     
   18    9   20 1     
   19    9   21 1     
   20   10   11 1     
   21   10   22 1     
   22   10   23 1     
   23   11   12 1     
   24   12   24 1     
   25   12   25 1     
@<TRIPOS>SUBSTRUCTURE
      1 ****           1
@<TRIPOS>COMMENT
> <Gold.Version>
2022.2.0

> <Gold.Id.Protein>
1qkm|1qkm_protein|mol2

> <Gold.Protein.RotatedTorsions>
[  496  491  490  487 ] final  -55.26 input  -89.99 | X-H torsion

> <Gold.Protein.ActiveResidues>
 MET295  LEU298  THR299  LEU301  ALA302  GLU305  TRP335  MET336  LEU339  MET340 
 GLY342  LEU343  ARG346  PHE356  ILE373  ILE376  PHE377  LEU380  LYS471  GLY472 
 MET473  HIS475  LEU476  LEU477  ASN478  MET479  VAL484  VAL487 

> <Gold.Protein.RotatedAtoms>
   36.4615   34.7222   41.5534 H   0  0  0  0  0  0  0  0  0  0  0  0  # atno 496  bound_to 491 

> <Gold.Score>
     Score     S(PLP)   S(hbond)     S(cho)   S(metal)  DE(clash)   DE(tors)     intcor
     34.27     -36.01       0.00       0.00       0.00       0.00       0.94       0.15

> <Gold.PLP.Fitness>
34.2749

> <Gold.PLP.PLP>
-36.0095

> <Gold.PLP.part.hbond>
0.0000

> <Gold.PLP.part.metal>
0.0000

> <Gold.PLP.part.buried>
-3.5340

> <Gold.PLP.part.nonpolar>
-32.8887

> <Gold.PLP.part.repulsive>
0.1129

> <Gold.PLP.ligand.clash>
0.0000

> <Gold.PLP.ligand.torsion>
0.9441

> <Gold.PLP.Chemscore.Hbond>
0.0000

> <Gold.PLP.Chemscore.CHOScore>
0.0000

> <Gold.PLP.Chemscore.Metal>
0.0000

> <Gold.PLP.Chemscore.Internal.Correction>
0.1537

