#       Name:                EN300-261105_i001
#       Creating user name   aseyller
#       Creation time:       Fri Apr 21 17:39:10 2023


#       File generated by GOLD software.
#

@<TRIPOS>MOLECULE
EN300-261105_i001|Sulfonylchlorides|mol2|318|dock1
    25    25     1
SMALL
USER_CHARGES


@<TRIPOS>ATOM
      1 Cl1         32.5719  35.8241  35.4987 Cl             1 <1>                0.0000
      2 S2          31.5010  37.3485  36.2793 S.o2           1 <1>                0.0000
      3 O3          32.3973  38.4510  36.2628 O.2            1 <1>                0.0000
      4 O4          30.3048  37.3653  35.5125 O.2            1 <1>                0.0000
      5 C5          31.1568  36.8335  37.9843 C.3            1 <1>                0.0000
      6 C6          29.6506  36.9031  38.2439 C.3            1 <1>                0.0000
      7 C7          29.3518  36.3886  39.6535 C.3            1 <1>                0.0000
      8 C8          27.8754  35.9993  39.7520 C.3            1 <1>                0.0000
      9 C9          26.9887  36.9904  38.9595 C.3            1 <1>                0.0000
     10 C10         25.7600  37.2048  39.8645 C.3            1 <1>                0.0000
     11 O11         25.9307  36.3694  41.0218 O.3            1 <1>                0.0000
     12 C12         27.3511  36.1804  41.1994 C.3            1 <1>                0.0000
     13 H13         31.5041  35.8109  38.1321 H              1 <1>                0.0000
     14 H14         31.6758  37.4969  38.6761 H              1 <1>                0.0000
     15 H15         29.3140  37.9359  38.1552 H              1 <1>                0.0000
     16 H16         29.1271  36.2862  37.5135 H              1 <1>                0.0000
     17 H17         29.9721  35.5167  39.8612 H              1 <1>                0.0000
     18 H18         29.5705  37.1713  40.3799 H              1 <1>                0.0000
     19 H19         27.7208  34.9771  39.4068 H              1 <1>                0.0000
     20 H20         27.5154  37.9316  38.8019 H              1 <1>                0.0000
     21 H21         26.6890  36.5555  38.0060 H              1 <1>                0.0000
     22 H22         25.7007  38.2502  40.1675 H              1 <1>                0.0000
     23 H23         24.8529  36.9191  39.3318 H              1 <1>                0.0000
     24 H24         27.5482  35.2880  41.7934 H              1 <1>                0.0000
     25 H25         27.8002  37.0586  41.6632 H              1 <1>                0.0000
@<TRIPOS>BOND
    1    1    2 1     
    2    2    3 2     
    3    2    4 2     
    4    2    5 1     
    5    5    6 1     
    6    5   13 1     
    7    5   14 1     
    8    6    7 1     
    9    6   15 1     
   10    6   16 1     
   11    7    8 1     
   12    7   17 1     
   13    7   18 1     
   14    8    9 1     
   15    8   12 1     
   16    8   19 1     
   17    9   10 1     
   18    9   20 1     
   19    9   21 1     
   20   10   11 1     
   21   10   22 1     
   22   10   23 1     
   23   11   12 1     
   24   12   24 1     
   25   12   25 1     
@<TRIPOS>SUBSTRUCTURE
      1 ****           1
@<TRIPOS>COMMENT
> <Gold.Version>
2022.2.0

> <Gold.Id.Protein>
1qkm|1qkm_protein|mol2

> <Gold.Protein.RotatedTorsions>
[  496  491  490  487 ] final  151.86 input  -89.99 | X-H torsion

> <Gold.Protein.ActiveResidues>
 MET295  LEU298  THR299  LEU301  ALA302  GLU305  TRP335  MET336  LEU339  MET340 
 GLY342  LEU343  ARG346  PHE356  ILE373  ILE376  PHE377  LEU380  LYS471  GLY472 
 MET473  HIS475  LEU476  LEU477  ASN478  MET479  VAL484  VAL487 

> <Gold.Protein.RotatedAtoms>
   37.2702   33.1214   41.1711 H   0  0  0  0  0  0  0  0  0  0  0  0  # atno 496  bound_to 491 

> <Gold.Score>
     Score     S(PLP)   S(hbond)     S(cho)   S(metal)  DE(clash)   DE(tors)     intcor
     36.84     -37.64       0.00       0.00       0.00       0.00       0.49       0.19

> <Gold.PLP.Fitness>
36.8384

> <Gold.PLP.PLP>
-37.6401

> <Gold.PLP.part.hbond>
0.0000

> <Gold.PLP.part.metal>
0.0000

> <Gold.PLP.part.buried>
-4.0359

> <Gold.PLP.part.nonpolar>
-34.3077

> <Gold.PLP.part.repulsive>
0.2323

> <Gold.PLP.ligand.clash>
0.0000

> <Gold.PLP.ligand.torsion>
0.4939

> <Gold.PLP.Chemscore.Hbond>
0.0000

> <Gold.PLP.Chemscore.CHOScore>
0.0000

> <Gold.PLP.Chemscore.Metal>
0.0000

> <Gold.PLP.Chemscore.Internal.Correction>
0.1860

