#       Name:                EN300-261105_i001
#       Creating user name   aseyller
#       Creation time:       Fri Apr 21 17:39:26 2023


#       File generated by GOLD software.
#

@<TRIPOS>MOLECULE
EN300-261105_i001|Sulfonylchlorides|mol2|318|dock18
    25    25     1
SMALL
USER_CHARGES


@<TRIPOS>ATOM
      1 Cl1         33.1160  37.0241  34.8735 Cl             1 <1>                0.0000
      2 S2          32.3050  36.3172  36.5831 S.o2           1 <1>                0.0000
      3 O3          32.3952  34.9048  36.4560 O.2            1 <1>                0.0000
      4 O4          33.0016  37.0061  37.6124 O.2            1 <1>                0.0000
      5 C5          30.5732  36.8529  36.5180 C.3            1 <1>                0.0000
      6 C6          29.8533  36.4077  37.7925 C.3            1 <1>                0.0000
      7 C7          28.4984  37.1124  37.8855 C.3            1 <1>                0.0000
      8 C8          27.5898  36.3456  38.8485 C.3            1 <1>                0.0000
      9 C9          26.2662  37.1120  39.0878 C.3            1 <1>                0.0000
     10 C10         26.0019  36.9475  40.5970 C.3            1 <1>                0.0000
     11 O11         27.0536  36.1237  41.1277 O.3            1 <1>                0.0000
     12 C12         28.2024  36.3035  40.2717 C.3            1 <1>                0.0000
     13 H13         30.5316  37.9391  36.4377 H              1 <1>                0.0000
     14 H14         30.0869  36.4057  35.6509 H              1 <1>                0.0000
     15 H15         29.7005  35.3288  37.7656 H              1 <1>                0.0000
     16 H16         30.4583  36.6675  38.6611 H              1 <1>                0.0000
     17 H17         28.6418  38.1286  38.2527 H              1 <1>                0.0000
     18 H18         28.0370  37.1445  36.8985 H              1 <1>                0.0000
     19 H19         27.3951  35.3390  38.4784 H              1 <1>                0.0000
     20 H20         26.3840  38.1655  38.8337 H              1 <1>                0.0000
     21 H21         25.4575  36.6669  38.5081 H              1 <1>                0.0000
     22 H22         26.0135  37.9227  41.0838 H              1 <1>                0.0000
     23 H23         25.0376  36.4641  40.7539 H              1 <1>                0.0000
     24 H24         28.8890  35.4626  40.3693 H              1 <1>                0.0000
     25 H25         28.7080  37.2418  40.4999 H              1 <1>                0.0000
@<TRIPOS>BOND
    1    1    2 1     
    2    2    3 2     
    3    2    4 2     
    4    2    5 1     
    5    5    6 1     
    6    5   13 1     
    7    5   14 1     
    8    6    7 1     
    9    6   15 1     
   10    6   16 1     
   11    7    8 1     
   12    7   17 1     
   13    7   18 1     
   14    8    9 1     
   15    8   12 1     
   16    8   19 1     
   17    9   10 1     
   18    9   20 1     
   19    9   21 1     
   20   10   11 1     
   21   10   22 1     
   22   10   23 1     
   23   11   12 1     
   24   12   24 1     
   25   12   25 1     
@<TRIPOS>SUBSTRUCTURE
      1 ****           1
@<TRIPOS>COMMENT
> <Gold.Version>
2022.2.0

> <Gold.Id.Protein>
1qkm|1qkm_protein|mol2

> <Gold.Protein.RotatedTorsions>
[  496  491  490  487 ] final   95.47 input  -89.99 | X-H torsion

> <Gold.Protein.ActiveResidues>
 MET295  LEU298  THR299  LEU301  ALA302  GLU305  TRP335  MET336  LEU339  MET340 
 GLY342  LEU343  ARG346  PHE356  ILE373  ILE376  PHE377  LEU380  LYS471  GLY472 
 MET473  HIS475  LEU476  LEU477  ASN478  MET479  VAL484  VAL487 

> <Gold.Protein.RotatedAtoms>
   36.8705   32.9898   41.9568 H   0  0  0  0  0  0  0  0  0  0  0  0  # atno 496  bound_to 491 

> <Gold.Score>
     Score     S(PLP)   S(hbond)     S(cho)   S(metal)  DE(clash)   DE(tors)     intcor
     36.05     -36.31       0.00       0.00       0.00       0.00       0.21       0.15

> <Gold.PLP.Fitness>
36.0531

> <Gold.PLP.PLP>
-36.3120

> <Gold.PLP.part.hbond>
0.0000

> <Gold.PLP.part.metal>
0.0000

> <Gold.PLP.part.buried>
-3.3152

> <Gold.PLP.part.nonpolar>
-33.2897

> <Gold.PLP.part.repulsive>
0.1342

> <Gold.PLP.ligand.clash>
0.0000

> <Gold.PLP.ligand.torsion>
0.2063

> <Gold.PLP.Chemscore.Hbond>
0.0000

> <Gold.PLP.Chemscore.CHOScore>
0.0000

> <Gold.PLP.Chemscore.Metal>
0.0000

> <Gold.PLP.Chemscore.Internal.Correction>
0.1537

