#       Name:                EN300-261105_i001
#       Creating user name   aseyller
#       Creation time:       Fri Apr 21 17:39:25 2023


#       File generated by GOLD software.
#

@<TRIPOS>MOLECULE
EN300-261105_i001|Sulfonylchlorides|mol2|318|dock17
    25    25     1
SMALL
USER_CHARGES


@<TRIPOS>ATOM
      1 Cl1         26.5531  36.8463  40.2990 Cl             1 <1>                0.0000
      2 S2          28.3937  36.0229  40.1789 S.o2           1 <1>                0.0000
      3 O3          28.7923  35.8566  41.5326 O.2            1 <1>                0.0000
      4 O4          28.2209  34.9018  39.3230 O.2            1 <1>                0.0000
      5 C5          29.4053  37.2921  39.3688 C.3            1 <1>                0.0000
      6 C6          29.8350  36.7965  37.9865 C.3            1 <1>                0.0000
      7 C7          30.7149  37.8537  37.3164 C.3            1 <1>                0.0000
      8 C8          31.1445  37.3580  35.9342 C.3            1 <1>                0.0000
      9 C9          32.2937  36.3272  36.0495 C.3            1 <1>                0.0000
     10 C10         33.2488  36.6958  34.8977 C.3            1 <1>                0.0000
     11 O11         32.6543  37.7929  34.1841 O.3            1 <1>                0.0000
     12 C12         31.8103  38.4969  35.1205 C.3            1 <1>                0.0000
     13 H13         28.8230  38.2073  39.2618 H              1 <1>                0.0000
     14 H14         30.2895  37.4929  39.9738 H              1 <1>                0.0000
     15 H15         30.3978  35.8690  38.0919 H              1 <1>                0.0000
     16 H16         28.9514  36.6177  37.3738 H              1 <1>                0.0000
     17 H17         30.1521  38.7812  37.2111 H              1 <1>                0.0000
     18 H18         31.5984  38.0325  37.9291 H              1 <1>                0.0000
     19 H19         30.2971  36.9370  35.3933 H              1 <1>                0.0000
     20 H20         32.7991  36.4251  37.0104 H              1 <1>                0.0000
     21 H21         31.9122  35.3144  35.9195 H              1 <1>                0.0000
     22 H22         34.2162  36.9963  35.3001 H              1 <1>                0.0000
     23 H23         33.3714  35.8427  34.2304 H              1 <1>                0.0000
     24 H24         31.0574  39.0827  34.5933 H              1 <1>                0.0000
     25 H25         32.4081  39.1349  35.7715 H              1 <1>                0.0000
@<TRIPOS>BOND
    1    1    2 1     
    2    2    3 2     
    3    2    4 2     
    4    2    5 1     
    5    5    6 1     
    6    5   13 1     
    7    5   14 1     
    8    6    7 1     
    9    6   15 1     
   10    6   16 1     
   11    7    8 1     
   12    7   17 1     
   13    7   18 1     
   14    8    9 1     
   15    8   12 1     
   16    8   19 1     
   17    9   10 1     
   18    9   20 1     
   19    9   21 1     
   20   10   11 1     
   21   10   22 1     
   22   10   23 1     
   23   11   12 1     
   24   12   24 1     
   25   12   25 1     
@<TRIPOS>SUBSTRUCTURE
      1 ****           1
@<TRIPOS>COMMENT
> <Gold.Version>
2022.2.0

> <Gold.Id.Protein>
1qkm|1qkm_protein|mol2

> <Gold.Protein.RotatedTorsions>
[  496  491  490  487 ] final  161.93 input  -89.99 | X-H torsion

> <Gold.Protein.ActiveResidues>
 MET295  LEU298  THR299  LEU301  ALA302  GLU305  TRP335  MET336  LEU339  MET340 
 GLY342  LEU343  ARG346  PHE356  ILE373  ILE376  PHE377  LEU380  LYS471  GLY472 
 MET473  HIS475  LEU476  LEU477  ASN478  MET479  VAL484  VAL487 

> <Gold.Protein.RotatedAtoms>
   37.3015   33.2271   41.0478 H   0  0  0  0  0  0  0  0  0  0  0  0  # atno 496  bound_to 491 

> <Gold.Score>
     Score     S(PLP)   S(hbond)     S(cho)   S(metal)  DE(clash)   DE(tors)     intcor
     35.93     -36.23       0.00       0.00       0.00       0.00       0.22       0.15

> <Gold.PLP.Fitness>
35.9304

> <Gold.PLP.PLP>
-36.2263

> <Gold.PLP.part.hbond>
0.0000

> <Gold.PLP.part.metal>
0.0000

> <Gold.PLP.part.buried>
-4.9549

> <Gold.PLP.part.nonpolar>
-31.8695

> <Gold.PLP.part.repulsive>
0.3613

> <Gold.PLP.ligand.clash>
0.0000

> <Gold.PLP.ligand.torsion>
0.2248

> <Gold.PLP.Chemscore.Hbond>
0.0000

> <Gold.PLP.Chemscore.CHOScore>
0.0000

> <Gold.PLP.Chemscore.Metal>
0.0000

> <Gold.PLP.Chemscore.Internal.Correction>
0.1537

