#       Name:                EN300-261105_i001
#       Creating user name   aseyller
#       Creation time:       Fri Apr 21 17:39:21 2023


#       File generated by GOLD software.
#

@<TRIPOS>MOLECULE
EN300-261105_i001|Sulfonylchlorides|mol2|318|dock13
    25    25     1
SMALL
USER_CHARGES


@<TRIPOS>ATOM
      1 Cl1         30.9705  36.7583  35.5667 Cl             1 <1>                0.0000
      2 S2          32.1743  36.1121  37.0545 S.o2           1 <1>                0.0000
      3 O3          32.9831  35.1163  36.4434 O.2            1 <1>                0.0000
      4 O4          32.7484  37.3002  37.5817 O.2            1 <1>                0.0000
      5 C5          31.0434  35.3630  38.2588 C.3            1 <1>                0.0000
      6 C6          30.1305  36.4434  38.8419 C.3            1 <1>                0.0000
      7 C7          29.1516  35.8054  39.8297 C.3            1 <1>                0.0000
      8 C8          28.0516  36.8100  40.1785 C.3            1 <1>                0.0000
      9 C9          27.2463  36.3405  41.4144 C.3            1 <1>                0.0000
     10 C10         25.7837  36.6731  41.0610 C.3            1 <1>                0.0000
     11 O11         25.7901  37.3132  39.7739 O.3            1 <1>                0.0000
     12 C12         26.9632  36.8435  39.0754 C.3            1 <1>                0.0000
     13 H13         30.4377  34.6033  37.7647 H              1 <1>                0.0000
     14 H14         31.6199  34.9026  39.0612 H              1 <1>                0.0000
     15 H15         30.7343  37.1890  39.3591 H              1 <1>                0.0000
     16 H16         29.5735  36.9220  38.0364 H              1 <1>                0.0000
     17 H17         28.7050  34.9198  39.3778 H              1 <1>                0.0000
     18 H18         29.6847  35.5208  40.7368 H              1 <1>                0.0000
     19 H19         28.4714  37.8025  40.3417 H              1 <1>                0.0000
     20 H20         27.3681  35.2677  41.5642 H              1 <1>                0.0000
     21 H21         27.5580  36.8887  42.3035 H              1 <1>                0.0000
     22 H22         25.1956  35.7564  41.0160 H              1 <1>                0.0000
     23 H23         25.3660  37.3477  41.8083 H              1 <1>                0.0000
     24 H24         27.2415  37.5379  38.2826 H              1 <1>                0.0000
     25 H25         26.7954  35.8452  38.6713 H              1 <1>                0.0000
@<TRIPOS>BOND
    1    1    2 1     
    2    2    3 2     
    3    2    4 2     
    4    2    5 1     
    5    5    6 1     
    6    5   13 1     
    7    5   14 1     
    8    6    7 1     
    9    6   15 1     
   10    6   16 1     
   11    7    8 1     
   12    7   17 1     
   13    7   18 1     
   14    8    9 1     
   15    8   12 1     
   16    8   19 1     
   17    9   10 1     
   18    9   20 1     
   19    9   21 1     
   20   10   11 1     
   21   10   22 1     
   22   10   23 1     
   23   11   12 1     
   24   12   24 1     
   25   12   25 1     
@<TRIPOS>SUBSTRUCTURE
      1 ****           1
@<TRIPOS>COMMENT
> <Gold.Version>
2022.2.0

> <Gold.Id.Protein>
1qkm|1qkm_protein|mol2

> <Gold.Protein.RotatedTorsions>
[  496  491  490  487 ] final  -70.12 input  -89.99 | X-H torsion

> <Gold.Protein.ActiveResidues>
 MET295  LEU298  THR299  LEU301  ALA302  GLU305  TRP335  MET336  LEU339  MET340 
 GLY342  LEU343  ARG346  PHE356  ILE373  ILE376  PHE377  LEU380  LYS471  GLY472 
 MET473  HIS475  LEU476  LEU477  ASN478  MET479  VAL484  VAL487 

> <Gold.Protein.RotatedAtoms>
   36.5793   34.7326   41.3400 H   0  0  0  0  0  0  0  0  0  0  0  0  # atno 496  bound_to 491 

> <Gold.Score>
     Score     S(PLP)   S(hbond)     S(cho)   S(metal)  DE(clash)   DE(tors)     intcor
     35.71     -36.13       0.00       0.00       0.00       0.00       0.28       0.15

> <Gold.PLP.Fitness>
35.7112

> <Gold.PLP.PLP>
-36.1268

> <Gold.PLP.part.hbond>
0.0000

> <Gold.PLP.part.metal>
0.0000

> <Gold.PLP.part.buried>
-2.4851

> <Gold.PLP.part.nonpolar>
-33.5070

> <Gold.PLP.part.repulsive>
0.0999

> <Gold.PLP.ligand.clash>
0.0000

> <Gold.PLP.ligand.torsion>
0.2846

> <Gold.PLP.Chemscore.Hbond>
0.0000

> <Gold.PLP.Chemscore.CHOScore>
0.0000

> <Gold.PLP.Chemscore.Metal>
0.0000

> <Gold.PLP.Chemscore.Internal.Correction>
0.1537

