#       Name:                EN300-261105_i001
#       Creating user name   aseyller
#       Creation time:       Fri Apr 21 17:39:13 2023


#       File generated by GOLD software.
#

@<TRIPOS>MOLECULE
EN300-261105_i001|Sulfonylchlorides|mol2|318|dock4
    25    25     1
SMALL
USER_CHARGES


@<TRIPOS>ATOM
      1 Cl1         31.9800  36.2113  37.8849 Cl             1 <1>                0.0000
      2 S2          31.4982  37.3540  36.2905 S.o2           1 <1>                0.0000
      3 O3          32.3511  38.4853  36.3995 O.2            1 <1>                0.0000
      4 O4          31.5936  36.4687  35.1831 O.2            1 <1>                0.0000
      5 C5          29.7713  37.8286  36.5790 C.3            1 <1>                0.0000
      6 C6          29.2069  37.0152  37.7455 C.3            1 <1>                0.0000
      7 C7          27.7162  37.3202  37.9058 C.3            1 <1>                0.0000
      8 C8          27.1518  36.5068  39.0723 C.3            1 <1>                0.0000
      9 C9          25.7969  37.0871  39.5459 C.3            1 <1>                0.0000
     10 C10         25.8676  37.0053  41.0832 C.3            1 <1>                0.0000
     11 O11         27.1218  36.3895  41.4211 O.3            1 <1>                0.0000
     12 C12         28.0337  36.6678  40.3367 C.3            1 <1>                0.0000
     13 H13         29.7216  38.8907  36.8190 H              1 <1>                0.0000
     14 H14         29.1853  37.6312  35.6813 H              1 <1>                0.0000
     15 H15         29.3407  35.9521  37.5455 H              1 <1>                0.0000
     16 H16         29.7329  37.2816  38.6623 H              1 <1>                0.0000
     17 H17         27.5823  38.3833  38.1057 H              1 <1>                0.0000
     18 H18         27.1902  37.0539  36.9890 H              1 <1>                0.0000
     19 H19         27.0510  35.4566  38.7989 H              1 <1>                0.0000
     20 H20         25.6918  38.1229  39.2233 H              1 <1>                0.0000
     21 H21         24.9710  36.4835  39.1694 H              1 <1>                0.0000
     22 H22         25.8197  38.0071  41.5102 H              1 <1>                0.0000
     23 H23         25.0438  36.3995  41.4604 H              1 <1>                0.0000
     24 H24         28.8515  35.9473  40.3285 H              1 <1>                0.0000
     25 H25         28.4178  37.6853  40.4098 H              1 <1>                0.0000
@<TRIPOS>BOND
    1    1    2 1     
    2    2    3 2     
    3    2    4 2     
    4    2    5 1     
    5    5    6 1     
    6    5   13 1     
    7    5   14 1     
    8    6    7 1     
    9    6   15 1     
   10    6   16 1     
   11    7    8 1     
   12    7   17 1     
   13    7   18 1     
   14    8    9 1     
   15    8   12 1     
   16    8   19 1     
   17    9   10 1     
   18    9   20 1     
   19    9   21 1     
   20   10   11 1     
   21   10   22 1     
   22   10   23 1     
   23   11   12 1     
   24   12   24 1     
   25   12   25 1     
@<TRIPOS>SUBSTRUCTURE
      1 ****           1
@<TRIPOS>COMMENT
> <Gold.Version>
2022.2.0

> <Gold.Id.Protein>
1qkm|1qkm_protein|mol2

> <Gold.Protein.RotatedTorsions>
[  496  491  490  487 ] final  106.52 input  -89.99 | X-H torsion

> <Gold.Protein.ActiveResidues>
 MET295  LEU298  THR299  LEU301  ALA302  GLU305  TRP335  MET336  LEU339  MET340 
 GLY342  LEU343  ARG346  PHE356  ILE373  ILE376  PHE377  LEU380  LYS471  GLY472 
 MET473  HIS475  LEU476  LEU477  ASN478  MET479  VAL484  VAL487 

> <Gold.Protein.RotatedAtoms>
   36.9694   32.9487   41.8102 H   0  0  0  0  0  0  0  0  0  0  0  0  # atno 496  bound_to 491 

> <Gold.Score>
     Score     S(PLP)   S(hbond)     S(cho)   S(metal)  DE(clash)   DE(tors)     intcor
     36.69     -37.10       0.00       0.00       0.00       0.00       0.29       0.16

> <Gold.PLP.Fitness>
36.6901

> <Gold.PLP.PLP>
-37.1043

> <Gold.PLP.part.hbond>
0.0000

> <Gold.PLP.part.metal>
0.0000

> <Gold.PLP.part.buried>
-3.5200

> <Gold.PLP.part.nonpolar>
-33.5469

> <Gold.PLP.part.repulsive>
0.1986

> <Gold.PLP.ligand.clash>
0.0000

> <Gold.PLP.ligand.torsion>
0.2864

> <Gold.PLP.Chemscore.Hbond>
0.0000

> <Gold.PLP.Chemscore.CHOScore>
0.0000

> <Gold.PLP.Chemscore.Metal>
0.0000

> <Gold.PLP.Chemscore.Internal.Correction>
0.1587

