#       Name:                EN300-261105_i001
#       Creating user name   aseyller
#       Creation time:       Fri Apr 21 17:39:20 2023


#       File generated by GOLD software.
#

@<TRIPOS>MOLECULE
EN300-261105_i001|Sulfonylchlorides|mol2|318|dock12
    25    25     1
SMALL
USER_CHARGES


@<TRIPOS>ATOM
      1 Cl1         32.0991  33.9170  37.6151 Cl             1 <1>                0.0000
      2 S2          31.9755  35.9229  37.4123 S.o2           1 <1>                0.0000
      3 O3          33.2200  36.4021  37.9031 O.2            1 <1>                0.0000
      4 O4          31.5999  36.1155  36.0555 O.2            1 <1>                0.0000
      5 C5          30.6246  36.4077  38.5217 C.3            1 <1>                0.0000
      6 C6          29.9138  35.1549  39.0376 C.3            1 <1>                0.0000
      7 C7          29.1165  35.5027  40.2962 C.3            1 <1>                0.0000
      8 C8          28.0280  36.5191  39.9458 C.3            1 <1>                0.0000
      9 C9          27.0920  36.7649  41.1541 C.3            1 <1>                0.0000
     10 C10         25.6832  36.8324  40.5331 C.3            1 <1>                0.0000
     11 O11         25.8359  36.6896  39.1109 O.3            1 <1>                0.0000
     12 C12         27.0508  35.9412  38.8904 C.3            1 <1>                0.0000
     13 H13         31.0296  36.9685  39.3640 H              1 <1>                0.0000
     14 H14         29.9141  37.0308  37.9784 H              1 <1>                0.0000
     15 H15         29.2364  34.7796  38.2706 H              1 <1>                0.0000
     16 H16         30.6529  34.3898  39.2755 H              1 <1>                0.0000
     17 H17         28.6553  34.5994  40.6954 H              1 <1>                0.0000
     18 H18         29.7853  35.9297  41.0435 H              1 <1>                0.0000
     19 H19         28.4683  37.4536  39.5983 H              1 <1>                0.0000
     20 H20         27.1577  35.9386  41.8620 H              1 <1>                0.0000
     21 H21         27.3391  37.7076  41.6425 H              1 <1>                0.0000
     22 H22         25.0671  36.0221  40.9229 H              1 <1>                0.0000
     23 H23         25.2230  37.7937  40.7617 H              1 <1>                0.0000
     24 H24         27.4293  36.1122  37.8827 H              1 <1>                0.0000
     25 H25         26.8836  34.8782  39.0637 H              1 <1>                0.0000
@<TRIPOS>BOND
    1    1    2 1     
    2    2    3 2     
    3    2    4 2     
    4    2    5 1     
    5    5    6 1     
    6    5   13 1     
    7    5   14 1     
    8    6    7 1     
    9    6   15 1     
   10    6   16 1     
   11    7    8 1     
   12    7   17 1     
   13    7   18 1     
   14    8    9 1     
   15    8   12 1     
   16    8   19 1     
   17    9   10 1     
   18    9   20 1     
   19    9   21 1     
   20   10   11 1     
   21   10   22 1     
   22   10   23 1     
   23   11   12 1     
   24   12   24 1     
   25   12   25 1     
@<TRIPOS>SUBSTRUCTURE
      1 ****           1
@<TRIPOS>COMMENT
> <Gold.Version>
2022.2.0

> <Gold.Id.Protein>
1qkm|1qkm_protein|mol2

> <Gold.Protein.RotatedTorsions>
[  496  491  490  487 ] final   74.32 input  -89.99 | X-H torsion

> <Gold.Protein.ActiveResidues>
 MET295  LEU298  THR299  LEU301  ALA302  GLU305  TRP335  MET336  LEU339  MET340 
 GLY342  LEU343  ARG346  PHE356  ILE373  ILE376  PHE377  LEU380  LYS471  GLY472 
 MET473  HIS475  LEU476  LEU477  ASN478  MET479  VAL484  VAL487 

> <Gold.Protein.RotatedAtoms>
   36.6761   33.1539   42.1916 H   0  0  0  0  0  0  0  0  0  0  0  0  # atno 496  bound_to 491 

> <Gold.Score>
     Score     S(PLP)   S(hbond)     S(cho)   S(metal)  DE(clash)   DE(tors)     intcor
     37.55     -37.90       0.00       0.00       0.00       0.00       0.25       0.15

> <Gold.PLP.Fitness>
37.5481

> <Gold.PLP.PLP>
-37.9008

> <Gold.PLP.part.hbond>
0.0000

> <Gold.PLP.part.metal>
0.0000

> <Gold.PLP.part.buried>
-4.2606

> <Gold.PLP.part.nonpolar>
-34.8709

> <Gold.PLP.part.repulsive>
0.1628

> <Gold.PLP.ligand.clash>
0.0000

> <Gold.PLP.ligand.torsion>
0.2532

> <Gold.PLP.Chemscore.Hbond>
0.0000

> <Gold.PLP.Chemscore.CHOScore>
0.0000

> <Gold.PLP.Chemscore.Metal>
0.0000

> <Gold.PLP.Chemscore.Internal.Correction>
0.1537

