#       Name:                EN300-261105_i001
#       Creating user name   aseyller
#       Creation time:       Fri Apr 21 17:39:18 2023


#       File generated by GOLD software.
#

@<TRIPOS>MOLECULE
EN300-261105_i001|Sulfonylchlorides|mol2|318|dock10
    25    25     1
SMALL
USER_CHARGES


@<TRIPOS>ATOM
      1 Cl1         30.9096  39.7043  36.3912 Cl             1 <1>                0.0000
      2 S2          30.5365  37.7673  36.8264 S.o2           1 <1>                0.0000
      3 O3          30.0406  37.2242  35.6105 O.2            1 <1>                0.0000
      4 O4          31.7493  37.2968  37.3981 O.2            1 <1>                0.0000
      5 C5          29.2248  37.8290  38.0778 C.3            1 <1>                0.0000
      6 C6          29.6382  36.9944  39.2916 C.3            1 <1>                0.0000
      7 C7          29.1055  35.5686  39.1355 C.3            1 <1>                0.0000
      8 C8          27.6748  35.4970  39.6729 C.3            1 <1>                0.0000
      9 C9          26.7168  36.3534  38.8095 C.3            1 <1>                0.0000
     10 C10         25.7961  37.0413  39.8360 C.3            1 <1>                0.0000
     11 O11         26.1781  36.5670  41.1380 O.3            1 <1>                0.0000
     12 C12         27.5687  36.1869  41.0569 C.3            1 <1>                0.0000
     13 H13         29.0641  38.8624  38.3851 H              1 <1>                0.0000
     14 H14         28.3026  37.4274  37.6577 H              1 <1>                0.0000
     15 H15         30.7256  36.9701  39.3626 H              1 <1>                0.0000
     16 H16         29.2248  37.4396  40.1966 H              1 <1>                0.0000
     17 H17         29.1119  35.2917  38.0813 H              1 <1>                0.0000
     18 H18         29.7389  34.8808  39.6956 H              1 <1>                0.0000
     19 H19         27.3323  34.4636  39.7256 H              1 <1>                0.0000
     20 H20         27.2765  37.0961  38.2410 H              1 <1>                0.0000
     21 H21         26.1354  35.7184  38.1408 H              1 <1>                0.0000
     22 H22         25.9245  38.1225  39.7830 H              1 <1>                0.0000
     23 H23         24.7571  36.7792  39.6362 H              1 <1>                0.0000
     24 H24         27.8228  35.4886  41.8543 H              1 <1>                0.0000
     25 H25         28.2102  37.0672  41.0971 H              1 <1>                0.0000
@<TRIPOS>BOND
    1    1    2 1     
    2    2    3 2     
    3    2    4 2     
    4    2    5 1     
    5    5    6 1     
    6    5   13 1     
    7    5   14 1     
    8    6    7 1     
    9    6   15 1     
   10    6   16 1     
   11    7    8 1     
   12    7   17 1     
   13    7   18 1     
   14    8    9 1     
   15    8   12 1     
   16    8   19 1     
   17    9   10 1     
   18    9   20 1     
   19    9   21 1     
   20   10   11 1     
   21   10   22 1     
   22   10   23 1     
   23   11   12 1     
   24   12   24 1     
   25   12   25 1     
@<TRIPOS>SUBSTRUCTURE
      1 ****           1
@<TRIPOS>COMMENT
> <Gold.Version>
2022.2.0

> <Gold.Id.Protein>
1qkm|1qkm_protein|mol2

> <Gold.Protein.RotatedTorsions>
[  496  491  490  487 ] final   79.36 input  -89.99 | X-H torsion

> <Gold.Protein.ActiveResidues>
 MET295  LEU298  THR299  LEU301  ALA302  GLU305  TRP335  MET336  LEU339  MET340 
 GLY342  LEU343  ARG346  PHE356  ILE373  ILE376  PHE377  LEU380  LYS471  GLY472 
 MET473  HIS475  LEU476  LEU477  ASN478  MET479  VAL484  VAL487 

> <Gold.Protein.RotatedAtoms>
   36.7220   33.1054   42.1425 H   0  0  0  0  0  0  0  0  0  0  0  0  # atno 496  bound_to 491 

> <Gold.Score>
     Score     S(PLP)   S(hbond)     S(cho)   S(metal)  DE(clash)   DE(tors)     intcor
     37.25     -38.19       0.00       0.00       0.00       0.00       0.55       0.15

> <Gold.PLP.Fitness>
37.2518

> <Gold.PLP.PLP>
-38.1930

> <Gold.PLP.part.hbond>
0.0000

> <Gold.PLP.part.metal>
0.0000

> <Gold.PLP.part.buried>
-3.9690

> <Gold.PLP.part.nonpolar>
-34.8456

> <Gold.PLP.part.repulsive>
0.1850

> <Gold.PLP.ligand.clash>
0.0000

> <Gold.PLP.ligand.torsion>
0.5481

> <Gold.PLP.Chemscore.Hbond>
0.0000

> <Gold.PLP.Chemscore.CHOScore>
0.0000

> <Gold.PLP.Chemscore.Metal>
0.0000

> <Gold.PLP.Chemscore.Internal.Correction>
0.1549

