#       Name:                EN300-261105_i001
#       Creating user name   aseyller
#       Creation time:       Fri Apr 21 17:39:17 2023


#       File generated by GOLD software.
#

@<TRIPOS>MOLECULE
EN300-261105_i001|Sulfonylchlorides|mol2|318|dock9
    25    25     1
SMALL
USER_CHARGES


@<TRIPOS>ATOM
      1 Cl1         32.6577  37.6703  35.9994 Cl             1 <1>                0.0000
      2 S2          30.7237  37.8537  36.5530 S.o2           1 <1>                0.0000
      3 O3          30.5526  39.2472  36.7724 O.2            1 <1>                0.0000
      4 O4          30.0015  37.1786  35.5322 O.2            1 <1>                0.0000
      5 C5          30.6129  36.9445  38.1187 C.3            1 <1>                0.0000
      6 C6          29.1799  37.0165  38.6501 C.3            1 <1>                0.0000
      7 C7          28.8477  35.7238  39.3981 C.3            1 <1>                0.0000
      8 C8          27.3867  35.7578  39.8512 C.3            1 <1>                0.0000
      9 C9          26.4930  36.4350  38.7839 C.3            1 <1>                0.0000
     10 C10         25.5216  37.3072  39.6028 C.3            1 <1>                0.0000
     11 O11         25.8193  37.0893  40.9921 O.3            1 <1>                0.0000
     12 C12         27.2073  36.6990  41.0696 C.3            1 <1>                0.0000
     13 H13         30.8873  35.9025  37.9541 H              1 <1>                0.0000
     14 H14         31.2927  37.3887  38.8458 H              1 <1>                0.0000
     15 H15         29.0864  37.8637  39.3295 H              1 <1>                0.0000
     16 H16         28.4891  37.1415  37.8162 H              1 <1>                0.0000
     17 H17         29.0034  34.8713  38.7370 H              1 <1>                0.0000
     18 H18         29.4962  35.6312  40.2692 H              1 <1>                0.0000
     19 H19         27.0285  34.7538  40.0785 H              1 <1>                0.0000
     20 H20         27.0950  37.0551  38.1197 H              1 <1>                0.0000
     21 H21         25.9443  35.6850  38.2141 H              1 <1>                0.0000
     22 H22         25.6668  38.3583  39.3531 H              1 <1>                0.0000
     23 H23         24.4931  37.0131  39.3936 H              1 <1>                0.0000
     24 H24         27.4045  36.1651  41.9992 H              1 <1>                0.0000
     25 H25         27.8565  37.5700  40.9807 H              1 <1>                0.0000
@<TRIPOS>BOND
    1    1    2 1     
    2    2    3 2     
    3    2    4 2     
    4    2    5 1     
    5    5    6 1     
    6    5   13 1     
    7    5   14 1     
    8    6    7 1     
    9    6   15 1     
   10    6   16 1     
   11    7    8 1     
   12    7   17 1     
   13    7   18 1     
   14    8    9 1     
   15    8   12 1     
   16    8   19 1     
   17    9   10 1     
   18    9   20 1     
   19    9   21 1     
   20   10   11 1     
   21   10   22 1     
   22   10   23 1     
   23   11   12 1     
   24   12   24 1     
   25   12   25 1     
@<TRIPOS>SUBSTRUCTURE
      1 ****           1
@<TRIPOS>COMMENT
> <Gold.Version>
2022.2.0

> <Gold.Id.Protein>
1qkm|1qkm_protein|mol2

> <Gold.Protein.RotatedTorsions>
[  496  491  490  487 ] final  -64.02 input  -89.99 | X-H torsion

> <Gold.Protein.ActiveResidues>
 MET295  LEU298  THR299  LEU301  ALA302  GLU305  TRP335  MET336  LEU339  MET340 
 GLY342  LEU343  ARG346  PHE356  ILE373  ILE376  PHE377  LEU380  LYS471  GLY472 
 MET473  HIS475  LEU476  LEU477  ASN478  MET479  VAL484  VAL487 

> <Gold.Protein.RotatedAtoms>
   36.5288   34.7356   41.4267 H   0  0  0  0  0  0  0  0  0  0  0  0  # atno 496  bound_to 491 

> <Gold.Score>
     Score     S(PLP)   S(hbond)     S(cho)   S(metal)  DE(clash)   DE(tors)     intcor
     35.99     -36.75       0.00       0.00       0.00       0.00       0.46       0.15

> <Gold.PLP.Fitness>
35.9897

> <Gold.PLP.PLP>
-36.7524

> <Gold.PLP.part.hbond>
0.0000

> <Gold.PLP.part.metal>
0.0000

> <Gold.PLP.part.buried>
-4.3574

> <Gold.PLP.part.nonpolar>
-32.7410

> <Gold.PLP.part.repulsive>
0.1705

> <Gold.PLP.ligand.clash>
0.0000

> <Gold.PLP.ligand.torsion>
0.4588

> <Gold.PLP.Chemscore.Hbond>
0.0000

> <Gold.PLP.Chemscore.CHOScore>
0.0000

> <Gold.PLP.Chemscore.Metal>
0.0000

> <Gold.PLP.Chemscore.Internal.Correction>
0.1549

