#       Name:                EN300-261105_i001
#       Creating user name   aseyller
#       Creation time:       Fri Apr 21 17:39:22 2023


#       File generated by GOLD software.
#

@<TRIPOS>MOLECULE
EN300-261105_i001|Sulfonylchlorides|mol2|318|dock14
    25    25     1
SMALL
USER_CHARGES


@<TRIPOS>ATOM
      1 Cl1         31.2433  37.2001  35.4788 Cl             1 <1>                0.0000
      2 S2          32.0278  36.1234  36.9972 S.o2           1 <1>                0.0000
      3 O3          32.4450  34.9097  36.3873 O.2            1 <1>                0.0000
      4 O4          32.9685  37.0015  37.6001 O.2            1 <1>                0.0000
      5 C5          30.6282  35.8271  38.1125 C.3            1 <1>                0.0000
      6 C6          30.0758  37.1663  38.6047 C.3            1 <1>                0.0000
      7 C7          29.4657  36.9859  39.9962 C.3            1 <1>                0.0000
      8 C8          28.1264  36.2562  39.8752 C.3            1 <1>                0.0000
      9 C9          27.1831  36.9922  38.8928 C.3            1 <1>                0.0000
     10 C10         25.8014  36.9219  39.5715 C.3            1 <1>                0.0000
     11 O11         25.9603  36.1720  40.7875 O.3            1 <1>                0.0000
     12 C12         27.3334  36.3316  41.2048 C.3            1 <1>                0.0000
     13 H13         29.8468  35.2858  37.5791 H              1 <1>                0.0000
     14 H14         30.9620  35.2361  38.9654 H              1 <1>                0.0000
     15 H15         30.8836  37.8964  38.6541 H              1 <1>                0.0000
     16 H16         29.3091  37.5187  37.9148 H              1 <1>                0.0000
     17 H17         30.1438  36.4003  40.6170 H              1 <1>                0.0000
     18 H18         29.3074  37.9628  40.4529 H              1 <1>                0.0000
     19 H19         28.2759  35.2209  39.5690 H              1 <1>                0.0000
     20 H20         27.4951  38.0293  38.7690 H              1 <1>                0.0000
     21 H21         27.1616  36.4818  37.9299 H              1 <1>                0.0000
     22 H22         25.4490  37.9278  39.7998 H              1 <1>                0.0000
     23 H23         25.0914  36.4182  38.9156 H              1 <1>                0.0000
     24 H24         27.6277  35.5229  41.8736 H              1 <1>                0.0000
     25 H25         27.4788  37.2997  41.6841 H              1 <1>                0.0000
@<TRIPOS>BOND
    1    1    2 1     
    2    2    3 2     
    3    2    4 2     
    4    2    5 1     
    5    5    6 1     
    6    5   13 1     
    7    5   14 1     
    8    6    7 1     
    9    6   15 1     
   10    6   16 1     
   11    7    8 1     
   12    7   17 1     
   13    7   18 1     
   14    8    9 1     
   15    8   12 1     
   16    8   19 1     
   17    9   10 1     
   18    9   20 1     
   19    9   21 1     
   20   10   11 1     
   21   10   22 1     
   22   10   23 1     
   23   11   12 1     
   24   12   24 1     
   25   12   25 1     
@<TRIPOS>SUBSTRUCTURE
      1 ****           1
@<TRIPOS>COMMENT
> <Gold.Version>
2022.2.0

> <Gold.Id.Protein>
1qkm|1qkm_protein|mol2

> <Gold.Protein.RotatedTorsions>
[  496  491  490  487 ] final -125.83 input  -89.99 | X-H torsion

> <Gold.Protein.ActiveResidues>
 MET295  LEU298  THR299  LEU301  ALA302  GLU305  TRP335  MET336  LEU339  MET340 
 GLY342  LEU343  ARG346  PHE356  ILE373  ILE376  PHE377  LEU380  LYS471  GLY472 
 MET473  HIS475  LEU476  LEU477  ASN478  MET479  VAL484  VAL487 

> <Gold.Protein.RotatedAtoms>
   37.0730   34.2789   40.7681 H   0  0  0  0  0  0  0  0  0  0  0  0  # atno 496  bound_to 491 

> <Gold.Score>
     Score     S(PLP)   S(hbond)     S(cho)   S(metal)  DE(clash)   DE(tors)     intcor
     35.56     -36.11       0.00       0.00       0.00       0.00       0.35       0.15

> <Gold.PLP.Fitness>
35.5639

> <Gold.PLP.PLP>
-36.1058

> <Gold.PLP.part.hbond>
0.0000

> <Gold.PLP.part.metal>
0.0000

> <Gold.PLP.part.buried>
-3.6875

> <Gold.PLP.part.nonpolar>
-33.2758

> <Gold.PLP.part.repulsive>
0.2082

> <Gold.PLP.ligand.clash>
0.0000

> <Gold.PLP.ligand.torsion>
0.3478

> <Gold.PLP.Chemscore.Hbond>
0.0000

> <Gold.PLP.Chemscore.CHOScore>
0.0000

> <Gold.PLP.Chemscore.Metal>
0.0000

> <Gold.PLP.Chemscore.Internal.Correction>
0.1537

