#       Name:                EN300-261105_i001
#       Creating user name   aseyller
#       Creation time:       Fri Apr 21 17:39:27 2023


#       File generated by GOLD software.
#

@<TRIPOS>MOLECULE
EN300-261105_i001|Sulfonylchlorides|mol2|318|dock20
    25    25     1
SMALL
USER_CHARGES


@<TRIPOS>ATOM
      1 Cl1         32.6064  36.6486  37.4419 Cl             1 <1>                0.0000
      2 S2          31.0350  37.5007  36.5011 S.o2           1 <1>                0.0000
      3 O3          31.3878  38.8737  36.4030 O.2            1 <1>                0.0000
      4 O4          30.8508  36.7066  35.3372 O.2            1 <1>                0.0000
      5 C5          29.6471  37.2805  37.6481 C.3            1 <1>                0.0000
      6 C6          30.1024  36.4432  38.8450 C.3            1 <1>                0.0000
      7 C7          28.8934  35.7388  39.4641 C.3            1 <1>                0.0000
      8 C8          27.8342  36.7776  39.8381 C.3            1 <1>                0.0000
      9 C9          27.1847  36.4380  41.2017 C.3            1 <1>                0.0000
     10 C10         25.6879  36.7389  40.9925 C.3            1 <1>                0.0000
     11 O11         25.5367  37.2461  39.6560 O.3            1 <1>                0.0000
     12 C12         26.6227  36.7040  38.8741 C.3            1 <1>                0.0000
     13 H13         29.3048  38.2552  37.9958 H              1 <1>                0.0000
     14 H14         28.8307  36.7700  37.1371 H              1 <1>                0.0000
     15 H15         30.8260  35.6987  38.5133 H              1 <1>                0.0000
     16 H16         30.5642  37.0930  39.5884 H              1 <1>                0.0000
     17 H17         28.4746  35.0357  38.7441 H              1 <1>                0.0000
     18 H18         29.2056  35.1999  40.3586 H              1 <1>                0.0000
     19 H19         28.2622  37.7799  39.8499 H              1 <1>                0.0000
     20 H20         27.3322  35.3853  41.4430 H              1 <1>                0.0000
     21 H21         27.5950  37.0718  41.9880 H              1 <1>                0.0000
     22 H22         25.1061  35.8247  41.1099 H              1 <1>                0.0000
     23 H23         25.3560  37.4869  41.7125 H              1 <1>                0.0000
     24 H24         26.7996  37.3139  37.9882 H              1 <1>                0.0000
     25 H25         26.4164  35.6707  38.5951 H              1 <1>                0.0000
@<TRIPOS>BOND
    1    1    2 1     
    2    2    3 2     
    3    2    4 2     
    4    2    5 1     
    5    5    6 1     
    6    5   13 1     
    7    5   14 1     
    8    6    7 1     
    9    6   15 1     
   10    6   16 1     
   11    7    8 1     
   12    7   17 1     
   13    7   18 1     
   14    8    9 1     
   15    8   12 1     
   16    8   19 1     
   17    9   10 1     
   18    9   20 1     
   19    9   21 1     
   20   10   11 1     
   21   10   22 1     
   22   10   23 1     
   23   11   12 1     
   24   12   24 1     
   25   12   25 1     
@<TRIPOS>SUBSTRUCTURE
      1 ****           1
@<TRIPOS>COMMENT
> <Gold.Version>
2022.2.0

> <Gold.Id.Protein>
1qkm|1qkm_protein|mol2

> <Gold.Protein.RotatedTorsions>
[  496  491  490  487 ] final    9.18 input  -89.99 | X-H torsion

> <Gold.Protein.ActiveResidues>
 MET295  LEU298  THR299  LEU301  ALA302  GLU305  TRP335  MET336  LEU339  MET340 
 GLY342  LEU343  ARG346  PHE356  ILE373  ILE376  PHE377  LEU380  LYS471  GLY472 
 MET473  HIS475  LEU476  LEU477  ASN478  MET479  VAL484  VAL487 

> <Gold.Protein.RotatedAtoms>
   36.2715   34.0787   42.3026 H   0  0  0  0  0  0  0  0  0  0  0  0  # atno 496  bound_to 491 

> <Gold.Score>
     Score     S(PLP)   S(hbond)     S(cho)   S(metal)  DE(clash)   DE(tors)     intcor
     35.49     -37.05       0.00       0.00       0.00       0.00       0.86       0.15

> <Gold.PLP.Fitness>
35.4867

> <Gold.PLP.PLP>
-37.0543

> <Gold.PLP.part.hbond>
0.0000

> <Gold.PLP.part.metal>
0.0000

> <Gold.PLP.part.buried>
-4.2587

> <Gold.PLP.part.nonpolar>
-33.8024

> <Gold.PLP.part.repulsive>
0.1527

> <Gold.PLP.ligand.clash>
0.0000

> <Gold.PLP.ligand.torsion>
0.8606

> <Gold.PLP.Chemscore.Hbond>
0.0000

> <Gold.PLP.Chemscore.CHOScore>
0.0000

> <Gold.PLP.Chemscore.Metal>
0.0000

> <Gold.PLP.Chemscore.Internal.Correction>
0.1537

