#       Name:                EN300-261105_i001
#       Creating user name   aseyller
#       Creation time:       Fri Apr 21 17:39:14 2023


#       File generated by GOLD software.
#

@<TRIPOS>MOLECULE
EN300-261105_i001|Sulfonylchlorides|mol2|318|dock5
    25    25     1
SMALL
USER_CHARGES


@<TRIPOS>ATOM
      1 Cl1         32.8672  37.4872  35.1610 Cl             1 <1>                0.0000
      2 S2          31.0974  37.6890  36.1135 S.o2           1 <1>                0.0000
      3 O3          31.0055  39.0796  36.3913 O.2            1 <1>                0.0000
      4 O4          30.1625  37.0501  35.2551 O.2            1 <1>                0.0000
      5 C5          31.2997  36.7451  37.6493 C.3            1 <1>                0.0000
      6 C6          29.9541  36.6516  38.3715 C.3            1 <1>                0.0000
      7 C7          29.9995  35.5096  39.3887 C.3            1 <1>                0.0000
      8 C8          28.6540  35.4160  40.1109 C.3            1 <1>                0.0000
      9 C9          27.4799  35.5303  39.1084 C.3            1 <1>                0.0000
     10 C10         26.4526  36.4241  39.8301 C.3            1 <1>                0.0000
     11 O11         26.9891  36.7292  41.1283 O.3            1 <1>                0.0000
     12 C12         28.4267  36.6513  41.0192 C.3            1 <1>                0.0000
     13 H13         31.6568  35.7423  37.4151 H              1 <1>                0.0000
     14 H14         32.0228  37.2474  38.2920 H              1 <1>                0.0000
     15 H15         29.7528  37.5902  38.8878 H              1 <1>                0.0000
     16 H16         29.1644  36.4598  37.6451 H              1 <1>                0.0000
     17 H17         30.2009  34.5710  38.8725 H              1 <1>                0.0000
     18 H18         30.7893  35.7013  40.1151 H              1 <1>                0.0000
     19 H19         28.5865  34.4923  40.6855 H              1 <1>                0.0000
     20 H20         27.8124  36.0014  38.1834 H              1 <1>                0.0000
     21 H21         27.0545  34.5474  38.9056 H              1 <1>                0.0000
     22 H22         26.3011  37.3444  39.2660 H              1 <1>                0.0000
     23 H23         25.5074  35.8916  39.9355 H              1 <1>                0.0000
     24 H24         28.8781  36.4954  41.9991 H              1 <1>                0.0000
     25 H25         28.8254  37.5509  40.5505 H              1 <1>                0.0000
@<TRIPOS>BOND
    1    1    2 1     
    2    2    3 2     
    3    2    4 2     
    4    2    5 1     
    5    5    6 1     
    6    5   13 1     
    7    5   14 1     
    8    6    7 1     
    9    6   15 1     
   10    6   16 1     
   11    7    8 1     
   12    7   17 1     
   13    7   18 1     
   14    8    9 1     
   15    8   12 1     
   16    8   19 1     
   17    9   10 1     
   18    9   20 1     
   19    9   21 1     
   20   10   11 1     
   21   10   22 1     
   22   10   23 1     
   23   11   12 1     
   24   12   24 1     
   25   12   25 1     
@<TRIPOS>SUBSTRUCTURE
      1 ****           1
@<TRIPOS>COMMENT
> <Gold.Version>
2022.2.0

> <Gold.Id.Protein>
1qkm|1qkm_protein|mol2

> <Gold.Protein.RotatedTorsions>
[  496  491  490  487 ] final   46.78 input  -89.99 | X-H torsion

> <Gold.Protein.ActiveResidues>
 MET295  LEU298  THR299  LEU301  ALA302  GLU305  TRP335  MET336  LEU339  MET340 
 GLY342  LEU343  ARG346  PHE356  ILE373  ILE376  PHE377  LEU380  LYS471  GLY472 
 MET473  HIS475  LEU476  LEU477  ASN478  MET479  VAL484  VAL487 

> <Gold.Protein.RotatedAtoms>
   36.4494   33.5007   42.3647 H   0  0  0  0  0  0  0  0  0  0  0  0  # atno 496  bound_to 491 

> <Gold.Score>
     Score     S(PLP)   S(hbond)     S(cho)   S(metal)  DE(clash)   DE(tors)     intcor
     36.58     -37.01       0.00       0.00       0.00       0.00       0.29       0.15

> <Gold.PLP.Fitness>
36.5773

> <Gold.PLP.PLP>
-37.0115

> <Gold.PLP.part.hbond>
0.0000

> <Gold.PLP.part.metal>
0.0000

> <Gold.PLP.part.buried>
-3.3350

> <Gold.PLP.part.nonpolar>
-33.8913

> <Gold.PLP.part.repulsive>
0.1320

> <Gold.PLP.ligand.clash>
0.0000

> <Gold.PLP.ligand.torsion>
0.2946

> <Gold.PLP.Chemscore.Hbond>
0.0000

> <Gold.PLP.Chemscore.CHOScore>
0.0000

> <Gold.PLP.Chemscore.Metal>
0.0000

> <Gold.PLP.Chemscore.Internal.Correction>
0.1549

