#       Name:                EN300-261105_i001
#       Creating user name   aseyller
#       Creation time:       Fri Apr 21 17:39:16 2023


#       File generated by GOLD software.
#

@<TRIPOS>MOLECULE
EN300-261105_i001|Sulfonylchlorides|mol2|318|dock7
    25    25     1
SMALL
USER_CHARGES


@<TRIPOS>ATOM
      1 Cl1         32.9935  37.7330  34.9097 Cl             1 <1>                0.0000
      2 S2          31.7505  36.5090  35.9281 S.o2           1 <1>                0.0000
      3 O3          30.4857  36.7003  35.3095 O.2            1 <1>                0.0000
      4 O4          32.3986  35.2448  35.8947 O.2            1 <1>                0.0000
      5 C5          31.7412  37.1751  37.6153 C.3            1 <1>                0.0000
      6 C6          30.7089  36.4209  38.4558 C.3            1 <1>                0.0000
      7 C7          29.3907  37.1976  38.4622 C.3            1 <1>                0.0000
      8 C8          28.3082  36.3594  39.1450 C.3            1 <1>                0.0000
      9 C9          26.9113  36.9983  38.9525 C.3            1 <1>                0.0000
     10 C10         26.2261  36.8281  40.3223 C.3            1 <1>                0.0000
     11 O11         27.1408  36.1157  41.1721 O.3            1 <1>                0.0000
     12 C12         28.4716  36.3941  40.6860 C.3            1 <1>                0.0000
     13 H13         32.7294  37.0543  38.0591 H              1 <1>                0.0000
     14 H14         31.4830  38.2337  37.5866 H              1 <1>                0.0000
     15 H15         30.5455  35.4315  38.0287 H              1 <1>                0.0000
     16 H16         31.0759  36.3197  39.4771 H              1 <1>                0.0000
     17 H17         29.5229  38.1331  39.0058 H              1 <1>                0.0000
     18 H18         29.0909  37.4128  37.4366 H              1 <1>                0.0000
     19 H19         28.3214  35.3343  38.7749 H              1 <1>                0.0000
     20 H20         27.0062  38.0549  38.7020 H              1 <1>                0.0000
     21 H21         26.3537  36.4704  38.1788 H              1 <1>                0.0000
     22 H22         26.0068  37.8060  40.7511 H              1 <1>                0.0000
     23 H23         25.3051  36.2565  40.2076 H              1 <1>                0.0000
     24 H24         29.1693  35.6242  41.0153 H              1 <1>                0.0000
     25 H25         28.8021  37.3793  41.0148 H              1 <1>                0.0000
@<TRIPOS>BOND
    1    1    2 1     
    2    2    3 2     
    3    2    4 2     
    4    2    5 1     
    5    5    6 1     
    6    5   13 1     
    7    5   14 1     
    8    6    7 1     
    9    6   15 1     
   10    6   16 1     
   11    7    8 1     
   12    7   17 1     
   13    7   18 1     
   14    8    9 1     
   15    8   12 1     
   16    8   19 1     
   17    9   10 1     
   18    9   20 1     
   19    9   21 1     
   20   10   11 1     
   21   10   22 1     
   22   10   23 1     
   23   11   12 1     
   24   12   24 1     
   25   12   25 1     
@<TRIPOS>SUBSTRUCTURE
      1 ****           1
@<TRIPOS>COMMENT
> <Gold.Version>
2022.2.0

> <Gold.Id.Protein>
1qkm|1qkm_protein|mol2

> <Gold.Protein.RotatedTorsions>
[  496  491  490  487 ] final  114.73 input  -89.99 | X-H torsion

> <Gold.Protein.ActiveResidues>
 MET295  LEU298  THR299  LEU301  ALA302  GLU305  TRP335  MET336  LEU339  MET340 
 GLY342  LEU343  ARG346  PHE356  ILE373  ILE376  PHE377  LEU380  LYS471  GLY472 
 MET473  HIS475  LEU476  LEU477  ASN478  MET479  VAL484  VAL487 

> <Gold.Protein.RotatedAtoms>
   37.0387   32.9395   41.6946 H   0  0  0  0  0  0  0  0  0  0  0  0  # atno 496  bound_to 491 

> <Gold.Score>
     Score     S(PLP)   S(hbond)     S(cho)   S(metal)  DE(clash)   DE(tors)     intcor
     36.60     -37.36       0.00       0.00       0.00       0.00       0.46       0.15

> <Gold.PLP.Fitness>
36.6014

> <Gold.PLP.PLP>
-37.3644

> <Gold.PLP.part.hbond>
0.0000

> <Gold.PLP.part.metal>
0.0000

> <Gold.PLP.part.buried>
-4.1005

> <Gold.PLP.part.nonpolar>
-33.8113

> <Gold.PLP.part.repulsive>
0.2200

> <Gold.PLP.ligand.clash>
0.0000

> <Gold.PLP.ligand.torsion>
0.4590

> <Gold.PLP.Chemscore.Hbond>
0.0000

> <Gold.PLP.Chemscore.CHOScore>
0.0000

> <Gold.PLP.Chemscore.Metal>
0.0000

> <Gold.PLP.Chemscore.Internal.Correction>
0.1549

