#       Name:                plp ligand
#       Creating user name   aseyller
#       Creation time:       Fri Apr 21 17:39:09 2023


#       File generated by GOLD software.
#

@<TRIPOS>MOLECULE
plp ligand
    25    25     1
SMALL
USER_CHARGES


@<TRIPOS>ATOM
      1 Cl1         -5.5328   0.3953  -0.5457 NONPOLAR       1 <1>                0.0000
      2 S2          -3.9378  -0.5912   0.2047 NONPOLAR       1 <1>                0.0000
      3 O3          -4.1549  -0.5916   1.6090 ACCEPTOR       1 <1>                0.0000
      4 O4          -3.8994  -1.8063  -0.5310 ACCEPTOR       1 <1>                0.0000
      5 C5          -2.5179   0.4549  -0.2196 NONPOLAR       1 <1>                0.0000
      6 C6          -1.2334  -0.1928   0.3014 NONPOLAR       1 <1>                0.0000
      7 C7          -0.0358   0.6896  -0.0565 NONPOLAR       1 <1>                0.0000
      8 C8           1.2487   0.0419   0.4645 NONPOLAR       1 <1>                0.0000
      9 C9           2.4679   0.9668   0.2307 NONPOLAR       1 <1>                0.0000
     10 C10          3.5865   0.0095  -0.2244 NONPOLAR       1 <1>                0.0000
     11 O11          3.0477  -1.3228  -0.1931 ACCEPTOR       1 <1>                0.0000
     12 C12          1.6206  -1.2048  -0.3781 NONPOLAR       1 <1>                0.0000
     13 H13         -2.4569   0.5630  -1.3025                1 <1>                0.0000
     14 H14         -2.6407   1.4370   0.2371                1 <1>                0.0000
     15 H15         -1.2943  -0.3008   1.3843                1 <1>                0.0000
     16 H16         -1.1105  -1.1748  -0.1554                1 <1>                0.0000
     17 H17          0.0251   0.7977  -1.1394                1 <1>                0.0000
     18 H18         -0.1587   1.6716   0.4002                1 <1>                0.0000
     19 H19          1.1522  -0.2155   1.5192                1 <1>                0.0000
     20 H20          2.2494   1.6964  -0.5491                1 <1>                0.0000
     21 H21          2.7488   1.4690   1.1565                1 <1>                0.0000
     22 H22          3.8984   0.2594  -1.2385                1 <1>                0.0000
     23 H23          4.4356   0.0819   0.4552                1 <1>                0.0000
     24 H24          1.1100  -2.0902   0.0006                1 <1>                0.0000
     25 H25          1.3819  -1.0428  -1.4292                1 <1>                0.0000
@<TRIPOS>BOND
    1    1    2 1     
    2    2    3 2     
    3    2    4 2     
    4    2    5 1     
    5    5    6 1     
    6    5   13 1     
    7    5   14 1     
    8    6    7 1     
    9    6   15 1     
   10    6   16 1     
   11    7    8 1     
   12    7   17 1     
   13    7   18 1     
   14    8    9 1     
   15    8   12 1     
   16    8   19 1     
   17    9   10 1     
   18    9   20 1     
   19    9   21 1     
   20   10   11 1     
   21   10   22 1     
   22   10   23 1     
   23   11   12 1     
   24   12   24 1     
   25   12   25 1     
@<TRIPOS>SUBSTRUCTURE
      1 ****           1
@<TRIPOS>SET
DONOR_HYDROGENS      STATIC     ATOMS    <user>   **** ""
0
ATOM$RED        STATIC     ATOMS    COLORGROUP SYSTEM
0
