#       Name:                EN300-137349_i001
#       Creating user name   aseyller
#       Creation time:       Fri Apr 21 19:21:47 2023


#       File generated by GOLD software.
#

@<TRIPOS>MOLECULE
EN300-137349_i001|benzaldehydes|mol2|800|dock12
    29    29     1
SMALL
USER_CHARGES


@<TRIPOS>ATOM
      1 C1          30.4349  38.4750  34.5239 C.3            1 <1>                0.0000
      2 C2          30.4061  39.2681  35.8320 C.3            1 <1>                0.0000
      3 C3          31.6711  38.9677  36.6385 C.3            1 <1>                0.0000
      4 C4          30.3436  40.7645  35.5198 C.3            1 <1>                0.0000
      5 O5          29.2375  38.8855  36.6043 O.3            1 <1>                0.0000
      6 C6          29.2145  37.6328  37.0985 C.2            1 <1>                0.0000
      7 O7          29.9782  36.7944  36.6640 O.2            1 <1>                0.0000
      8 C8          28.2587  37.2780  38.1709 C.ar           1 <1>                0.0000
      9 C9          26.9928  37.8659  38.1997 C.ar           1 <1>                0.0000
     10 C10         26.1020  37.5359  39.1974 C.ar           1 <1>                0.0000
     11 C11         26.4661  36.6118  40.1813 C.ar           1 <1>                0.0000
     12 C12         25.5136  36.2576  41.2491 C.2            1 <1>                0.0000
     13 O13         24.8718  37.1253  41.8012 O.2            1 <1>                0.0000
     14 C14         27.7339  36.0236  40.1515 C.ar           1 <1>                0.0000
     15 C15         28.6214  36.3511  39.1498 C.ar           1 <1>                0.0000
     16 H16         30.4794  37.4089  34.7463 H              1 <1>                0.0000
     17 H17         29.5337  38.6890  33.9494 H              1 <1>                0.0000
     18 H18         31.3121  38.7622  33.9441 H              1 <1>                0.0000
     19 H19         32.5484  39.2549  36.0587 H              1 <1>                0.0000
     20 H20         31.6506  39.5327  37.5704 H              1 <1>                0.0000
     21 H21         31.7157  37.9015  36.8608 H              1 <1>                0.0000
     22 H22         29.4423  40.9786  34.9454 H              1 <1>                0.0000
     23 H23         30.3231  41.3295  36.4517 H              1 <1>                0.0000
     24 H24         31.2208  41.0518  34.9401 H              1 <1>                0.0000
     25 H25         26.7118  38.5801  37.4397 H              1 <1>                0.0000
     26 H26         25.1229  37.9912  39.2198 H              1 <1>                0.0000
     27 H27         25.3874  35.2251  41.5395 H              1 <1>                0.0000
     28 H28         28.0163  35.3098  40.9114 H              1 <1>                0.0000
     29 H29         29.6009  35.8967  39.1266 H              1 <1>                0.0000
@<TRIPOS>BOND
    1    1    2 1     
    2    1   16 1     
    3    1   17 1     
    4    1   18 1     
    5    2    3 1     
    6    2    4 1     
    7    2    5 1     
    8    3   19 1     
    9    3   20 1     
   10    3   21 1     
   11    4   22 1     
   12    4   23 1     
   13    4   24 1     
   14    5    6 1     
   15    6    7 2     
   16    6    8 1     
   17    8    9 ar    
   18    8   15 ar    
   19    9   10 ar    
   20    9   25 1     
   21   10   11 ar    
   22   10   26 1     
   23   11   12 1     
   24   11   14 ar    
   25   12   13 2     
   26   12   27 1     
   27   14   15 ar    
   28   14   28 1     
   29   15   29 1     
@<TRIPOS>SUBSTRUCTURE
      1 ****           1
@<TRIPOS>COMMENT
> <Gold.Version>
2022.2.0

> <Gold.Id.Protein>
1qkm|1qkm_protein|mol2

> <Gold.Protein.RotatedTorsions>
[  496  491  490  487 ] final  -63.89 input  -89.99 | X-H torsion

> <Gold.Protein.ActiveResidues>
 MET295  LEU298  THR299  LEU301  ALA302  GLU305  TRP335  MET336  LEU339  MET340 
 GLY342  LEU343  ARG346  PHE356  ILE373  ILE376  PHE377  LEU380  LYS471  GLY472 
 MET473  HIS475  LEU476  LEU477  ASN478  MET479  VAL484  VAL487 

> <Gold.Protein.RotatedAtoms>
   36.5277   34.7355   41.4286 H   0  0  0  0  0  0  0  0  0  0  0  0  # atno 496  bound_to 491 

> <Gold.Score>
     Score     S(PLP)   S(hbond)     S(cho)   S(metal)  DE(clash)   DE(tors)     intcor
     43.55     -44.20       0.37       0.00       0.00       0.00       1.09       0.43

> <Gold.PLP.Fitness>
43.5536

> <Gold.PLP.PLP>
-44.1975

> <Gold.PLP.part.hbond>
-0.6402

> <Gold.PLP.part.metal>
0.0000

> <Gold.PLP.part.buried>
-3.2067

> <Gold.PLP.part.nonpolar>
-40.2403

> <Gold.PLP.part.repulsive>
0.2713

> <Gold.PLP.ligand.clash>
0.0000

> <Gold.PLP.ligand.torsion>
1.0881

> <Gold.PLP.Chemscore.Hbond>
0.3680

> <Gold.PLP.Chemscore.CHOScore>
0.0000

> <Gold.PLP.Chemscore.Metal>
0.0000

> <Gold.Chemscore.Hbonds>
donor molecule, donor type, donor heavy atom, donor atom, acceptor molecule, acceptor atom, score
      P1  H  1258  1270       L1    13  0.37

> <Gold.PLP.Chemscore.Internal.Correction>
0.4283

