#       Name:                EN300-137349_i001
#       Creating user name   aseyller
#       Creation time:       Fri Apr 21 19:21:41 2023


#       File generated by GOLD software.
#

@<TRIPOS>MOLECULE
EN300-137349_i001|benzaldehydes|mol2|800|dock6
    29    29     1
SMALL
USER_CHARGES


@<TRIPOS>ATOM
      1 C1          31.0358  36.6863  35.2235 C.3            1 <1>                0.0000
      2 C2          31.1240  38.0689  35.8728 C.3            1 <1>                0.0000
      3 C3          32.5381  38.2892  36.4136 C.3            1 <1>                0.0000
      4 C4          30.8032  39.1428  34.8313 C.3            1 <1>                0.0000
      5 O5          30.1699  38.1528  36.9641 O.3            1 <1>                0.0000
      6 C6          30.2039  37.1686  37.8831 C.2            1 <1>                0.0000
      7 O7          31.1792  36.4498  37.9671 O.2            1 <1>                0.0000
      8 C8          29.0531  36.9633  38.7903 C.ar           1 <1>                0.0000
      9 C9          27.7655  37.3034  38.3716 C.ar           1 <1>                0.0000
     10 C10         26.6933  37.1123  39.2152 C.ar           1 <1>                0.0000
     11 C11         26.8951  36.5773  40.4911 C.ar           1 <1>                0.0000
     12 C12         25.7485  36.3718  41.3944 C.2            1 <1>                0.0000
     13 O13         24.9006  37.2313  41.5028 O.2            1 <1>                0.0000
     14 C14         28.1849  36.2369  40.9093 C.ar           1 <1>                0.0000
     15 C15         29.2551  36.4241  40.0620 C.ar           1 <1>                0.0000
     16 H16         31.2644  35.9212  35.9654 H              1 <1>                0.0000
     17 H17         30.0284  36.5294  34.8382 H              1 <1>                0.0000
     18 H18         31.7520  36.6234  34.4042 H              1 <1>                0.0000
     19 H19         33.2544  38.2262  35.5944 H              1 <1>                0.0000
     20 H20         32.6008  39.2741  36.8762 H              1 <1>                0.0000
     21 H21         32.7667  37.5241  37.1556 H              1 <1>                0.0000
     22 H22         29.7957  38.9860  34.4461 H              1 <1>                0.0000
     23 H23         30.8660  40.1278  35.2939 H              1 <1>                0.0000
     24 H24         31.5194  39.0799  34.0121 H              1 <1>                0.0000
     25 H25         27.6099  37.7171  37.3861 H              1 <1>                0.0000
     26 H26         25.6973  37.3758  38.8914 H              1 <1>                0.0000
     27 H27         25.6640  35.4555  41.9599 H              1 <1>                0.0000
     28 H28         28.3418  35.8239  41.8948 H              1 <1>                0.0000
     29 H29         30.2517  36.1611  40.3849 H              1 <1>                0.0000
@<TRIPOS>BOND
    1    1    2 1     
    2    1   16 1     
    3    1   17 1     
    4    1   18 1     
    5    2    3 1     
    6    2    4 1     
    7    2    5 1     
    8    3   19 1     
    9    3   20 1     
   10    3   21 1     
   11    4   22 1     
   12    4   23 1     
   13    4   24 1     
   14    5    6 1     
   15    6    7 2     
   16    6    8 1     
   17    8    9 ar    
   18    8   15 ar    
   19    9   10 ar    
   20    9   25 1     
   21   10   11 ar    
   22   10   26 1     
   23   11   12 1     
   24   11   14 ar    
   25   12   13 2     
   26   12   27 1     
   27   14   15 ar    
   28   14   28 1     
   29   15   29 1     
@<TRIPOS>SUBSTRUCTURE
      1 ****           1
@<TRIPOS>COMMENT
> <Gold.Version>
2022.2.0

> <Gold.Id.Protein>
1qkm|1qkm_protein|mol2

> <Gold.Protein.RotatedTorsions>
[  496  491  490  487 ] final  -70.95 input  -89.99 | X-H torsion

> <Gold.Protein.ActiveResidues>
 MET295  LEU298  THR299  LEU301  ALA302  GLU305  TRP335  MET336  LEU339  MET340 
 GLY342  LEU343  ARG346  PHE356  ILE373  ILE376  PHE377  LEU380  LYS471  GLY472 
 MET473  HIS475  LEU476  LEU477  ASN478  MET479  VAL484  VAL487 

> <Gold.Protein.RotatedAtoms>
   36.5864   34.7314   41.3284 H   0  0  0  0  0  0  0  0  0  0  0  0  # atno 496  bound_to 491 

> <Gold.Score>
     Score     S(PLP)   S(hbond)     S(cho)   S(metal)  DE(clash)   DE(tors)     intcor
     44.67     -45.17       0.35       0.00       0.00       0.00       0.99       0.43

> <Gold.PLP.Fitness>
44.6693

> <Gold.PLP.PLP>
-45.1715

> <Gold.PLP.part.hbond>
-1.0000

> <Gold.PLP.part.metal>
0.0000

> <Gold.PLP.part.buried>
-2.6236

> <Gold.PLP.part.nonpolar>
-42.2405

> <Gold.PLP.part.repulsive>
0.2674

> <Gold.PLP.ligand.clash>
0.0000

> <Gold.PLP.ligand.torsion>
0.9933

> <Gold.PLP.Chemscore.Hbond>
0.3520

> <Gold.PLP.Chemscore.CHOScore>
0.0000

> <Gold.PLP.Chemscore.Metal>
0.0000

> <Gold.Chemscore.Hbonds>
donor molecule, donor type, donor heavy atom, donor atom, acceptor molecule, acceptor atom, score
      P1  H  1258  1270       L1    13  0.35

> <Gold.PLP.Chemscore.Internal.Correction>
0.4283

