#       Name:                EN300-137349_i001
#       Creating user name   aseyller
#       Creation time:       Fri Apr 21 19:21:53 2023


#       File generated by GOLD software.
#

@<TRIPOS>MOLECULE
EN300-137349_i001|benzaldehydes|mol2|800|dock17
    29    29     1
SMALL
USER_CHARGES


@<TRIPOS>ATOM
      1 C1          27.4082  34.8577  40.4102 C.3            1 <1>                0.0000
      2 C2          27.5733  36.3210  40.8255 C.3            1 <1>                0.0000
      3 C3          26.1967  36.9352  41.0875 C.3            1 <1>                0.0000
      4 C4          28.4168  36.3975  42.0996 C.3            1 <1>                0.0000
      5 O5          28.2358  37.0542  39.7616 O.3            1 <1>                0.0000
      6 C6          29.4044  36.5574  39.3125 C.2            1 <1>                0.0000
      7 O7          29.9860  35.7029  39.9499 O.2            1 <1>                0.0000
      8 C8          29.9796  37.0529  38.0424 C.ar           1 <1>                0.0000
      9 C9          31.2192  36.5809  37.6070 C.ar           1 <1>                0.0000
     10 C10         31.7555  37.0412  36.4244 C.ar           1 <1>                0.0000
     11 C11         31.0577  37.9813  35.6602 C.ar           1 <1>                0.0000
     12 C12         31.6302  38.4741  34.3944 C.2            1 <1>                0.0000
     13 O13         32.6915  38.0410  34.0000 O.2            1 <1>                0.0000
     14 C14         29.8164  38.4531  36.0971 C.ar           1 <1>                0.0000
     15 C15         29.2795  37.9876  37.2774 C.ar           1 <1>                0.0000
     16 H16         26.8073  34.8032  39.5025 H              1 <1>                0.0000
     17 H17         28.3889  34.4202  40.2235 H              1 <1>                0.0000
     18 H18         26.9109  34.3073  41.2089 H              1 <1>                0.0000
     19 H19         25.6993  36.3848  41.8862 H              1 <1>                0.0000
     20 H20         26.3143  37.9777  41.3833 H              1 <1>                0.0000
     21 H21         25.5957  36.8807  40.1798 H              1 <1>                0.0000
     22 H22         29.3976  35.9601  41.9129 H              1 <1>                0.0000
     23 H23         28.5344  37.4400  42.3954 H              1 <1>                0.0000
     24 H24         27.9195  35.8472  42.8982 H              1 <1>                0.0000
     25 H25         31.7583  35.8550  38.1977 H              1 <1>                0.0000
     26 H26         32.7146  36.6763  36.0880 H              1 <1>                0.0000
     27 H27         31.1043  39.2211  33.8185 H              1 <1>                0.0000
     28 H28         29.2767  39.1796  35.5075 H              1 <1>                0.0000
     29 H29         28.3205  38.3520  37.6150 H              1 <1>                0.0000
@<TRIPOS>BOND
    1    1    2 1     
    2    1   16 1     
    3    1   17 1     
    4    1   18 1     
    5    2    3 1     
    6    2    4 1     
    7    2    5 1     
    8    3   19 1     
    9    3   20 1     
   10    3   21 1     
   11    4   22 1     
   12    4   23 1     
   13    4   24 1     
   14    5    6 1     
   15    6    7 2     
   16    6    8 1     
   17    8    9 ar    
   18    8   15 ar    
   19    9   10 ar    
   20    9   25 1     
   21   10   11 ar    
   22   10   26 1     
   23   11   12 1     
   24   11   14 ar    
   25   12   13 2     
   26   12   27 1     
   27   14   15 ar    
   28   14   28 1     
   29   15   29 1     
@<TRIPOS>SUBSTRUCTURE
      1 ****           1
@<TRIPOS>COMMENT
> <Gold.Version>
2022.2.0

> <Gold.Id.Protein>
1qkm|1qkm_protein|mol2

> <Gold.Protein.RotatedTorsions>
[  496  491  490  487 ] final  -88.48 input  -89.99 | X-H torsion

> <Gold.Protein.ActiveResidues>
 MET295  LEU298  THR299  LEU301  ALA302  GLU305  TRP335  MET336  LEU339  MET340 
 GLY342  LEU343  ARG346  PHE356  ILE373  ILE376  PHE377  LEU380  LYS471  GLY472 
 MET473  HIS475  LEU476  LEU477  ASN478  MET479  VAL484  VAL487 

> <Gold.Protein.RotatedAtoms>
   36.7433   34.6630   41.0975 H   0  0  0  0  0  0  0  0  0  0  0  0  # atno 496  bound_to 491 

> <Gold.Score>
     Score     S(PLP)   S(hbond)     S(cho)   S(metal)  DE(clash)   DE(tors)     intcor
     40.83     -40.84       0.00       0.00       0.00       0.00       0.21       0.40

> <Gold.PLP.Fitness>
40.8291

> <Gold.PLP.PLP>
-40.8442

> <Gold.PLP.part.hbond>
0.0000

> <Gold.PLP.part.metal>
0.0000

> <Gold.PLP.part.buried>
-3.5919

> <Gold.PLP.part.nonpolar>
-40.2486

> <Gold.PLP.part.repulsive>
2.5433

> <Gold.PLP.ligand.clash>
0.0000

> <Gold.PLP.ligand.torsion>
0.2090

> <Gold.PLP.Chemscore.Hbond>
0.0000

> <Gold.PLP.Chemscore.CHOScore>
0.0000

> <Gold.PLP.Chemscore.Metal>
0.0000

> <Gold.PLP.Chemscore.Internal.Correction>
0.4028

