#       Name:                EN300-137349_i001
#       Creating user name   aseyller
#       Creation time:       Fri Apr 21 19:21:51 2023


#       File generated by GOLD software.
#

@<TRIPOS>MOLECULE
EN300-137349_i001|benzaldehydes|mol2|800|dock15
    29    29     1
SMALL
USER_CHARGES


@<TRIPOS>ATOM
      1 C1          34.1809  36.2775  36.7675 C.3            1 <1>                0.0000
      2 C2          32.7847  36.5727  36.2157 C.3            1 <1>                0.0000
      3 C3          32.8623  37.7401  35.2297 C.3            1 <1>                0.0000
      4 C4          32.2476  35.3333  35.4974 C.3            1 <1>                0.0000
      5 O5          31.8958  36.9214  37.3096 O.3            1 <1>                0.0000
      6 C6          30.5842  37.0267  37.0218 C.2            1 <1>                0.0000
      7 O7          30.2271  37.2159  35.8766 O.2            1 <1>                0.0000
      8 C8          29.5784  36.9118  38.1010 C.ar           1 <1>                0.0000
      9 C9          29.9857  36.6367  39.4077 C.ar           1 <1>                0.0000
     10 C10         29.0502  36.5300  40.4134 C.ar           1 <1>                0.0000
     11 C11         27.6924  36.6974  40.1249 C.ar           1 <1>                0.0000
     12 C12         26.6906  36.5840  41.2002 C.2            1 <1>                0.0000
     13 O13         25.5249  36.8245  40.9704 O.2            1 <1>                0.0000
     14 C14         27.2857  36.9730  38.8161 C.ar           1 <1>                0.0000
     15 C15         28.2234  37.0845  37.8129 C.ar           1 <1>                0.0000
     16 H16         34.5635  37.1605  37.2792 H              1 <1>                0.0000
     17 H17         34.1256  35.4459  37.4699 H              1 <1>                0.0000
     18 H18         34.8481  36.0157  35.9463 H              1 <1>                0.0000
     19 H19         33.5296  37.4783  34.4085 H              1 <1>                0.0000
     20 H20         31.8677  37.9504  34.8367 H              1 <1>                0.0000
     21 H21         33.2450  38.6232  35.7414 H              1 <1>                0.0000
     22 H22         32.1922  34.5016  36.1998 H              1 <1>                0.0000
     23 H23         31.2529  35.5436  35.1043 H              1 <1>                0.0000
     24 H24         32.9148  35.0715  34.6762 H              1 <1>                0.0000
     25 H25         31.0346  36.5070  39.6303 H              1 <1>                0.0000
     26 H26         29.3654  36.3167  41.4241 H              1 <1>                0.0000
     27 H27         26.9951  36.2866  42.1928 H              1 <1>                0.0000
     28 H28         26.2371  37.1022  38.5922 H              1 <1>                0.0000
     29 H29         27.9093  37.2975  36.8017 H              1 <1>                0.0000
@<TRIPOS>BOND
    1    1    2 1     
    2    1   16 1     
    3    1   17 1     
    4    1   18 1     
    5    2    3 1     
    6    2    4 1     
    7    2    5 1     
    8    3   19 1     
    9    3   20 1     
   10    3   21 1     
   11    4   22 1     
   12    4   23 1     
   13    4   24 1     
   14    5    6 1     
   15    6    7 2     
   16    6    8 1     
   17    8    9 ar    
   18    8   15 ar    
   19    9   10 ar    
   20    9   25 1     
   21   10   11 ar    
   22   10   26 1     
   23   11   12 1     
   24   11   14 ar    
   25   12   13 2     
   26   12   27 1     
   27   14   15 ar    
   28   14   28 1     
   29   15   29 1     
@<TRIPOS>SUBSTRUCTURE
      1 ****           1
@<TRIPOS>COMMENT
> <Gold.Version>
2022.2.0

> <Gold.Id.Protein>
1qkm|1qkm_protein|mol2

> <Gold.Protein.RotatedTorsions>
[  496  491  490  487 ] final -110.59 input  -89.99 | X-H torsion

> <Gold.Protein.ActiveResidues>
 MET295  LEU298  THR299  LEU301  ALA302  GLU305  TRP335  MET336  LEU339  MET340 
 GLY342  LEU343  ARG346  PHE356  ILE373  ILE376  PHE377  LEU380  LYS471  GLY472 
 MET473  HIS475  LEU476  LEU477  ASN478  MET479  VAL484  VAL487 

> <Gold.Protein.RotatedAtoms>
   36.9454   34.4690   40.8688 H   0  0  0  0  0  0  0  0  0  0  0  0  # atno 496  bound_to 491 

> <Gold.Score>
     Score     S(PLP)   S(hbond)     S(cho)   S(metal)  DE(clash)   DE(tors)     intcor
     41.61     -41.93       0.00       0.00       0.00       0.00       0.37       0.42

> <Gold.PLP.Fitness>
41.6086

> <Gold.PLP.PLP>
-41.9333

> <Gold.PLP.part.hbond>
0.0000

> <Gold.PLP.part.metal>
0.0000

> <Gold.PLP.part.buried>
-4.7252

> <Gold.PLP.part.nonpolar>
-38.1222

> <Gold.PLP.part.repulsive>
0.1923

> <Gold.PLP.ligand.clash>
0.0000

> <Gold.PLP.ligand.torsion>
0.3723

> <Gold.PLP.Chemscore.Hbond>
0.0000

> <Gold.PLP.Chemscore.CHOScore>
0.0000

> <Gold.PLP.Chemscore.Metal>
0.0000

> <Gold.PLP.Chemscore.Internal.Correction>
0.4198

