#       Name:                EN300-137349_i001
#       Creating user name   aseyller
#       Creation time:       Fri Apr 21 19:21:55 2023


#       File generated by GOLD software.
#

@<TRIPOS>MOLECULE
EN300-137349_i001|benzaldehydes|mol2|800|dock19
    29    29     1
SMALL
USER_CHARGES


@<TRIPOS>ATOM
      1 C1          25.9412  37.6239  39.7470 C.3            1 <1>                0.0000
      2 C2          26.8475  36.3942  39.6610 C.3            1 <1>                0.0000
      3 C3          26.8477  35.6657  41.0064 C.3            1 <1>                0.0000
      4 C4          26.3286  35.4534  38.5718 C.3            1 <1>                0.0000
      5 O5          28.1998  36.8114  39.3363 O.3            1 <1>                0.0000
      6 C6          28.4180  37.2578  38.0844 C.2            1 <1>                0.0000
      7 O7          27.5256  37.8087  37.4720 O.2            1 <1>                0.0000
      8 C8          29.7450  37.0770  37.4552 C.ar           1 <1>                0.0000
      9 C9          30.7820  36.4791  38.1736 C.ar           1 <1>                0.0000
     10 C10         32.0177  36.3098  37.5886 C.ar           1 <1>                0.0000
     11 C11         32.2330  36.7370  36.2748 C.ar           1 <1>                0.0000
     12 C12         33.5547  36.5560  35.6477 C.2            1 <1>                0.0000
     13 O13         33.6833  36.7040  34.4514 O.2            1 <1>                0.0000
     14 C14         31.1938  37.3356  35.5564 C.ar           1 <1>                0.0000
     15 C15         29.9574  37.4991  36.1415 C.ar           1 <1>                0.0000
     16 H16         26.3109  38.2941  40.5230 H              1 <1>                0.0000
     17 H17         25.9410  38.1428  38.7885 H              1 <1>                0.0000
     18 H18         24.9260  37.3106  39.9907 H              1 <1>                0.0000
     19 H19         25.8325  35.3525  41.2502 H              1 <1>                0.0000
     20 H20         27.4934  34.7896  40.9452 H              1 <1>                0.0000
     21 H21         27.2173  36.3359  41.7825 H              1 <1>                0.0000
     22 H22         26.3285  35.9723  37.6132 H              1 <1>                0.0000
     23 H23         26.9743  34.5773  38.5105 H              1 <1>                0.0000
     24 H24         25.3135  35.1402  38.8155 H              1 <1>                0.0000
     25 H25         30.6156  36.1494  39.1886 H              1 <1>                0.0000
     26 H26         32.8200  35.8476  38.1446 H              1 <1>                0.0000
     27 H27         34.4084  36.2914  36.2539 H              1 <1>                0.0000
     28 H28         31.3593  37.6662  34.5416 H              1 <1>                0.0000
     29 H29         29.1544  37.9614  35.5865 H              1 <1>                0.0000
@<TRIPOS>BOND
    1    1    2 1     
    2    1   16 1     
    3    1   17 1     
    4    1   18 1     
    5    2    3 1     
    6    2    4 1     
    7    2    5 1     
    8    3   19 1     
    9    3   20 1     
   10    3   21 1     
   11    4   22 1     
   12    4   23 1     
   13    4   24 1     
   14    5    6 1     
   15    6    7 2     
   16    6    8 1     
   17    8    9 ar    
   18    8   15 ar    
   19    9   10 ar    
   20    9   25 1     
   21   10   11 ar    
   22   10   26 1     
   23   11   12 1     
   24   11   14 ar    
   25   12   13 2     
   26   12   27 1     
   27   14   15 ar    
   28   14   28 1     
   29   15   29 1     
@<TRIPOS>SUBSTRUCTURE
      1 ****           1
@<TRIPOS>COMMENT
> <Gold.Version>
2022.2.0

> <Gold.Id.Protein>
1qkm|1qkm_protein|mol2

> <Gold.Protein.RotatedTorsions>
[  496  491  490  487 ] final   10.77 input  -89.99 | X-H torsion

> <Gold.Protein.ActiveResidues>
 MET295  LEU298  THR299  LEU301  ALA302  GLU305  TRP335  MET336  LEU339  MET340 
 GLY342  LEU343  ARG346  PHE356  ILE373  ILE376  PHE377  LEU380  LYS471  GLY472 
 MET473  HIS475  LEU476  LEU477  ASN478  MET479  VAL484  VAL487 

> <Gold.Protein.RotatedAtoms>
   36.2749   34.0546   42.3122 H   0  0  0  0  0  0  0  0  0  0  0  0  # atno 496  bound_to 491 

> <Gold.Score>
     Score     S(PLP)   S(hbond)     S(cho)   S(metal)  DE(clash)   DE(tors)     intcor
     40.83     -41.44       0.00       0.00       0.00       0.00       0.51       0.40

> <Gold.PLP.Fitness>
40.8279

> <Gold.PLP.PLP>
-41.4426

> <Gold.PLP.part.hbond>
-0.0259

> <Gold.PLP.part.metal>
0.0000

> <Gold.PLP.part.buried>
-3.9184

> <Gold.PLP.part.nonpolar>
-38.6696

> <Gold.PLP.part.repulsive>
0.9723

> <Gold.PLP.ligand.clash>
0.0000

> <Gold.PLP.ligand.torsion>
0.5088

> <Gold.PLP.Chemscore.Hbond>
0.0000

> <Gold.PLP.Chemscore.CHOScore>
0.0000

> <Gold.PLP.Chemscore.Metal>
0.0000

> <Gold.PLP.Chemscore.Internal.Correction>
0.4028

