#       Name:                EN300-137349_i001
#       Creating user name   aseyller
#       Creation time:       Fri Apr 21 19:21:40 2023


#       File generated by GOLD software.
#

@<TRIPOS>MOLECULE
EN300-137349_i001|benzaldehydes|mol2|800|dock5
    29    29     1
SMALL
USER_CHARGES


@<TRIPOS>ATOM
      1 C1          31.8070  38.1405  34.0768 C.3            1 <1>                0.0000
      2 C2          31.9842  37.5096  35.4594 C.3            1 <1>                0.0000
      3 C3          32.8163  36.2318  35.3341 C.3            1 <1>                0.0000
      4 C4          32.7015  38.4968  36.3823 C.3            1 <1>                0.0000
      5 O5          30.6819  37.1867  36.0145 O.3            1 <1>                0.0000
      6 C6          30.6463  36.7966  37.3032 C.2            1 <1>                0.0000
      7 O7          31.6549  36.3876  37.8419 O.2            1 <1>                0.0000
      8 C8          29.3782  36.8661  38.0624 C.ar           1 <1>                0.0000
      9 C9          28.2572  37.4736  37.4939 C.ar           1 <1>                0.0000
     10 C10         27.0758  37.5385  38.1997 C.ar           1 <1>                0.0000
     11 C11         26.9999  36.9954  39.4858 C.ar           1 <1>                0.0000
     12 C12         25.7363  37.0638  40.2418 C.2            1 <1>                0.0000
     13 O13         25.7456  36.9551  41.4491 O.2            1 <1>                0.0000
     14 C14         28.1230  36.3872  40.0541 C.ar           1 <1>                0.0000
     15 C15         29.3019  36.3188  39.3445 C.ar           1 <1>                0.0000
     16 H16         31.2961  37.4372  33.4193 H              1 <1>                0.0000
     17 H17         31.2143  39.0508  34.1660 H              1 <1>                0.0000
     18 H18         32.7847  38.3829  33.6601 H              1 <1>                0.0000
     19 H19         33.7939  36.4742  34.9173 H              1 <1>                0.0000
     20 H20         32.9425  35.7824  36.3191 H              1 <1>                0.0000
     21 H21         32.3053  35.5284  34.6765 H              1 <1>                0.0000
     22 H22         32.1087  39.4072  36.4716 H              1 <1>                0.0000
     23 H23         32.8277  38.0474  37.3672 H              1 <1>                0.0000
     24 H24         33.6790  38.7392  35.9656 H              1 <1>                0.0000
     25 H25         28.3161  37.8934  36.5005 H              1 <1>                0.0000
     26 H26         26.2089  38.0089  37.7600 H              1 <1>                0.0000
     27 H27         24.8021  37.2107  39.7201 H              1 <1>                0.0000
     28 H28         28.0654  35.9677  41.0477 H              1 <1>                0.0000
     29 H29         30.1697  35.8488  39.7833 H              1 <1>                0.0000
@<TRIPOS>BOND
    1    1    2 1     
    2    1   16 1     
    3    1   17 1     
    4    1   18 1     
    5    2    3 1     
    6    2    4 1     
    7    2    5 1     
    8    3   19 1     
    9    3   20 1     
   10    3   21 1     
   11    4   22 1     
   12    4   23 1     
   13    4   24 1     
   14    5    6 1     
   15    6    7 2     
   16    6    8 1     
   17    8    9 ar    
   18    8   15 ar    
   19    9   10 ar    
   20    9   25 1     
   21   10   11 ar    
   22   10   26 1     
   23   11   12 1     
   24   11   14 ar    
   25   12   13 2     
   26   12   27 1     
   27   14   15 ar    
   28   14   28 1     
   29   15   29 1     
@<TRIPOS>SUBSTRUCTURE
      1 ****           1
@<TRIPOS>COMMENT
> <Gold.Version>
2022.2.0

> <Gold.Id.Protein>
1qkm|1qkm_protein|mol2

> <Gold.Protein.RotatedTorsions>
[  496  491  490  487 ] final  156.76 input  -89.99 | X-H torsion

> <Gold.Protein.ActiveResidues>
 MET295  LEU298  THR299  LEU301  ALA302  GLU305  TRP335  MET336  LEU339  MET340 
 GLY342  LEU343  ARG346  PHE356  ILE373  ILE376  PHE377  LEU380  LYS471  GLY472 
 MET473  HIS475  LEU476  LEU477  ASN478  MET479  VAL484  VAL487 

> <Gold.Protein.RotatedAtoms>
   37.2874   33.1703   41.1093 H   0  0  0  0  0  0  0  0  0  0  0  0  # atno 496  bound_to 491 

> <Gold.Score>
     Score     S(PLP)   S(hbond)     S(cho)   S(metal)  DE(clash)   DE(tors)     intcor
     45.75     -46.23       0.00       0.00       0.00       0.00       0.45       0.43

> <Gold.PLP.Fitness>
45.7478

> <Gold.PLP.PLP>
-46.2265

> <Gold.PLP.part.hbond>
-0.1142

> <Gold.PLP.part.metal>
0.0000

> <Gold.PLP.part.buried>
-5.0216

> <Gold.PLP.part.nonpolar>
-41.6961

> <Gold.PLP.part.repulsive>
0.2537

> <Gold.PLP.ligand.clash>
0.0000

> <Gold.PLP.ligand.torsion>
0.4535

> <Gold.PLP.Chemscore.Hbond>
0.0000

> <Gold.PLP.Chemscore.CHOScore>
0.0000

> <Gold.PLP.Chemscore.Metal>
0.0000

> <Gold.PLP.Chemscore.Internal.Correction>
0.4283

