#       Name:                EN300-137349_i001
#       Creating user name   aseyller
#       Creation time:       Fri Apr 21 19:21:56 2023


#       File generated by GOLD software.
#

@<TRIPOS>MOLECULE
EN300-137349_i001|benzaldehydes|mol2|800|dock20
    29    29     1
SMALL
USER_CHARGES


@<TRIPOS>ATOM
      1 C1          33.9537  37.4454  35.8924 C.3            1 <1>                0.0000
      2 C2          32.5393  37.1316  35.4005 C.3            1 <1>                0.0000
      3 C3          32.2738  37.8859  34.0961 C.3            1 <1>                0.0000
      4 C4          32.4066  35.6272  35.1558 C.3            1 <1>                0.0000
      5 O5          31.5749  37.5457  36.4039 O.3            1 <1>                0.0000
      6 C6          31.4989  36.8004  37.5232 C.2            1 <1>                0.0000
      7 O7          32.4829  36.2187  37.9335 O.2            1 <1>                0.0000
      8 C8          30.2164  36.6901  38.2530 C.ar           1 <1>                0.0000
      9 C9          30.1362  35.9112  39.4087 C.ar           1 <1>                0.0000
     10 C10         28.9428  35.8082  40.0892 C.ar           1 <1>                0.0000
     11 C11         27.8117  36.4843  39.6220 C.ar           1 <1>                0.0000
     12 C12         26.5344  36.3753  40.3495 C.2            1 <1>                0.0000
     13 O13         25.5939  37.0706  40.0307 O.2            1 <1>                0.0000
     14 C14         27.8932  37.2641  38.4646 C.ar           1 <1>                0.0000
     15 C15         29.0890  37.3699  37.7886 C.ar           1 <1>                0.0000
     16 H16         34.0483  38.5172  36.0666 H              1 <1>                0.0000
     17 H17         34.1428  36.9081  36.8216 H              1 <1>                0.0000
     18 H18         34.6776  37.1345  35.1391 H              1 <1>                0.0000
     19 H19         32.9978  37.5750  33.3428 H              1 <1>                0.0000
     20 H20         31.2662  37.6623  33.7457 H              1 <1>                0.0000
     21 H21         32.3685  38.9577  34.2704 H              1 <1>                0.0000
     22 H22         32.5956  35.0898  36.0851 H              1 <1>                0.0000
     23 H23         31.3989  35.4036  34.8054 H              1 <1>                0.0000
     24 H24         33.1304  35.3163  34.4026 H              1 <1>                0.0000
     25 H25         31.0100  35.3887  39.7693 H              1 <1>                0.0000
     26 H26         28.8808  35.2052  40.9830 H              1 <1>                0.0000
     27 H27         26.4364  35.6761  41.1668 H              1 <1>                0.0000
     28 H28         27.0199  37.7865  38.1027 H              1 <1>                0.0000
     29 H29         29.1521  37.9724  36.8944 H              1 <1>                0.0000
@<TRIPOS>BOND
    1    1    2 1     
    2    1   16 1     
    3    1   17 1     
    4    1   18 1     
    5    2    3 1     
    6    2    4 1     
    7    2    5 1     
    8    3   19 1     
    9    3   20 1     
   10    3   21 1     
   11    4   22 1     
   12    4   23 1     
   13    4   24 1     
   14    5    6 1     
   15    6    7 2     
   16    6    8 1     
   17    8    9 ar    
   18    8   15 ar    
   19    9   10 ar    
   20    9   25 1     
   21   10   11 ar    
   22   10   26 1     
   23   11   12 1     
   24   11   14 ar    
   25   12   13 2     
   26   12   27 1     
   27   14   15 ar    
   28   14   28 1     
   29   15   29 1     
@<TRIPOS>SUBSTRUCTURE
      1 ****           1
@<TRIPOS>COMMENT
> <Gold.Version>
2022.2.0

> <Gold.Id.Protein>
1qkm|1qkm_protein|mol2

> <Gold.Protein.RotatedTorsions>
[  496  491  490  487 ] final -107.46 input  -89.99 | X-H torsion

> <Gold.Protein.ActiveResidues>
 MET295  LEU298  THR299  LEU301  ALA302  GLU305  TRP335  MET336  LEU339  MET340 
 GLY342  LEU343  ARG346  PHE356  ILE373  ILE376  PHE377  LEU380  LYS471  GLY472 
 MET473  HIS475  LEU476  LEU477  ASN478  MET479  VAL484  VAL487 

> <Gold.Protein.RotatedAtoms>
   36.9175   34.5030   40.8957 H   0  0  0  0  0  0  0  0  0  0  0  0  # atno 496  bound_to 491 

> <Gold.Score>
     Score     S(PLP)   S(hbond)     S(cho)   S(metal)  DE(clash)   DE(tors)     intcor
     40.52     -41.12       0.00       0.00       0.00       0.00       0.50       0.40

> <Gold.PLP.Fitness>
40.5166

> <Gold.PLP.PLP>
-41.1219

> <Gold.PLP.part.hbond>
0.0000

> <Gold.PLP.part.metal>
0.0000

> <Gold.PLP.part.buried>
-3.9764

> <Gold.PLP.part.nonpolar>
-38.2207

> <Gold.PLP.part.repulsive>
0.1481

> <Gold.PLP.ligand.clash>
0.0000

> <Gold.PLP.ligand.torsion>
0.5041

> <Gold.PLP.Chemscore.Hbond>
0.0000

> <Gold.PLP.Chemscore.CHOScore>
0.0000

> <Gold.PLP.Chemscore.Metal>
0.0000

> <Gold.PLP.Chemscore.Internal.Correction>
0.4028

