#       Name:                EN300-137349_i001
#       Creating user name   aseyller
#       Creation time:       Fri Apr 21 19:21:37 2023


#       File generated by GOLD software.
#

@<TRIPOS>MOLECULE
EN300-137349_i001|benzaldehydes|mol2|800|dock1
    29    29     1
SMALL
USER_CHARGES


@<TRIPOS>ATOM
      1 C1          32.4219  37.8334  36.9629 C.3            1 <1>                0.0000
      2 C2          31.5703  36.8625  36.1426 C.3            1 <1>                0.0000
      3 C3          31.3744  37.4221  34.7322 C.3            1 <1>                0.0000
      4 C4          32.2774  35.5082  36.0602 C.3            1 <1>                0.0000
      5 O5          30.2769  36.6951  36.7809 O.3            1 <1>                0.0000
      6 C6          30.2776  36.3582  38.0850 C.2            1 <1>                0.0000
      7 O7          31.2912  35.9336  38.6019 O.2            1 <1>                0.0000
      8 C8          29.0434  36.5054  38.8878 C.ar           1 <1>                0.0000
      9 C9          29.0765  36.2813  40.2654 C.ar           1 <1>                0.0000
     10 C10         27.9281  36.4185  41.0139 C.ar           1 <1>                0.0000
     11 C11         26.7292  36.7825  40.3934 C.ar           1 <1>                0.0000
     12 C12         25.4999  36.9300  41.1934 C.2            1 <1>                0.0000
     13 O13         25.5675  37.2998  42.3459 O.2            1 <1>                0.0000
     14 C14         26.6973  37.0067  39.0139 C.ar           1 <1>                0.0000
     15 C15         27.8480  36.8741  38.2681 C.ar           1 <1>                0.0000
     16 H16         31.9182  38.7982  37.0215 H              1 <1>                0.0000
     17 H17         32.5615  37.4347  37.9676 H              1 <1>                0.0000
     18 H18         33.3929  37.9590  36.4837 H              1 <1>                0.0000
     19 H19         32.3453  37.5478  34.2530 H              1 <1>                0.0000
     20 H20         30.7676  36.7304  34.1479 H              1 <1>                0.0000
     21 H21         30.8706  38.3870  34.7908 H              1 <1>                0.0000
     22 H22         32.4169  35.1094  37.0650 H              1 <1>                0.0000
     23 H23         31.6707  34.8165  35.4759 H              1 <1>                0.0000
     24 H24         33.2483  35.6338  35.5811 H              1 <1>                0.0000
     25 H25         30.0027  35.9998  40.7445 H              1 <1>                0.0000
     26 H26         27.9537  36.2447  42.0795 H              1 <1>                0.0000
     27 H27         24.5391  36.7087  40.7527 H              1 <1>                0.0000
     28 H28         25.7715  37.2876  38.5336 H              1 <1>                0.0000
     29 H29         27.8235  37.0474  37.2023 H              1 <1>                0.0000
@<TRIPOS>BOND
    1    1    2 1     
    2    1   16 1     
    3    1   17 1     
    4    1   18 1     
    5    2    3 1     
    6    2    4 1     
    7    2    5 1     
    8    3   19 1     
    9    3   20 1     
   10    3   21 1     
   11    4   22 1     
   12    4   23 1     
   13    4   24 1     
   14    5    6 1     
   15    6    7 2     
   16    6    8 1     
   17    8    9 ar    
   18    8   15 ar    
   19    9   10 ar    
   20    9   25 1     
   21   10   11 ar    
   22   10   26 1     
   23   11   12 1     
   24   11   14 ar    
   25   12   13 2     
   26   12   27 1     
   27   14   15 ar    
   28   14   28 1     
   29   15   29 1     
@<TRIPOS>SUBSTRUCTURE
      1 ****           1
@<TRIPOS>COMMENT
> <Gold.Version>
2022.2.0

> <Gold.Id.Protein>
1qkm|1qkm_protein|mol2

> <Gold.Protein.RotatedTorsions>
[  496  491  490  487 ] final  -77.37 input  -89.99 | X-H torsion

> <Gold.Protein.ActiveResidues>
 MET295  LEU298  THR299  LEU301  ALA302  GLU305  TRP335  MET336  LEU339  MET340 
 GLY342  LEU343  ARG346  PHE356  ILE373  ILE376  PHE377  LEU380  LYS471  GLY472 
 MET473  HIS475  LEU476  LEU477  ASN478  MET479  VAL484  VAL487 

> <Gold.Protein.RotatedAtoms>
   36.6424   34.7158   41.2403 H   0  0  0  0  0  0  0  0  0  0  0  0  # atno 496  bound_to 491 

> <Gold.Score>
     Score     S(PLP)   S(hbond)     S(cho)   S(metal)  DE(clash)   DE(tors)     intcor
     48.74     -48.98       0.06       0.00       0.00       0.00       0.46       0.50

> <Gold.PLP.Fitness>
48.7395

> <Gold.PLP.PLP>
-48.9816

> <Gold.PLP.part.hbond>
-1.0000

> <Gold.PLP.part.metal>
0.0000

> <Gold.PLP.part.buried>
-4.9417

> <Gold.PLP.part.nonpolar>
-44.2312

> <Gold.PLP.part.repulsive>
0.3546

> <Gold.PLP.ligand.clash>
0.0000

> <Gold.PLP.ligand.torsion>
0.4625

> <Gold.PLP.Chemscore.Hbond>
0.0598

> <Gold.PLP.Chemscore.CHOScore>
0.0000

> <Gold.PLP.Chemscore.Metal>
0.0000

> <Gold.Chemscore.Hbonds>
donor molecule, donor type, donor heavy atom, donor atom, acceptor molecule, acceptor atom, score
      P1  H  1258  1270       L1    13  0.06

> <Gold.PLP.Chemscore.Internal.Correction>
0.5035

