#       Name:                EN300-137349_i001
#       Creating user name   aseyller
#       Creation time:       Fri Apr 21 19:21:38 2023


#       File generated by GOLD software.
#

@<TRIPOS>MOLECULE
EN300-137349_i001|benzaldehydes|mol2|800|dock3
    29    29     1
SMALL
USER_CHARGES


@<TRIPOS>ATOM
      1 C1          32.4000  34.3383  36.7294 C.3            1 <1>                0.0000
      2 C2          32.1437  35.8386  36.8860 C.3            1 <1>                0.0000
      3 C3          33.0878  36.4092  37.9462 C.3            1 <1>                0.0000
      4 C4          32.3932  36.5408  35.5499 C.3            1 <1>                0.0000
      5 O5          30.7678  36.0543  37.2967 O.3            1 <1>                0.0000
      6 C6          30.4180  35.6107  38.5195 C.2            1 <1>                0.0000
      7 O7          31.1493  34.8512  39.1221 O.2            1 <1>                0.0000
      8 C8          29.1426  36.0489  39.1285 C.ar           1 <1>                0.0000
      9 C9          28.1867  36.7040  38.3501 C.ar           1 <1>                0.0000
     10 C10         26.9987  37.1120  38.9160 C.ar           1 <1>                0.0000
     11 C11         26.7506  36.8695  40.2704 C.ar           1 <1>                0.0000
     12 C12         25.4797  37.3051  40.8769 C.2            1 <1>                0.0000
     13 O13         25.0117  36.6903  41.8110 O.2            1 <1>                0.0000
     14 C14         27.7085  36.2132  41.0489 C.ar           1 <1>                0.0000
     15 C15         28.8937  35.8015  40.4797 C.ar           1 <1>                0.0000
     16 H16         32.2223  33.8380  37.6813 H              1 <1>                0.0000
     17 H17         31.7274  33.9318  35.9741 H              1 <1>                0.0000
     18 H18         33.4328  34.1765  36.4210 H              1 <1>                0.0000
     19 H19         34.1207  36.2473  37.6379 H              1 <1>                0.0000
     20 H20         32.9052  37.4780  38.0578 H              1 <1>                0.0000
     21 H21         32.9102  35.9089  38.8982 H              1 <1>                0.0000
     22 H22         31.7205  36.1344  34.7946 H              1 <1>                0.0000
     23 H23         32.2106  37.6096  35.6615 H              1 <1>                0.0000
     24 H24         33.4260  36.3790  35.2415 H              1 <1>                0.0000
     25 H25         28.3787  36.8916  37.3039 H              1 <1>                0.0000
     26 H26         26.2595  37.6192  38.3138 H              1 <1>                0.0000
     27 H27         24.9654  38.1720  40.4890 H              1 <1>                0.0000
     28 H28         27.5179  36.0258  42.0953 H              1 <1>                0.0000
     29 H29         29.6338  35.2944  41.0810 H              1 <1>                0.0000
@<TRIPOS>BOND
    1    1    2 1     
    2    1   16 1     
    3    1   17 1     
    4    1   18 1     
    5    2    3 1     
    6    2    4 1     
    7    2    5 1     
    8    3   19 1     
    9    3   20 1     
   10    3   21 1     
   11    4   22 1     
   12    4   23 1     
   13    4   24 1     
   14    5    6 1     
   15    6    7 2     
   16    6    8 1     
   17    8    9 ar    
   18    8   15 ar    
   19    9   10 ar    
   20    9   25 1     
   21   10   11 ar    
   22   10   26 1     
   23   11   12 1     
   24   11   14 ar    
   25   12   13 2     
   26   12   27 1     
   27   14   15 ar    
   28   14   28 1     
   29   15   29 1     
@<TRIPOS>SUBSTRUCTURE
      1 ****           1
@<TRIPOS>COMMENT
> <Gold.Version>
2022.2.0

> <Gold.Id.Protein>
1qkm|1qkm_protein|mol2

> <Gold.Protein.RotatedTorsions>
[  496  491  490  487 ] final -124.07 input  -89.99 | X-H torsion

> <Gold.Protein.ActiveResidues>
 MET295  LEU298  THR299  LEU301  ALA302  GLU305  TRP335  MET336  LEU339  MET340 
 GLY342  LEU343  ARG346  PHE356  ILE373  ILE376  PHE377  LEU380  LYS471  GLY472 
 MET473  HIS475  LEU476  LEU477  ASN478  MET479  VAL484  VAL487 

> <Gold.Protein.RotatedAtoms>
   37.0591   34.3027   40.7770 H   0  0  0  0  0  0  0  0  0  0  0  0  # atno 496  bound_to 491 

> <Gold.Score>
     Score     S(PLP)   S(hbond)     S(cho)   S(metal)  DE(clash)   DE(tors)     intcor
     48.74     -47.53       0.58       0.00       0.00       0.07       0.44       0.43

> <Gold.PLP.Fitness>
48.7443

> <Gold.PLP.PLP>
-47.5298

> <Gold.PLP.part.hbond>
-1.0000

> <Gold.PLP.part.metal>
0.0000

> <Gold.PLP.part.buried>
-5.4803

> <Gold.PLP.part.nonpolar>
-43.1300

> <Gold.PLP.part.repulsive>
1.3383

> <Gold.PLP.ligand.clash>
0.0681

> <Gold.PLP.ligand.torsion>
0.4368

> <Gold.PLP.Chemscore.Hbond>
0.5760

> <Gold.PLP.Chemscore.CHOScore>
0.0000

> <Gold.PLP.Chemscore.Metal>
0.0000

> <Gold.Chemscore.Hbonds>
donor molecule, donor type, donor heavy atom, donor atom, acceptor molecule, acceptor atom, score
      P1  H  1258  1270       L1    13  0.58

> <Gold.PLP.Chemscore.Internal.Correction>
0.4283

