#       Name:                EN300-137349_i001
#       Creating user name   aseyller
#       Creation time:       Fri Apr 21 19:21:37 2023


#       File generated by GOLD software.
#

@<TRIPOS>MOLECULE
EN300-137349_i001|benzaldehydes|mol2|800|dock2
    29    29     1
SMALL
USER_CHARGES


@<TRIPOS>ATOM
      1 C1          31.8201  35.7969  35.9248 C.3            1 <1>                0.0000
      2 C2          32.2471  36.8463  36.9531 C.3            1 <1>                0.0000
      3 C3          33.5476  36.4018  37.6255 C.3            1 <1>                0.0000
      4 C4          32.4684  38.1876  36.2512 C.3            1 <1>                0.0000
      5 O5          31.2081  36.9909  37.9570 O.3            1 <1>                0.0000
      6 C6          29.9636  37.2560  37.5152 C.2            1 <1>                0.0000
      7 O7          29.7879  37.5948  36.3623 O.2            1 <1>                0.0000
      8 C8          28.8106  37.1344  38.4345 C.ar           1 <1>                0.0000
      9 C9          29.0170  36.7820  39.7695 C.ar           1 <1>                0.0000
     10 C10         27.9442  36.6690  40.6265 C.ar           1 <1>                0.0000
     11 C11         26.6484  36.9075  40.1587 C.ar           1 <1>                0.0000
     12 C12         25.4999  36.7874  41.0748 C.2            1 <1>                0.0000
     13 O13         25.5441  37.2995  42.1727 O.2            1 <1>                0.0000
     14 C14         26.4429  37.2605  38.8217 C.ar           1 <1>                0.0000
     15 C15         27.5176  37.3780  37.9678 C.ar           1 <1>                0.0000
     16 H16         31.6624  34.8413  36.4248 H              1 <1>                0.0000
     17 H17         30.8936  36.1135  35.4458 H              1 <1>                0.0000
     18 H18         32.6001  35.6884  35.1711 H              1 <1>                0.0000
     19 H19         34.3276  36.2932  36.8718 H              1 <1>                0.0000
     20 H20         33.8517  37.1494  38.3581 H              1 <1>                0.0000
     21 H21         33.3900  35.4461  38.1255 H              1 <1>                0.0000
     22 H22         31.5419  38.5043  35.7723 H              1 <1>                0.0000
     23 H23         32.7725  38.9352  36.9838 H              1 <1>                0.0000
     24 H24         33.2483  38.0791  35.4977 H              1 <1>                0.0000
     25 H25         30.0180  36.5974  40.1306 H              1 <1>                0.0000
     26 H26         28.1040  36.3959  41.6590 H              1 <1>                0.0000
     27 H27         24.6190  36.2431  40.7679 H              1 <1>                0.0000
     28 H28         25.4422  37.4446  38.4593 H              1 <1>                0.0000
     29 H29         27.3590  37.6508  36.9348 H              1 <1>                0.0000
@<TRIPOS>BOND
    1    1    2 1     
    2    1   16 1     
    3    1   17 1     
    4    1   18 1     
    5    2    3 1     
    6    2    4 1     
    7    2    5 1     
    8    3   19 1     
    9    3   20 1     
   10    3   21 1     
   11    4   22 1     
   12    4   23 1     
   13    4   24 1     
   14    5    6 1     
   15    6    7 2     
   16    6    8 1     
   17    8    9 ar    
   18    8   15 ar    
   19    9   10 ar    
   20    9   25 1     
   21   10   11 ar    
   22   10   26 1     
   23   11   12 1     
   24   11   14 ar    
   25   12   13 2     
   26   12   27 1     
   27   14   15 ar    
   28   14   28 1     
   29   15   29 1     
@<TRIPOS>SUBSTRUCTURE
      1 ****           1
@<TRIPOS>COMMENT
> <Gold.Version>
2022.2.0

> <Gold.Id.Protein>
1qkm|1qkm_protein|mol2

> <Gold.Protein.RotatedTorsions>
[  496  491  490  487 ] final -109.18 input  -89.99 | X-H torsion

> <Gold.Protein.ActiveResidues>
 MET295  LEU298  THR299  LEU301  ALA302  GLU305  TRP335  MET336  LEU339  MET340 
 GLY342  LEU343  ARG346  PHE356  ILE373  ILE376  PHE377  LEU380  LYS471  GLY472 
 MET473  HIS475  LEU476  LEU477  ASN478  MET479  VAL484  VAL487 

> <Gold.Protein.RotatedAtoms>
   36.9329   34.4845   40.8806 H   0  0  0  0  0  0  0  0  0  0  0  0  # atno 496  bound_to 491 

> <Gold.Score>
     Score     S(PLP)   S(hbond)     S(cho)   S(metal)  DE(clash)   DE(tors)     intcor
     47.18     -47.74       0.08       0.00       0.00       0.15       0.57       0.49

> <Gold.PLP.Fitness>
47.1798

> <Gold.PLP.PLP>
-47.7366

> <Gold.PLP.part.hbond>
-1.0000

> <Gold.PLP.part.metal>
0.0000

> <Gold.PLP.part.buried>
-4.7497

> <Gold.PLP.part.nonpolar>
-43.3908

> <Gold.PLP.part.repulsive>
0.2825

> <Gold.PLP.ligand.clash>
0.1475

> <Gold.PLP.ligand.torsion>
0.5724

> <Gold.PLP.Chemscore.Hbond>
0.0832

> <Gold.PLP.Chemscore.CHOScore>
0.0000

> <Gold.PLP.Chemscore.Metal>
0.0000

> <Gold.Chemscore.Hbonds>
donor molecule, donor type, donor heavy atom, donor atom, acceptor molecule, acceptor atom, score
      P1  H  1258  1270       L1    13  0.08

> <Gold.PLP.Chemscore.Internal.Correction>
0.4858

