#       Name:                EN300-137349_i001
#       Creating user name   aseyller
#       Creation time:       Fri Apr 21 19:21:46 2023


#       File generated by GOLD software.
#

@<TRIPOS>MOLECULE
EN300-137349_i001|benzaldehydes|mol2|800|dock11
    29    29     1
SMALL
USER_CHARGES


@<TRIPOS>ATOM
      1 C1          31.4418  39.9595  35.5967 C.3            1 <1>                0.0000
      2 C2          31.2426  38.4429  35.6292 C.3            1 <1>                0.0000
      3 C3          30.4384  38.0076  34.4026 C.3            1 <1>                0.0000
      4 C4          32.6062  37.7490  35.6175 C.3            1 <1>                0.0000
      5 O5          30.5228  38.0750  36.8354 O.3            1 <1>                0.0000
      6 C6          29.2450  38.4890  36.9352 C.2            1 <1>                0.0000
      7 O7          28.8238  39.3455  36.1843 O.2            1 <1>                0.0000
      8 C8          28.3544  37.9003  37.9597 C.ar           1 <1>                0.0000
      9 C9          28.8872  37.0937  38.9669 C.ar           1 <1>                0.0000
     10 C10         28.0590  36.5455  39.9216 C.ar           1 <1>                0.0000
     11 C11         26.6843  36.7972  39.8815 C.ar           1 <1>                0.0000
     12 C12         25.7972  36.2115  40.9026 C.2            1 <1>                0.0000
     13 O13         25.0092  36.9155  41.4968 O.2            1 <1>                0.0000
     14 C14         26.1518  37.6051  38.8724 C.ar           1 <1>                0.0000
     15 C15         26.9826  38.1566  37.9218 C.ar           1 <1>                0.0000
     16 H16         30.4704  40.4537  35.6051 H              1 <1>                0.0000
     17 H17         32.0147  40.2695  36.4705 H              1 <1>                0.0000
     18 H18         31.9822  40.2356  34.6912 H              1 <1>                0.0000
     19 H19         30.9787  38.2838  33.4971 H              1 <1>                0.0000
     20 H20         30.2965  36.9272  34.4258 H              1 <1>                0.0000
     21 H21         29.4669  38.5020  34.4109 H              1 <1>                0.0000
     22 H22         33.1791  38.0590  36.4914 H              1 <1>                0.0000
     23 H23         32.4643  36.6686  35.6407 H              1 <1>                0.0000
     24 H24         33.1465  38.0251  34.7121 H              1 <1>                0.0000
     25 H25         29.9492  36.8991  38.9975 H              1 <1>                0.0000
     26 H26         28.4713  35.9212  40.7004 H              1 <1>                0.0000
     27 H27         25.8493  35.1552  41.1216 H              1 <1>                0.0000
     28 H28         25.0899  37.7998  38.8404 H              1 <1>                0.0000
     29 H29         26.5713  38.7809  37.1422 H              1 <1>                0.0000
@<TRIPOS>BOND
    1    1    2 1     
    2    1   16 1     
    3    1   17 1     
    4    1   18 1     
    5    2    3 1     
    6    2    4 1     
    7    2    5 1     
    8    3   19 1     
    9    3   20 1     
   10    3   21 1     
   11    4   22 1     
   12    4   23 1     
   13    4   24 1     
   14    5    6 1     
   15    6    7 2     
   16    6    8 1     
   17    8    9 ar    
   18    8   15 ar    
   19    9   10 ar    
   20    9   25 1     
   21   10   11 ar    
   22   10   26 1     
   23   11   12 1     
   24   11   14 ar    
   25   12   13 2     
   26   12   27 1     
   27   14   15 ar    
   28   14   28 1     
   29   15   29 1     
@<TRIPOS>SUBSTRUCTURE
      1 ****           1
@<TRIPOS>COMMENT
> <Gold.Version>
2022.2.0

> <Gold.Id.Protein>
1qkm|1qkm_protein|mol2

> <Gold.Protein.RotatedTorsions>
[  496  491  490  487 ] final  -67.60 input  -89.99 | X-H torsion

> <Gold.Protein.ActiveResidues>
 MET295  LEU298  THR299  LEU301  ALA302  GLU305  TRP335  MET336  LEU339  MET340 
 GLY342  LEU343  ARG346  PHE356  ILE373  ILE376  PHE377  LEU380  LYS471  GLY472 
 MET473  HIS475  LEU476  LEU477  ASN478  MET479  VAL484  VAL487 

> <Gold.Protein.RotatedAtoms>
   36.5581   34.7350   41.3757 H   0  0  0  0  0  0  0  0  0  0  0  0  # atno 496  bound_to 491 

> <Gold.Score>
     Score     S(PLP)   S(hbond)     S(cho)   S(metal)  DE(clash)   DE(tors)     intcor
     43.34     -43.12       0.40       0.00       0.00       0.00       0.71       0.43

> <Gold.PLP.Fitness>
43.3431

> <Gold.PLP.PLP>
-43.1240

> <Gold.PLP.part.hbond>
-1.0000

> <Gold.PLP.part.metal>
0.0000

> <Gold.PLP.part.buried>
-4.9432

> <Gold.PLP.part.nonpolar>
-38.0505

> <Gold.PLP.part.repulsive>
0.2546

> <Gold.PLP.ligand.clash>
0.0000

> <Gold.PLP.ligand.torsion>
0.7091

> <Gold.PLP.Chemscore.Hbond>
0.4030

> <Gold.PLP.Chemscore.CHOScore>
0.0000

> <Gold.PLP.Chemscore.Metal>
0.0000

> <Gold.Chemscore.Hbonds>
donor molecule, donor type, donor heavy atom, donor atom, acceptor molecule, acceptor atom, score
      P1  H  1258  1270       L1    13  0.40

> <Gold.PLP.Chemscore.Internal.Correction>
0.4283

