#       Name:                EN300-137349_i001
#       Creating user name   aseyller
#       Creation time:       Fri Apr 21 19:21:49 2023


#       File generated by GOLD software.
#

@<TRIPOS>MOLECULE
EN300-137349_i001|benzaldehydes|mol2|800|dock13
    29    29     1
SMALL
USER_CHARGES


@<TRIPOS>ATOM
      1 C1          32.5026  38.2846  36.3501 C.3            1 <1>                0.0000
      2 C2          32.0185  36.9545  36.9309 C.3            1 <1>                0.0000
      3 C3          31.8075  35.9494  35.7968 C.3            1 <1>                0.0000
      4 C4          33.0662  36.4118  37.9049 C.3            1 <1>                0.0000
      5 O5          30.7650  37.1609  37.6341 O.3            1 <1>                0.0000
      6 C6          30.2695  36.1136  38.3208 C.2            1 <1>                0.0000
      7 O7          30.7178  35.0000  38.1370 O.2            1 <1>                0.0000
      8 C8          29.1787  36.3197  39.2992 C.ar           1 <1>                0.0000
      9 C9          27.8479  36.1929  38.8972 C.ar           1 <1>                0.0000
     10 C10         26.8315  36.3842  39.8074 C.ar           1 <1>                0.0000
     11 C11         27.1334  36.7053  41.1342 C.ar           1 <1>                0.0000
     12 C12         26.0469  36.9097  42.1091 C.2            1 <1>                0.0000
     13 O13         24.8983  36.6861  41.7923 O.2            1 <1>                0.0000
     14 C14         28.4665  36.8320  41.5357 C.ar           1 <1>                0.0000
     15 C15         29.4814  36.6351  40.6251 C.ar           1 <1>                0.0000
     16 H16         31.7562  38.6712  35.6562 H              1 <1>                0.0000
     17 H17         32.6529  39.0006  37.1581 H              1 <1>                0.0000
     18 H18         33.4436  38.1296  35.8223 H              1 <1>                0.0000
     19 H19         32.7485  35.7944  35.2689 H              1 <1>                0.0000
     20 H20         31.4626  35.0018  36.2106 H              1 <1>                0.0000
     21 H21         31.0611  36.3360  35.1028 H              1 <1>                0.0000
     22 H22         33.2165  37.1278  38.7129 H              1 <1>                0.0000
     23 H23         32.7214  35.4642  38.3186 H              1 <1>                0.0000
     24 H24         34.0072  36.2568  37.3771 H              1 <1>                0.0000
     25 H25         27.6148  35.9452  37.8721 H              1 <1>                0.0000
     26 H26         25.8020  36.2865  39.4962 H              1 <1>                0.0000
     27 H27         26.2740  37.2588  43.1056 H              1 <1>                0.0000
     28 H28         28.7008  37.0804  42.5604 H              1 <1>                0.0000
     29 H29         30.5114  36.7329  40.9351 H              1 <1>                0.0000
@<TRIPOS>BOND
    1    1    2 1     
    2    1   16 1     
    3    1   17 1     
    4    1   18 1     
    5    2    3 1     
    6    2    4 1     
    7    2    5 1     
    8    3   19 1     
    9    3   20 1     
   10    3   21 1     
   11    4   22 1     
   12    4   23 1     
   13    4   24 1     
   14    5    6 1     
   15    6    7 2     
   16    6    8 1     
   17    8    9 ar    
   18    8   15 ar    
   19    9   10 ar    
   20    9   25 1     
   21   10   11 ar    
   22   10   26 1     
   23   11   12 1     
   24   11   14 ar    
   25   12   13 2     
   26   12   27 1     
   27   14   15 ar    
   28   14   28 1     
   29   15   29 1     
@<TRIPOS>SUBSTRUCTURE
      1 ****           1
@<TRIPOS>COMMENT
> <Gold.Version>
2022.2.0

> <Gold.Id.Protein>
1qkm|1qkm_protein|mol2

> <Gold.Protein.RotatedTorsions>
[  496  491  490  487 ] final   72.65 input  -89.99 | X-H torsion

> <Gold.Protein.ActiveResidues>
 MET295  LEU298  THR299  LEU301  ALA302  GLU305  TRP335  MET336  LEU339  MET340 
 GLY342  LEU343  ARG346  PHE356  ILE373  ILE376  PHE377  LEU380  LYS471  GLY472 
 MET473  HIS475  LEU476  LEU477  ASN478  MET479  VAL484  VAL487 

> <Gold.Protein.RotatedAtoms>
   36.6610   33.1712   42.2068 H   0  0  0  0  0  0  0  0  0  0  0  0  # atno 496  bound_to 491 

> <Gold.Score>
     Score     S(PLP)   S(hbond)     S(cho)   S(metal)  DE(clash)   DE(tors)     intcor
     43.36     -44.53       0.61       0.00       0.00       0.00       1.70       0.42

> <Gold.PLP.Fitness>
43.3647

> <Gold.PLP.PLP>
-44.5294

> <Gold.PLP.part.hbond>
-1.0000

> <Gold.PLP.part.metal>
0.0000

> <Gold.PLP.part.buried>
-0.5943

> <Gold.PLP.part.nonpolar>
-42.8850

> <Gold.PLP.part.repulsive>
0.3559

> <Gold.PLP.ligand.clash>
0.0018

> <Gold.PLP.ligand.torsion>
1.7034

> <Gold.PLP.Chemscore.Hbond>
0.6080

> <Gold.PLP.Chemscore.CHOScore>
0.0000

> <Gold.PLP.Chemscore.Metal>
0.0000

> <Gold.Chemscore.Hbonds>
donor molecule, donor type, donor heavy atom, donor atom, acceptor molecule, acceptor atom, score
      P1  H  1258  1270       L1    13  0.61

> <Gold.PLP.Chemscore.Internal.Correction>
0.4198

