#       Name:                EN300-137349_i001
#       Creating user name   aseyller
#       Creation time:       Fri Apr 21 19:21:50 2023


#       File generated by GOLD software.
#

@<TRIPOS>MOLECULE
EN300-137349_i001|benzaldehydes|mol2|800|dock14
    29    29     1
SMALL
USER_CHARGES


@<TRIPOS>ATOM
      1 C1          33.2985  36.4215  34.9905 C.3            1 <1>                0.0000
      2 C2          32.2379  37.4792  35.3025 C.3            1 <1>                0.0000
      3 C3          32.8101  38.5003  36.2877 C.3            1 <1>                0.0000
      4 C4          31.8309  38.1900  34.0102 C.3            1 <1>                0.0000
      5 O5          31.0743  36.8393  35.8899 O.3            1 <1>                0.0000
      6 C6          30.1418  37.6455  36.4327 C.2            1 <1>                0.0000
      7 O7          29.9716  38.7626  35.9876 O.2            1 <1>                0.0000
      8 C8          29.3249  37.1703  37.5712 C.ar           1 <1>                0.0000
      9 C9          29.9259  36.4616  38.6131 C.ar           1 <1>                0.0000
     10 C10         29.1663  36.0191  39.6739 C.ar           1 <1>                0.0000
     11 C11         27.7932  36.2800  39.7066 C.ar           1 <1>                0.0000
     12 C12         26.9796  35.8074  40.8413 C.2            1 <1>                0.0000
     13 O13         25.8209  36.1497  40.9405 O.2            1 <1>                0.0000
     14 C14         27.1925  36.9898  38.6627 C.ar           1 <1>                0.0000
     15 C15         27.9548  37.4359  37.6055 C.ar           1 <1>                0.0000
     16 H16         33.5884  35.9152  35.9111 H              1 <1>                0.0000
     17 H17         32.8908  35.6941  34.2886 H              1 <1>                0.0000
     18 H18         34.1719  36.9020  34.5495 H              1 <1>                0.0000
     19 H19         33.6836  38.9807  35.8467 H              1 <1>                0.0000
     20 H20         32.0544  39.2538  36.5100 H              1 <1>                0.0000
     21 H21         33.1001  37.9939  37.2084 H              1 <1>                0.0000
     22 H22         31.4231  37.4626  33.3083 H              1 <1>                0.0000
     23 H23         31.0752  38.9434  34.2324 H              1 <1>                0.0000
     24 H24         32.7042  38.6704  33.5692 H              1 <1>                0.0000
     25 H25         30.9867  36.2599  38.5875 H              1 <1>                0.0000
     26 H26         29.6313  35.4706  40.4796 H              1 <1>                0.0000
     27 H27         27.4157  35.1563  41.5844 H              1 <1>                0.0000
     28 H28         26.1317  37.1915  38.6870 H              1 <1>                0.0000
     29 H29         27.4909  37.9844  36.7989 H              1 <1>                0.0000
@<TRIPOS>BOND
    1    1    2 1     
    2    1   16 1     
    3    1   17 1     
    4    1   18 1     
    5    2    3 1     
    6    2    4 1     
    7    2    5 1     
    8    3   19 1     
    9    3   20 1     
   10    3   21 1     
   11    4   22 1     
   12    4   23 1     
   13    4   24 1     
   14    5    6 1     
   15    6    7 2     
   16    6    8 1     
   17    8    9 ar    
   18    8   15 ar    
   19    9   10 ar    
   20    9   25 1     
   21   10   11 ar    
   22   10   26 1     
   23   11   12 1     
   24   11   14 ar    
   25   12   13 2     
   26   12   27 1     
   27   14   15 ar    
   28   14   28 1     
   29   15   29 1     
@<TRIPOS>SUBSTRUCTURE
      1 ****           1
@<TRIPOS>COMMENT
> <Gold.Version>
2022.2.0

> <Gold.Id.Protein>
1qkm|1qkm_protein|mol2

> <Gold.Protein.RotatedTorsions>
[  496  491  490  487 ] final  168.79 input  -89.99 | X-H torsion

> <Gold.Protein.ActiveResidues>
 MET295  LEU298  THR299  LEU301  ALA302  GLU305  TRP335  MET336  LEU339  MET340 
 GLY342  LEU343  ARG346  PHE356  ILE373  ILE376  PHE377  LEU380  LYS471  GLY472 
 MET473  HIS475  LEU476  LEU477  ASN478  MET479  VAL484  VAL487 

> <Gold.Protein.RotatedAtoms>
   37.3139   33.3103   40.9723 H   0  0  0  0  0  0  0  0  0  0  0  0  # atno 496  bound_to 491 

> <Gold.Score>
     Score     S(PLP)   S(hbond)     S(cho)   S(metal)  DE(clash)   DE(tors)     intcor
     43.06     -44.97       0.00       0.00       0.00       0.00       1.17       0.42

> <Gold.PLP.Fitness>
43.0630

> <Gold.PLP.PLP>
-44.9741

> <Gold.PLP.part.hbond>
0.0000

> <Gold.PLP.part.metal>
0.0000

> <Gold.PLP.part.buried>
-4.4079

> <Gold.PLP.part.nonpolar>
-41.2467

> <Gold.PLP.part.repulsive>
0.2373

> <Gold.PLP.ligand.clash>
0.0000

> <Gold.PLP.ligand.torsion>
1.1655

> <Gold.PLP.Chemscore.Hbond>
0.0000

> <Gold.PLP.Chemscore.CHOScore>
0.0000

> <Gold.PLP.Chemscore.Metal>
0.0000

> <Gold.PLP.Chemscore.Internal.Correction>
0.4198

