#       Name:                EN300-137349_i001
#       Creating user name   aseyller
#       Creation time:       Fri Apr 21 19:21:44 2023


#       File generated by GOLD software.
#

@<TRIPOS>MOLECULE
EN300-137349_i001|benzaldehydes|mol2|800|dock9
    29    29     1
SMALL
USER_CHARGES


@<TRIPOS>ATOM
      1 C1          33.8154  35.9079  38.3279 C.3            1 <1>                0.0000
      2 C2          32.4945  36.1577  37.5973 C.3            1 <1>                0.0000
      3 C3          32.4440  37.6094  37.1168 C.3            1 <1>                0.0000
      4 C4          32.3918  35.2183  36.3940 C.3            1 <1>                0.0000
      5 O5          31.3864  35.9084  38.5019 O.3            1 <1>                0.0000
      6 C6          30.1523  36.2109  38.0550 C.2            1 <1>                0.0000
      7 O7          29.9711  36.4318  36.8746 O.2            1 <1>                0.0000
      8 C8          29.0174  36.2743  39.0022 C.ar           1 <1>                0.0000
      9 C9          27.7578  36.6780  38.5556 C.ar           1 <1>                0.0000
     10 C10         26.7002  36.7369  39.4366 C.ar           1 <1>                0.0000
     11 C11         26.8888  36.3922  40.7784 C.ar           1 <1>                0.0000
     12 C12         25.7579  36.4544  41.7218 C.2            1 <1>                0.0000
     13 O13         24.9000  37.2998  41.5847 O.2            1 <1>                0.0000
     14 C14         28.1506  35.9881  41.2245 C.ar           1 <1>                0.0000
     15 C15         29.2055  35.9248  40.3407 C.ar           1 <1>                0.0000
     16 H16         33.8886  36.5771  39.1851 H              1 <1>                0.0000
     17 H17         33.8514  34.8738  38.6702 H              1 <1>                0.0000
     18 H18         34.6472  36.0950  37.6488 H              1 <1>                0.0000
     19 H19         33.2758  37.7965  36.4377 H              1 <1>                0.0000
     20 H20         31.5029  37.7873  36.5963 H              1 <1>                0.0000
     21 H21         32.5172  38.2787  37.9740 H              1 <1>                0.0000
     22 H22         32.4276  34.1841  36.7363 H              1 <1>                0.0000
     23 H23         31.4507  35.3962  35.8735 H              1 <1>                0.0000
     24 H24         33.2235  35.4054  35.7149 H              1 <1>                0.0000
     25 H25         27.6123  36.9446  37.5191 H              1 <1>                0.0000
     26 H26         25.7260  37.0496  39.0911 H              1 <1>                0.0000
     27 H27         25.6938  35.7469  42.5352 H              1 <1>                0.0000
     28 H28         28.2974  35.7219  42.2609 H              1 <1>                0.0000
     29 H29         30.1804  35.6125  40.6852 H              1 <1>                0.0000
@<TRIPOS>BOND
    1    1    2 1     
    2    1   16 1     
    3    1   17 1     
    4    1   18 1     
    5    2    3 1     
    6    2    4 1     
    7    2    5 1     
    8    3   19 1     
    9    3   20 1     
   10    3   21 1     
   11    4   22 1     
   12    4   23 1     
   13    4   24 1     
   14    5    6 1     
   15    6    7 2     
   16    6    8 1     
   17    8    9 ar    
   18    8   15 ar    
   19    9   10 ar    
   20    9   25 1     
   21   10   11 ar    
   22   10   26 1     
   23   11   12 1     
   24   11   14 ar    
   25   12   13 2     
   26   12   27 1     
   27   14   15 ar    
   28   14   28 1     
   29   15   29 1     
@<TRIPOS>SUBSTRUCTURE
      1 ****           1
@<TRIPOS>COMMENT
> <Gold.Version>
2022.2.0

> <Gold.Id.Protein>
1qkm|1qkm_protein|mol2

> <Gold.Protein.RotatedTorsions>
[  496  491  490  487 ] final  -53.30 input  -89.99 | X-H torsion

> <Gold.Protein.ActiveResidues>
 MET295  LEU298  THR299  LEU301  ALA302  GLU305  TRP335  MET336  LEU339  MET340 
 GLY342  LEU343  ARG346  PHE356  ILE373  ILE376  PHE377  LEU380  LYS471  GLY472 
 MET473  HIS475  LEU476  LEU477  ASN478  MET479  VAL484  VAL487 

> <Gold.Protein.RotatedAtoms>
   36.4473   34.7163   41.5819 H   0  0  0  0  0  0  0  0  0  0  0  0  # atno 496  bound_to 491 

> <Gold.Score>
     Score     S(PLP)   S(hbond)     S(cho)   S(metal)  DE(clash)   DE(tors)     intcor
     42.85     -42.38       0.30       0.00       0.00       0.01       0.43       0.43

> <Gold.PLP.Fitness>
42.8458

> <Gold.PLP.PLP>
-42.3808

> <Gold.PLP.part.hbond>
-1.0000

> <Gold.PLP.part.metal>
0.0000

> <Gold.PLP.part.buried>
-0.8760

> <Gold.PLP.part.nonpolar>
-41.9843

> <Gold.PLP.part.repulsive>
0.3072

> <Gold.PLP.ligand.clash>
0.0147

> <Gold.PLP.ligand.torsion>
0.4303

> <Gold.PLP.Chemscore.Hbond>
0.3040

> <Gold.PLP.Chemscore.CHOScore>
0.0000

> <Gold.PLP.Chemscore.Metal>
0.0000

> <Gold.Chemscore.Hbonds>
donor molecule, donor type, donor heavy atom, donor atom, acceptor molecule, acceptor atom, score
      P1  H  1258  1270       L1    13  0.30

> <Gold.PLP.Chemscore.Internal.Correction>
0.4283

