#       Name:                EN300-137349_i001
#       Creating user name   aseyller
#       Creation time:       Fri Apr 21 19:21:39 2023


#       File generated by GOLD software.
#

@<TRIPOS>MOLECULE
EN300-137349_i001|benzaldehydes|mol2|800|dock4
    29    29     1
SMALL
USER_CHARGES


@<TRIPOS>ATOM
      1 C1          31.2756  37.6829  34.5346 C.3            1 <1>                0.0000
      2 C2          31.7055  37.1556  35.9050 C.3            1 <1>                0.0000
      3 C3          32.6817  35.9920  35.7205 C.3            1 <1>                0.0000
      4 C4          32.3900  38.2758  36.6907 C.3            1 <1>                0.0000
      5 O5          30.5374  36.6963  36.6350 O.3            1 <1>                0.0000
      6 C6          29.6520  37.6336  37.0242 C.2            1 <1>                0.0000
      7 O7          29.6688  38.7347  36.5120 O.2            1 <1>                0.0000
      8 C8          28.6587  37.3219  38.0757 C.ar           1 <1>                0.0000
      9 C9          27.3261  37.7045  37.9119 C.ar           1 <1>                0.0000
     10 C10         26.4004  37.4144  38.8902 C.ar           1 <1>                0.0000
     11 C11         26.7960  36.7364  40.0471 C.ar           1 <1>                0.0000
     12 C12         25.8063  36.4250  41.0942 C.2            1 <1>                0.0000
     13 O13         25.0809  37.2974  41.5213 O.2            1 <1>                0.0000
     14 C14         28.1307  36.3537  40.2100 C.ar           1 <1>                0.0000
     15 C15         29.0537  36.6402  39.2282 C.ar           1 <1>                0.0000
     16 H16         30.7880  36.8848  33.9748 H              1 <1>                0.0000
     17 H17         30.5802  38.5118  34.6660 H              1 <1>                0.0000
     18 H18         32.1525  38.0278  33.9866 H              1 <1>                0.0000
     19 H19         33.5586  36.3368  35.1724 H              1 <1>                0.0000
     20 H20         32.9879  35.6164  36.6968 H              1 <1>                0.0000
     21 H21         32.1941  35.1939  35.1606 H              1 <1>                0.0000
     22 H22         31.6945  39.1048  36.8223 H              1 <1>                0.0000
     23 H23         32.6962  37.9001  37.6670 H              1 <1>                0.0000
     24 H24         33.2668  38.6206  36.1428 H              1 <1>                0.0000
     25 H25         27.0208  38.2285  37.0182 H              1 <1>                0.0000
     26 H26         25.3697  37.7108  38.7635 H              1 <1>                0.0000
     27 H27         25.7275  35.4198  41.4810 H              1 <1>                0.0000
     28 H28         28.4373  35.8302  41.1036 H              1 <1>                0.0000
     29 H29         30.0849  36.3445  39.3538 H              1 <1>                0.0000
@<TRIPOS>BOND
    1    1    2 1     
    2    1   16 1     
    3    1   17 1     
    4    1   18 1     
    5    2    3 1     
    6    2    4 1     
    7    2    5 1     
    8    3   19 1     
    9    3   20 1     
   10    3   21 1     
   11    4   22 1     
   12    4   23 1     
   13    4   24 1     
   14    5    6 1     
   15    6    7 2     
   16    6    8 1     
   17    8    9 ar    
   18    8   15 ar    
   19    9   10 ar    
   20    9   25 1     
   21   10   11 ar    
   22   10   26 1     
   23   11   12 1     
   24   11   14 ar    
   25   12   13 2     
   26   12   27 1     
   27   14   15 ar    
   28   14   28 1     
   29   15   29 1     
@<TRIPOS>SUBSTRUCTURE
      1 ****           1
@<TRIPOS>COMMENT
> <Gold.Version>
2022.2.0

> <Gold.Id.Protein>
1qkm|1qkm_protein|mol2

> <Gold.Protein.RotatedTorsions>
[  496  491  490  487 ] final  -51.09 input  -89.99 | X-H torsion

> <Gold.Protein.ActiveResidues>
 MET295  LEU298  THR299  LEU301  ALA302  GLU305  TRP335  MET336  LEU339  MET340 
 GLY342  LEU343  ARG346  PHE356  ILE373  ILE376  PHE377  LEU380  LYS471  GLY472 
 MET473  HIS475  LEU476  LEU477  ASN478  MET479  VAL484  VAL487 

> <Gold.Protein.RotatedAtoms>
   36.4320   34.7085   41.6138 H   0  0  0  0  0  0  0  0  0  0  0  0  # atno 496  bound_to 491 

> <Gold.Score>
     Score     S(PLP)   S(hbond)     S(cho)   S(metal)  DE(clash)   DE(tors)     intcor
     45.41     -47.28       0.21       0.00       0.00       0.00       1.46       0.43

> <Gold.PLP.Fitness>
45.4059

> <Gold.PLP.PLP>
-47.2789

> <Gold.PLP.part.hbond>
-1.0000

> <Gold.PLP.part.metal>
0.0000

> <Gold.PLP.part.buried>
-4.3958

> <Gold.PLP.part.nonpolar>
-42.2772

> <Gold.PLP.part.repulsive>
0.2257

> <Gold.PLP.ligand.clash>
0.0000

> <Gold.PLP.ligand.torsion>
1.4595

> <Gold.PLP.Chemscore.Hbond>
0.2059

> <Gold.PLP.Chemscore.CHOScore>
0.0000

> <Gold.PLP.Chemscore.Metal>
0.0000

> <Gold.Chemscore.Hbonds>
donor molecule, donor type, donor heavy atom, donor atom, acceptor molecule, acceptor atom, score
      P1  H  1258  1270       L1    13  0.21

> <Gold.PLP.Chemscore.Internal.Correction>
0.4283

