#       Name:                EN300-137349_i001
#       Creating user name   aseyller
#       Creation time:       Fri Apr 21 19:21:45 2023


#       File generated by GOLD software.
#

@<TRIPOS>MOLECULE
EN300-137349_i001|benzaldehydes|mol2|800|dock10
    29    29     1
SMALL
USER_CHARGES


@<TRIPOS>ATOM
      1 C1          25.7721  37.7964  38.9216 C.3            1 <1>                0.0000
      2 C2          26.7997  36.7781  39.4196 C.3            1 <1>                0.0000
      3 C3          26.7444  36.7028  40.9467 C.3            1 <1>                0.0000
      4 C4          26.4822  35.4028  38.8293 C.3            1 <1>                0.0000
      5 O5          28.1288  37.1884  39.0031 O.3            1 <1>                0.0000
      6 C6          29.1270  36.3025  39.1841 C.2            1 <1>                0.0000
      7 O7          29.0742  35.5070  40.1003 O.2            1 <1>                0.0000
      8 C8          30.2881  36.2983  38.2668 C.ar           1 <1>                0.0000
      9 C9          31.3437  35.4105  38.4818 C.ar           1 <1>                0.0000
     10 C10         32.4250  35.4055  37.6281 C.ar           1 <1>                0.0000
     11 C11         32.4647  36.2900  36.5460 C.ar           1 <1>                0.0000
     12 C12         33.6209  36.2852  35.6316 C.2            1 <1>                0.0000
     13 O13         33.4997  36.7003  34.4991 O.2            1 <1>                0.0000
     14 C14         31.4070  37.1786  36.3317 C.ar           1 <1>                0.0000
     15 C15         30.3242  37.1783  37.1836 C.ar           1 <1>                0.0000
     16 H16         25.9983  38.7762  39.3421 H              1 <1>                0.0000
     17 H17         25.8116  37.8501  37.8337 H              1 <1>                0.0000
     18 H18         24.7744  37.4883  39.2342 H              1 <1>                0.0000
     19 H19         25.7466  36.3948  41.2594 H              1 <1>                0.0000
     20 H20         27.4764  35.9773  41.3015 H              1 <1>                0.0000
     21 H21         26.9705  37.6826  41.3673 H              1 <1>                0.0000
     22 H22         26.5217  35.4563  37.7413 H              1 <1>                0.0000
     23 H23         27.2143  34.6773  39.1841 H              1 <1>                0.0000
     24 H24         25.4845  35.0947  39.1419 H              1 <1>                0.0000
     25 H25         31.3131  34.7275  39.3180 H              1 <1>                0.0000
     26 H26         33.2418  34.7189  37.7948 H              1 <1>                0.0000
     27 H27         34.5759  35.9118  35.9706 H              1 <1>                0.0000
     28 H28         31.4369  37.8624  35.4962 H              1 <1>                0.0000
     29 H29         29.5069  37.8647  37.0181 H              1 <1>                0.0000
@<TRIPOS>BOND
    1    1    2 1     
    2    1   16 1     
    3    1   17 1     
    4    1   18 1     
    5    2    3 1     
    6    2    4 1     
    7    2    5 1     
    8    3   19 1     
    9    3   20 1     
   10    3   21 1     
   11    4   22 1     
   12    4   23 1     
   13    4   24 1     
   14    5    6 1     
   15    6    7 2     
   16    6    8 1     
   17    8    9 ar    
   18    8   15 ar    
   19    9   10 ar    
   20    9   25 1     
   21   10   11 ar    
   22   10   26 1     
   23   11   12 1     
   24   11   14 ar    
   25   12   13 2     
   26   12   27 1     
   27   14   15 ar    
   28   14   28 1     
   29   15   29 1     
@<TRIPOS>SUBSTRUCTURE
      1 ****           1
@<TRIPOS>COMMENT
> <Gold.Version>
2022.2.0

> <Gold.Id.Protein>
1qkm|1qkm_protein|mol2

> <Gold.Protein.RotatedTorsions>
[  496  491  490  487 ] final    3.36 input  -89.99 | X-H torsion

> <Gold.Protein.ActiveResidues>
 MET295  LEU298  THR299  LEU301  ALA302  GLU305  TRP335  MET336  LEU339  MET340 
 GLY342  LEU343  ARG346  PHE356  ILE373  ILE376  PHE377  LEU380  LYS471  GLY472 
 MET473  HIS475  LEU476  LEU477  ASN478  MET479  VAL484  VAL487 

> <Gold.Protein.RotatedAtoms>
   36.2625   34.1652   42.2625 H   0  0  0  0  0  0  0  0  0  0  0  0  # atno 496  bound_to 491 

> <Gold.Score>
     Score     S(PLP)   S(hbond)     S(cho)   S(metal)  DE(clash)   DE(tors)     intcor
     44.64     -45.35       0.00       0.00       0.00       0.00       0.57       0.43

> <Gold.PLP.Fitness>
44.6389

> <Gold.PLP.PLP>
-45.3526

> <Gold.PLP.part.hbond>
0.0000

> <Gold.PLP.part.metal>
0.0000

> <Gold.PLP.part.buried>
-4.4158

> <Gold.PLP.part.nonpolar>
-41.4581

> <Gold.PLP.part.repulsive>
0.2936

> <Gold.PLP.ligand.clash>
0.0000

> <Gold.PLP.ligand.torsion>
0.5710

> <Gold.PLP.Chemscore.Hbond>
0.0000

> <Gold.PLP.Chemscore.CHOScore>
0.0000

> <Gold.PLP.Chemscore.Metal>
0.0000

> <Gold.PLP.Chemscore.Internal.Correction>
0.4283

