#       Name:                EN300-137349_i001
#       Creating user name   aseyller
#       Creation time:       Fri Apr 21 19:21:42 2023


#       File generated by GOLD software.
#

@<TRIPOS>MOLECULE
EN300-137349_i001|benzaldehydes|mol2|800|dock7
    29    29     1
SMALL
USER_CHARGES


@<TRIPOS>ATOM
      1 C1          32.4230  35.1985  35.8189 C.3            1 <1>                0.0000
      2 C2          32.7051  36.6062  36.3479 C.3            1 <1>                0.0000
      3 C3          33.9258  36.5695  37.2696 C.3            1 <1>                0.0000
      4 C4          32.9810  37.5467  35.1732 C.3            1 <1>                0.0000
      5 O5          31.5523  37.0842  37.0902 O.3            1 <1>                0.0000
      6 C6          31.0734  36.2812  38.0597 C.2            1 <1>                0.0000
      7 O7          31.7657  35.3890  38.5063 O.2            1 <1>                0.0000
      8 C8          29.7037  36.4860  38.5806 C.ar           1 <1>                0.0000
      9 C9          29.3597  36.0069  39.8459 C.ar           1 <1>                0.0000
     10 C10         28.0848  36.1975  40.3321 C.ar           1 <1>                0.0000
     11 C11         27.1354  36.8711  39.5578 C.ar           1 <1>                0.0000
     12 C12         25.7712  37.0760  40.0771 C.2            1 <1>                0.0000
     13 O13         25.5496  36.9558  41.2628 O.2            1 <1>                0.0000
     14 C14         27.4810  37.3505  38.2908 C.ar           1 <1>                0.0000
     15 C15         28.7580  37.1634  37.8088 C.ar           1 <1>                0.0000
     16 H16         32.2264  34.5285  36.6558 H              1 <1>                0.0000
     17 H17         31.5534  35.2246  35.1623 H              1 <1>                0.0000
     18 H18         33.2884  34.8397  35.2616 H              1 <1>                0.0000
     19 H19         34.7911  36.2107  36.7123 H              1 <1>                0.0000
     20 H20         34.1266  37.5724  37.6465 H              1 <1>                0.0000
     21 H21         33.7292  35.8994  38.1065 H              1 <1>                0.0000
     22 H22         32.1113  37.5729  34.5166 H              1 <1>                0.0000
     23 H23         33.1819  38.5496  35.5501 H              1 <1>                0.0000
     24 H24         33.8463  37.1880  34.6160 H              1 <1>                0.0000
     25 H25         30.0932  35.4862  40.4439 H              1 <1>                0.0000
     26 H26         27.8187  35.8264  41.3108 H              1 <1>                0.0000
     27 H27         24.9690  37.3331  39.4012 H              1 <1>                0.0000
     28 H28         26.7482  37.8707  37.6918 H              1 <1>                0.0000
     29 H29         29.0251  37.5338  36.8300 H              1 <1>                0.0000
@<TRIPOS>BOND
    1    1    2 1     
    2    1   16 1     
    3    1   17 1     
    4    1   18 1     
    5    2    3 1     
    6    2    4 1     
    7    2    5 1     
    8    3   19 1     
    9    3   20 1     
   10    3   21 1     
   11    4   22 1     
   12    4   23 1     
   13    4   24 1     
   14    5    6 1     
   15    6    7 2     
   16    6    8 1     
   17    8    9 ar    
   18    8   15 ar    
   19    9   10 ar    
   20    9   25 1     
   21   10   11 ar    
   22   10   26 1     
   23   11   12 1     
   24   11   14 ar    
   25   12   13 2     
   26   12   27 1     
   27   14   15 ar    
   28   14   28 1     
   29   15   29 1     
@<TRIPOS>SUBSTRUCTURE
      1 ****           1
@<TRIPOS>COMMENT
> <Gold.Version>
2022.2.0

> <Gold.Id.Protein>
1qkm|1qkm_protein|mol2

> <Gold.Protein.RotatedTorsions>
[  496  491  490  487 ] final -177.47 input  -89.99 | X-H torsion

> <Gold.Protein.ActiveResidues>
 MET295  LEU298  THR299  LEU301  ALA302  GLU305  TRP335  MET336  LEU339  MET340 
 GLY342  LEU343  ARG346  PHE356  ILE373  ILE376  PHE377  LEU380  LYS471  GLY472 
 MET473  HIS475  LEU476  LEU477  ASN478  MET479  VAL484  VAL487 

> <Gold.Protein.RotatedAtoms>
   37.3160   33.4980   40.8472 H   0  0  0  0  0  0  0  0  0  0  0  0  # atno 496  bound_to 491 

> <Gold.Score>
     Score     S(PLP)   S(hbond)     S(cho)   S(metal)  DE(clash)   DE(tors)     intcor
     44.88     -45.60       0.00       0.00       0.00       0.00       0.57       0.43

> <Gold.PLP.Fitness>
44.8849

> <Gold.PLP.PLP>
-45.5985

> <Gold.PLP.part.hbond>
-0.1449

> <Gold.PLP.part.metal>
0.0000

> <Gold.PLP.part.buried>
-5.3550

> <Gold.PLP.part.nonpolar>
-41.1475

> <Gold.PLP.part.repulsive>
0.2784

> <Gold.PLP.ligand.clash>
0.0000

> <Gold.PLP.ligand.torsion>
0.5710

> <Gold.PLP.Chemscore.Hbond>
0.0000

> <Gold.PLP.Chemscore.CHOScore>
0.0000

> <Gold.PLP.Chemscore.Metal>
0.0000

> <Gold.PLP.Chemscore.Internal.Correction>
0.4283

