#       Name:                EN300-137349_i001
#       Creating user name   aseyller
#       Creation time:       Fri Apr 21 19:21:54 2023


#       File generated by GOLD software.
#

@<TRIPOS>MOLECULE
EN300-137349_i001|benzaldehydes|mol2|800|dock18
    29    29     1
SMALL
USER_CHARGES


@<TRIPOS>ATOM
      1 C1          30.6136  36.7722  35.4672 C.3            1 <1>                0.0000
      2 C2          31.3816  37.4613  36.5969 C.3            1 <1>                0.0000
      3 C3          32.7372  36.7770  36.7836 C.3            1 <1>                0.0000
      4 C4          31.5981  38.9338  36.2423 C.3            1 <1>                0.0000
      5 O5          30.6183  37.3673  37.8286 O.3            1 <1>                0.0000
      6 C6          29.3289  37.7536  37.7799 C.2            1 <1>                0.0000
      7 O7          28.9454  38.4777  36.8835 O.2            1 <1>                0.0000
      8 C8          28.3797  37.2958  38.8186 C.ar           1 <1>                0.0000
      9 C9          27.0069  37.3145  38.5659 C.ar           1 <1>                0.0000
     10 C10         26.1222  36.8881  39.5321 C.ar           1 <1>                0.0000
     11 C11         26.5998  36.4364  40.7660 C.ar           1 <1>                0.0000
     12 C12         25.6542  35.9794  41.8003 C.2            1 <1>                0.0000
     13 O13         24.5824  36.5312  41.9281 O.2            1 <1>                0.0000
     14 C14         27.9748  36.4179  41.0179 C.ar           1 <1>                0.0000
     15 C15         28.8580  36.8399  40.0484 C.ar           1 <1>                0.0000
     16 H16         30.4594  35.7232  35.7199 H              1 <1>                0.0000
     17 H17         29.6479  37.2597  35.3343 H              1 <1>                0.0000
     18 H18         31.1866  36.8429  34.5426 H              1 <1>                0.0000
     19 H19         33.3102  36.8476  35.8590 H              1 <1>                0.0000
     20 H20         33.2843  37.2680  37.5884 H              1 <1>                0.0000
     21 H21         32.5831  35.7279  37.0362 H              1 <1>                0.0000
     22 H22         30.6323  39.4213  36.1095 H              1 <1>                0.0000
     23 H23         32.1451  39.4247  37.0472 H              1 <1>                0.0000
     24 H24         32.1710  39.0044  35.3178 H              1 <1>                0.0000
     25 H25         26.6380  37.6639  37.6127 H              1 <1>                0.0000
     26 H26         25.0602  36.9030  39.3366 H              1 <1>                0.0000
     27 H27         25.9163  35.1531  42.4444 H              1 <1>                0.0000
     28 H28         28.3447  36.0695  41.9709 H              1 <1>                0.0000
     29 H29         29.9203  36.8257  40.2428 H              1 <1>                0.0000
@<TRIPOS>BOND
    1    1    2 1     
    2    1   16 1     
    3    1   17 1     
    4    1   18 1     
    5    2    3 1     
    6    2    4 1     
    7    2    5 1     
    8    3   19 1     
    9    3   20 1     
   10    3   21 1     
   11    4   22 1     
   12    4   23 1     
   13    4   24 1     
   14    5    6 1     
   15    6    7 2     
   16    6    8 1     
   17    8    9 ar    
   18    8   15 ar    
   19    9   10 ar    
   20    9   25 1     
   21   10   11 ar    
   22   10   26 1     
   23   11   12 1     
   24   11   14 ar    
   25   12   13 2     
   26   12   27 1     
   27   14   15 ar    
   28   14   28 1     
   29   15   29 1     
@<TRIPOS>SUBSTRUCTURE
      1 ****           1
@<TRIPOS>COMMENT
> <Gold.Version>
2022.2.0

> <Gold.Id.Protein>
1qkm|1qkm_protein|mol2

> <Gold.Protein.RotatedTorsions>
[  496  491  490  487 ] final  -50.99 input  -89.99 | X-H torsion

> <Gold.Protein.ActiveResidues>
 MET295  LEU298  THR299  LEU301  ALA302  GLU305  TRP335  MET336  LEU339  MET340 
 GLY342  LEU343  ARG346  PHE356  ILE373  ILE376  PHE377  LEU380  LYS471  GLY472 
 MET473  HIS475  LEU476  LEU477  ASN478  MET479  VAL484  VAL487 

> <Gold.Protein.RotatedAtoms>
   36.4313   34.7081   41.6154 H   0  0  0  0  0  0  0  0  0  0  0  0  # atno 496  bound_to 491 

> <Gold.Score>
     Score     S(PLP)   S(hbond)     S(cho)   S(metal)  DE(clash)   DE(tors)     intcor
     42.07     -40.93       0.77       0.00       0.00       0.00       0.78       0.40

> <Gold.PLP.Fitness>
42.0709

> <Gold.PLP.PLP>
-40.9322

> <Gold.PLP.part.hbond>
-0.6733

> <Gold.PLP.part.metal>
0.0000

> <Gold.PLP.part.buried>
0.1178

> <Gold.PLP.part.nonpolar>
-41.8899

> <Gold.PLP.part.repulsive>
1.3067

> <Gold.PLP.ligand.clash>
0.0000

> <Gold.PLP.ligand.torsion>
0.7841

> <Gold.PLP.Chemscore.Hbond>
0.7680

> <Gold.PLP.Chemscore.CHOScore>
0.0000

> <Gold.PLP.Chemscore.Metal>
0.0000

> <Gold.Chemscore.Hbonds>
donor molecule, donor type, donor heavy atom, donor atom, acceptor molecule, acceptor atom, score
      P1  H  1258  1270       L1    13  0.77

> <Gold.PLP.Chemscore.Internal.Correction>
0.4028

