#       Name:                EN300-137349_i001
#       Creating user name   aseyller
#       Creation time:       Fri Apr 21 19:21:43 2023


#       File generated by GOLD software.
#

@<TRIPOS>MOLECULE
EN300-137349_i001|benzaldehydes|mol2|800|dock8
    29    29     1
SMALL
USER_CHARGES


@<TRIPOS>ATOM
      1 C1          32.7447  33.9666  37.9029 C.3            1 <1>                0.0000
      2 C2          32.1894  35.3796  37.7127 C.3            1 <1>                0.0000
      3 C3          33.3126  36.3997  37.9087 C.3            1 <1>                0.0000
      4 C4          31.6166  35.5167  36.3006 C.3            1 <1>                0.0000
      5 O5          31.1399  35.6222  38.6863 O.3            1 <1>                0.0000
      6 C6          30.3733  36.7139  38.4999 C.2            1 <1>                0.0000
      7 O7          30.7924  37.6450  37.8424 O.2            1 <1>                0.0000
      8 C8          29.0207  36.7788  39.0962 C.ar           1 <1>                0.0000
      9 C9          28.8181  36.3620  40.4130 C.ar           1 <1>                0.0000
     10 C10         27.5592  36.4224  40.9694 C.ar           1 <1>                0.0000
     11 C11         26.4843  36.9014  40.2146 C.ar           1 <1>                0.0000
     12 C12         25.1370  36.9670  40.8089 C.2            1 <1>                0.0000
     13 O13         25.0048  36.9553  42.0139 O.2            1 <1>                0.0000
     14 C14         26.6883  37.3186  38.8960 C.ar           1 <1>                0.0000
     15 C15         27.9490  37.2623  38.3433 C.ar           1 <1>                0.0000
     16 H16         33.1528  33.8690  38.9088 H              1 <1>                0.0000
     17 H17         31.9445  33.2399  37.7632 H              1 <1>                0.0000
     18 H18         33.5325  33.7845  37.1719 H              1 <1>                0.0000
     19 H19         34.1005  36.2176  37.1778 H              1 <1>                0.0000
     20 H20         32.9170  37.4063  37.7732 H              1 <1>                0.0000
     21 H21         33.7208  36.3021  38.9147 H              1 <1>                0.0000
     22 H22         30.8163  34.7899  36.1610 H              1 <1>                0.0000
     23 H23         31.2209  36.5232  36.1652 H              1 <1>                0.0000
     24 H24         32.4044  35.3346  35.5697 H              1 <1>                0.0000
     25 H25         29.6486  35.9916  40.9959 H              1 <1>                0.0000
     26 H26         27.4026  36.0995  41.9880 H              1 <1>                0.0000
     27 H27         24.2675  37.0254  40.1709 H              1 <1>                0.0000
     28 H28         25.8584  37.6886  38.3120 H              1 <1>                0.0000
     29 H29         28.1068  37.5847  37.3246 H              1 <1>                0.0000
@<TRIPOS>BOND
    1    1    2 1     
    2    1   16 1     
    3    1   17 1     
    4    1   18 1     
    5    2    3 1     
    6    2    4 1     
    7    2    5 1     
    8    3   19 1     
    9    3   20 1     
   10    3   21 1     
   11    4   22 1     
   12    4   23 1     
   13    4   24 1     
   14    5    6 1     
   15    6    7 2     
   16    6    8 1     
   17    8    9 ar    
   18    8   15 ar    
   19    9   10 ar    
   20    9   25 1     
   21   10   11 ar    
   22   10   26 1     
   23   11   12 1     
   24   11   14 ar    
   25   12   13 2     
   26   12   27 1     
   27   14   15 ar    
   28   14   28 1     
   29   15   29 1     
@<TRIPOS>SUBSTRUCTURE
      1 ****           1
@<TRIPOS>COMMENT
> <Gold.Version>
2022.2.0

> <Gold.Id.Protein>
1qkm|1qkm_protein|mol2

> <Gold.Protein.RotatedTorsions>
[  496  491  490  487 ] final -119.74 input  -89.99 | X-H torsion

> <Gold.Protein.ActiveResidues>
 MET295  LEU298  THR299  LEU301  ALA302  GLU305  TRP335  MET336  LEU339  MET340 
 GLY342  LEU343  ARG346  PHE356  ILE373  ILE376  PHE377  LEU380  LYS471  GLY472 
 MET473  HIS475  LEU476  LEU477  ASN478  MET479  VAL484  VAL487 

> <Gold.Protein.RotatedAtoms>
   37.0239   34.3594   40.8020 H   0  0  0  0  0  0  0  0  0  0  0  0  # atno 496  bound_to 491 

> <Gold.Score>
     Score     S(PLP)   S(hbond)     S(cho)   S(metal)  DE(clash)   DE(tors)     intcor
     45.16     -46.01       0.40       0.00       0.00       0.00       1.24       0.43

> <Gold.PLP.Fitness>
45.1642

> <Gold.PLP.PLP>
-46.0138

> <Gold.PLP.part.hbond>
-0.6368

> <Gold.PLP.part.metal>
0.0000

> <Gold.PLP.part.buried>
-3.5175

> <Gold.PLP.part.nonpolar>
-42.9113

> <Gold.PLP.part.repulsive>
0.3788

> <Gold.PLP.ligand.clash>
0.0000

> <Gold.PLP.ligand.torsion>
1.2390

> <Gold.PLP.Chemscore.Hbond>
0.4000

> <Gold.PLP.Chemscore.CHOScore>
0.0000

> <Gold.PLP.Chemscore.Metal>
0.0000

> <Gold.Chemscore.Hbonds>
donor molecule, donor type, donor heavy atom, donor atom, acceptor molecule, acceptor atom, score
      P1  H  1258  1270       L1    13  0.40

> <Gold.PLP.Chemscore.Internal.Correction>
0.4283

