#       Name:                EN300-137349_i001
#       Creating user name   aseyller
#       Creation time:       Fri Apr 21 19:21:52 2023


#       File generated by GOLD software.
#

@<TRIPOS>MOLECULE
EN300-137349_i001|benzaldehydes|mol2|800|dock16
    29    29     1
SMALL
USER_CHARGES


@<TRIPOS>ATOM
      1 C1          32.7657  37.3206  37.4186 C.3            1 <1>                0.0000
      2 C2          31.9803  36.1463  36.8314 C.3            1 <1>                0.0000
      3 C3          31.5478  36.4850  35.4034 C.3            1 <1>                0.0000
      4 C4          32.8655  34.8985  36.8137 C.3            1 <1>                0.0000
      5 O5          30.8050  35.8944  37.6461 O.3            1 <1>                0.0000
      6 C6          29.9912  36.9406  37.8853 C.2            1 <1>                0.0000
      7 O7          30.0914  37.9522  37.2209 O.2            1 <1>                0.0000
      8 C8          28.9750  36.8574  38.9577 C.ar           1 <1>                0.0000
      9 C9          29.3749  36.7377  40.2898 C.ar           1 <1>                0.0000
     10 C10         28.4297  36.6606  41.2891 C.ar           1 <1>                0.0000
     11 C11         27.0694  36.7025  40.9686 C.ar           1 <1>                0.0000
     12 C12         26.0572  36.6206  42.0370 C.2            1 <1>                0.0000
     13 O13         24.8946  36.8593  41.7900 O.2            1 <1>                0.0000
     14 C14         26.6701  36.8225  39.6343 C.ar           1 <1>                0.0000
     15 C15         27.6171  36.9047  38.6370 C.ar           1 <1>                0.0000
     16 H16         32.1351  38.2095  37.4311 H              1 <1>                0.0000
     17 H17         33.0738  37.0793  38.4359 H              1 <1>                0.0000
     18 H18         33.6480  37.5096  36.8070 H              1 <1>                0.0000
     19 H19         32.4301  36.6741  34.7918 H              1 <1>                0.0000
     20 H20         30.9882  35.6484  34.9851 H              1 <1>                0.0000
     21 H21         30.9172  37.3740  35.4159 H              1 <1>                0.0000
     22 H22         33.1735  34.6571  37.8311 H              1 <1>                0.0000
     23 H23         32.3059  34.0619  36.3954 H              1 <1>                0.0000
     24 H24         33.7477  35.0875  36.2022 H              1 <1>                0.0000
     25 H25         30.4258  36.7050  40.5372 H              1 <1>                0.0000
     26 H26         28.7392  36.5675  42.3196 H              1 <1>                0.0000
     27 H27         26.3512  36.3480  43.0398 H              1 <1>                0.0000
     28 H28         25.6196  36.8546  39.3856 H              1 <1>                0.0000
     29 H29         27.3088  36.9975  37.6060 H              1 <1>                0.0000
@<TRIPOS>BOND
    1    1    2 1     
    2    1   16 1     
    3    1   17 1     
    4    1   18 1     
    5    2    3 1     
    6    2    4 1     
    7    2    5 1     
    8    3   19 1     
    9    3   20 1     
   10    3   21 1     
   11    4   22 1     
   12    4   23 1     
   13    4   24 1     
   14    5    6 1     
   15    6    7 2     
   16    6    8 1     
   17    8    9 ar    
   18    8   15 ar    
   19    9   10 ar    
   20    9   25 1     
   21   10   11 ar    
   22   10   26 1     
   23   11   12 1     
   24   11   14 ar    
   25   12   13 2     
   26   12   27 1     
   27   14   15 ar    
   28   14   28 1     
   29   15   29 1     
@<TRIPOS>SUBSTRUCTURE
      1 ****           1
@<TRIPOS>COMMENT
> <Gold.Version>
2022.2.0

> <Gold.Id.Protein>
1qkm|1qkm_protein|mol2

> <Gold.Protein.RotatedTorsions>
[  496  491  490  487 ] final   85.20 input  -89.99 | X-H torsion

> <Gold.Protein.ActiveResidues>
 MET295  LEU298  THR299  LEU301  ALA302  GLU305  TRP335  MET336  LEU339  MET340 
 GLY342  LEU343  ARG346  PHE356  ILE373  ILE376  PHE377  LEU380  LYS471  GLY472 
 MET473  HIS475  LEU476  LEU477  ASN478  MET479  VAL484  VAL487 

> <Gold.Protein.RotatedAtoms>
   36.7759   33.0562   42.0798 H   0  0  0  0  0  0  0  0  0  0  0  0  # atno 496  bound_to 491 

> <Gold.Score>
     Score     S(PLP)   S(hbond)     S(cho)   S(metal)  DE(clash)   DE(tors)     intcor
     44.30     -45.30       0.51       0.00       0.00       0.00       1.48       0.42

> <Gold.PLP.Fitness>
44.3033

> <Gold.PLP.PLP>
-45.3031

> <Gold.PLP.part.hbond>
-1.0000

> <Gold.PLP.part.metal>
0.0000

> <Gold.PLP.part.buried>
-1.1122

> <Gold.PLP.part.nonpolar>
-43.9536

> <Gold.PLP.part.repulsive>
0.3076

> <Gold.PLP.ligand.clash>
0.0000

> <Gold.PLP.ligand.torsion>
1.4778

> <Gold.PLP.Chemscore.Hbond>
0.5120

> <Gold.PLP.Chemscore.CHOScore>
0.0000

> <Gold.PLP.Chemscore.Metal>
0.0000

> <Gold.Chemscore.Hbonds>
donor molecule, donor type, donor heavy atom, donor atom, acceptor molecule, acceptor atom, score
      P1  H  1258  1270       L1    13  0.51

> <Gold.PLP.Chemscore.Internal.Correction>
0.4198

