#       Name:                EN300-137349_i001
#       Creating user name   aseyller
#       Creation time:       Fri Apr 21 19:21:36 2023


#       File generated by GOLD software.
#

@<TRIPOS>MOLECULE
EN300-137349_i001
    29    29     1
SMALL
USER_CHARGES


@<TRIPOS>ATOM
      1 C1           2.9480   0.3981   1.2490 C.3            1 <1>                0.0000
      2 C2           2.5427  -0.3878   0.0004 C.3            1 <1>                0.0000
      3 C3           2.9474   0.3963  -1.2495 C.3            1 <1>                0.0000
      4 C4           3.2478  -1.7456   0.0012 C.3            1 <1>                0.0000
      5 O5           1.1047  -0.5892   0.0009 O.3            1 <1>                0.0000
      6 C6           0.3327   0.5145   0.0003 C.2            1 <1>                0.0000
      7 O7           0.8465   1.6149  -0.0006 O.2            1 <1>                0.0000
      8 C8          -1.1414   0.3863   0.0008 C.ar           1 <1>                0.0000
      9 C9          -1.9411   1.5306   0.0001 C.ar           1 <1>                0.0000
     10 C10         -3.3137   1.4124   0.0001 C.ar           1 <1>                0.0000
     11 C11         -3.9057   0.1458   0.0007 C.ar           1 <1>                0.0000
     12 C12         -5.3742   0.0181   0.0002 C.2            1 <1>                0.0000
     13 O13         -5.8871  -1.0803   0.0007 O.2            1 <1>                0.0000
     14 C14         -3.1039  -0.9994   0.0013 C.ar           1 <1>                0.0000
     15 C15         -1.7315  -0.8789  -0.0040 C.ar           1 <1>                0.0000
     16 H16          2.4457   1.3654   1.2484 H              1 <1>                0.0000
     17 H17          2.6597  -0.1605   2.1394 H              1 <1>                0.0000
     18 H18          4.0275   0.5492   1.2486 H              1 <1>                0.0000
     19 H19          4.0269   0.5475  -1.2499 H              1 <1>                0.0000
     20 H20          2.6586  -0.1636  -2.1390 H              1 <1>                0.0000
     21 H21          2.4451   1.3637  -1.2501 H              1 <1>                0.0000
     22 H22          2.9594  -2.3043   0.8916 H              1 <1>                0.0000
     23 H23          2.9590  -2.3055  -0.8883 H              1 <1>                0.0000
     24 H24          4.3272  -1.5945   0.0008 H              1 <1>                0.0000
     25 H25         -1.4836   2.5090  -0.0000 H              1 <1>                0.0000
     26 H26         -3.9322   2.2977  -0.0000 H              1 <1>                0.0000
     27 H27         -5.9932   0.9031  -0.0007 H              1 <1>                0.0000
     28 H28         -3.5603  -1.9783   0.0021 H              1 <1>                0.0000
     29 H29         -1.1119  -1.7636  -0.0036 H              1 <1>                0.0000
@<TRIPOS>BOND
    1    1    2 1     
    2    1   16 1     
    3    1   17 1     
    4    1   18 1     
    5    2    3 1     
    6    2    4 1     
    7    2    5 1     
    8    3   19 1     
    9    3   20 1     
   10    3   21 1     
   11    4   22 1     
   12    4   23 1     
   13    4   24 1     
   14    5    6 1     
   15    6    7 2     
   16    6    8 1     
   17    8    9 ar    
   18    8   15 ar    
   19    9   10 ar    
   20    9   25 1     
   21   10   11 ar    
   22   10   26 1     
   23   11   12 1     
   24   11   14 ar    
   25   12   13 2     
   26   12   27 1     
   27   14   15 ar    
   28   14   28 1     
   29   15   29 1     
@<TRIPOS>SUBSTRUCTURE
      1 ****           1
