@<TRIPOS>MOLECULE
EN300-251348_i003_EN300-97777_i001_10_3_1
  54   55   2   0   0
SMALL
USER_CHARGES
@<TRIPOS>ATOM
     1 C1        -0.2001   -22.2022    12.4292 C.3        1 BB1          0.0000
     2 O2        -0.4519   -20.7771    12.5487 O.3        1 BB1          0.0000
     3 C3         0.2232   -20.1168    13.5025 C.2        1 BB1          0.0000
     4 O4         1.0277   -20.7019    14.1883 O.2        1 BB1          0.0000
     5 C5        -0.0224   -18.6457    13.7182 C.3        1 BB1          0.0000
     6 C6         0.8602   -18.1415    14.8644 C.3        1 BB1          0.0000
     7 C7         1.8046   -17.0642    14.3207 C.3        1 BB1          0.0000
     8 C8         0.9736   -15.8865    13.8003 C.3        1 BB1          0.0000
     9 C9         0.0804   -16.3820    12.6590 C.3        1 BB1          0.0000
    10 C10        0.3274   -17.8761    12.4428 C.3        1 BB1          0.0000
    11 N11        1.7318   -18.1050    12.0934 N.am       1 BB1          0.0000
    12 C12        2.6198   -17.6494    13.1660 C.3        1 BB1          0.0000
    13 H13       -0.8080   -22.6122    11.6228 H          1 BB1          0.0000
    14 H14        0.8547   -22.3675    12.2094 H          1 BB1          0.0000
    15 H15       -0.4578   -22.6964    13.3659 H          1 BB1          0.0000
    16 H16       -1.0711   -18.4838    13.9672 H          1 BB1          0.0000
    17 H17        0.2336   -17.7165    15.6485 H          1 BB1          0.0000
    18 H18        1.4434   -18.9692    15.2679 H          1 BB1          0.0000
    19 H19        2.4676   -16.7225    15.1156 H          1 BB1          0.0000
    20 H20        0.3533   -15.4927    14.6054 H          1 BB1          0.0000
    21 H21        1.6380   -15.1049    13.4317 H          1 BB1          0.0000
    22 H22       -0.9658   -16.2192    12.9180 H          1 BB1          0.0000
    23 H23        0.3199   -15.8371    11.7459 H          1 BB1          0.0000
    24 H24       -0.3001   -18.2303    11.6248 H          1 BB1          0.0000
    25 H25        3.2931   -16.8858    12.7768 H          1 BB1          0.0000
    26 H26        3.2072   -18.4923    13.5302 H          1 BB1          0.0000
    27 C1        -1.5392   -10.5689    11.7089 C.3        2 BB2          0.0000
    28 C2        -1.5677   -11.2425    10.3355 C.3        2 BB2          0.0000
    29 C3        -2.9433   -11.8711    10.1040 C.3        2 BB2          0.0000
    30 C4        -1.2944   -10.1995     9.2500 C.3        2 BB2          0.0000
    31 O5        -0.5485   -12.2753    10.2818 O.3        2 BB2          0.0000
    32 C6        -0.7051   -13.3319    11.1016 C.2        2 BB2          0.0000
    33 O7        -1.5463   -13.3014    11.9779 O.2        2 BB2          0.0000
    34 N8         0.0712   -14.4232    10.9502 N.am       2 BB2          0.0000
    35 C9         1.0854   -14.4598     9.8936 C.3        2 BB2          0.0000
    36 C10        0.4242   -14.4570     8.5785 C.1        2 BB2          0.0000
    37 C11       -0.1031   -14.4548     7.5296 C.1        2 BB2          0.0000
    38 C12       -0.0992   -15.5728    11.8422 C.3        2 BB2          0.0000
    39 C13        1.0675   -15.6478    12.7932 C.2        2 BB2          0.0000
    40 O14        2.2016   -15.7569    12.3594 O.2        2 BB2          0.0000
    41 H16       -1.7339   -11.3120    12.4821 H          2 BB2          0.0000
    42 H17       -0.5592   -10.1211    11.8737 H          2 BB2          0.0000
    43 H18       -2.3044    -9.7936    11.7492 H          2 BB2          0.0000
    44 H19       -3.7084   -11.0958    10.1443 H          2 BB2          0.0000
    45 H20       -2.9635   -12.3511     9.1256 H          2 BB2          0.0000
    46 H21       -3.1380   -12.6142    10.8774 H          2 BB2          0.0000
    47 H22       -0.3143    -9.7517     9.4149 H          2 BB2          0.0000
    48 H23       -1.3146   -10.6794     8.2715 H          2 BB2          0.0000
    49 H24       -2.0595    -9.4243     9.2903 H          2 BB2          0.0000
    50 H25        1.7298   -13.5849     9.9782 H          2 BB2          0.0000
    51 H26        1.6851   -15.3641     9.9968 H          2 BB2          0.0000
    52 H27       -0.5748   -14.4528     6.5915 H          2 BB2          0.0000
    53 H28       -1.0232   -15.4590    12.4091 H          2 BB2          0.0000
    54 H29       -0.1456   -16.4875    11.2513 H          2 BB2          0.0000
@<TRIPOS>BOND
     1      1      2 1
     2      1     13 1
     3      1     14 1
     4      1     15 1
     5      2      3 1
     6      3      4 2
     7      3      5 1
     8      5      6 1
     9      5     10 1
    10      5     16 1
    11      6      7 1
    12      6     17 1
    13      6     18 1
    14      7      8 1
    15      7     12 1
    16      7     19 1
    17      8      9 1
    18      8     20 1
    19      8     21 1
    20      9     10 1
    21      9     22 1
    22      9     23 1
    23     10     11 1
    24     10     24 1
    25     11     12 1
    26     12     25 1
    27     12     26 1
    28     27     28 1
    29     27     41 1
    30     27     42 1
    31     27     43 1
    32     28     29 1
    33     28     30 1
    34     28     31 1
    35     29     44 1
    36     29     45 1
    37     29     46 1
    38     30     47 1
    39     30     48 1
    40     30     49 1
    41     31     32 1
    42     32     33 2
    43     32     34 am
    44     34     35 1
    45     34     38 1
    46     35     36 1
    47     35     50 1
    48     35     51 1
    49     36     37 3
    50     37     52 1
    51     38     39 1
    52     38     53 1
    53     38     54 1
    54     39     40 2
    55     11     39 am
@<TRIPOS>SUBSTRUCTURE
     1 BB1          11
     2 BB2          39
@<TRIPOS>MOLECULE
EN300-251348_i003_EN300-194291_i002_10_12_1
  50   53   2   0   0
SMALL
USER_CHARGES
@<TRIPOS>ATOM
     1 C1        -0.2001   -22.2022    12.4292 C.3        1 BB1          0.0000
     2 O2        -0.4519   -20.7771    12.5487 O.3        1 BB1          0.0000
     3 C3         0.2232   -20.1168    13.5025 C.2        1 BB1          0.0000
     4 O4         1.0277   -20.7019    14.1883 O.2        1 BB1          0.0000
     5 C5        -0.0224   -18.6457    13.7182 C.3        1 BB1          0.0000
     6 C6         0.8602   -18.1415    14.8644 C.3        1 BB1          0.0000
     7 C7         1.8046   -17.0642    14.3207 C.3        1 BB1          0.0000
     8 C8         0.9736   -15.8865    13.8003 C.3        1 BB1          0.0000
     9 C9         0.0804   -16.3820    12.6590 C.3        1 BB1          0.0000
    10 C10        0.3274   -17.8761    12.4428 C.3        1 BB1          0.0000
    11 N11        1.7318   -18.1050    12.0934 N.am       1 BB1          0.0000
    12 C12        2.6198   -17.6494    13.1660 C.3        1 BB1          0.0000
    13 H13       -0.8080   -22.6122    11.6228 H          1 BB1          0.0000
    14 H14        0.8547   -22.3675    12.2094 H          1 BB1          0.0000
    15 H15       -0.4578   -22.6964    13.3659 H          1 BB1          0.0000
    16 H16       -1.0711   -18.4838    13.9672 H          1 BB1          0.0000
    17 H17        0.2336   -17.7165    15.6485 H          1 BB1          0.0000
    18 H18        1.4434   -18.9692    15.2679 H          1 BB1          0.0000
    19 H19        2.4676   -16.7225    15.1156 H          1 BB1          0.0000
    20 H20        0.3533   -15.4927    14.6054 H          1 BB1          0.0000
    21 H21        1.6380   -15.1049    13.4317 H          1 BB1          0.0000
    22 H22       -0.9658   -16.2192    12.9180 H          1 BB1          0.0000
    23 H23        0.3199   -15.8371    11.7459 H          1 BB1          0.0000
    24 H24       -0.3001   -18.2303    11.6248 H          1 BB1          0.0000
    25 H25        3.2931   -16.8858    12.7768 H          1 BB1          0.0000
    26 H26        3.2072   -18.4923    13.5302 H          1 BB1          0.0000
    27 O1         1.9320   -16.0914    13.2909 O.2        2 BB2          0.0000
    28 C2         0.7456   -15.8133    13.3301 C.2        2 BB2          0.0000
    29 C4         0.0314   -15.3798    12.0758 C.3        2 BB2          0.0000
    30 C5        -0.7148   -14.0455    12.2975 C.3        2 BB2          0.0000
    31 N6        -0.5862   -13.3104    11.0337 N.am       2 BB2          0.0000
    32 C7         0.3960   -13.8196    10.2703 C.2        2 BB2          0.0000
    33 O8         0.7185   -13.3971     9.1801 O.2        2 BB2          0.0000
    34 C9         1.0406   -14.9966    10.9688 C.3        2 BB2          0.0000
    35 C10       -1.3839   -12.2184    10.6702 C.ar       2 BB2          0.0000
    36 C11       -0.8494   -10.9372    10.6692 C.ar       2 BB2          0.0000
    37 C12       -1.6370    -9.8604    10.3100 C.ar       2 BB2          0.0000
    38 C13       -2.9591   -10.0573     9.9514 C.ar       2 BB2          0.0000
    39 F14       -3.7273    -9.0028     9.6005 F          2 BB2          0.0000
    40 C15       -3.4960   -11.3363     9.9514 C.ar       2 BB2          0.0000
    41 F16       -4.7867   -11.5269     9.6006 F          2 BB2          0.0000
    42 C17       -2.7088   -12.4167    10.3049 C.ar       2 BB2          0.0000
    43 H18       -0.6515   -16.1560    11.7302 H          2 BB2          0.0000
    44 H19       -1.7653   -14.2332    12.5195 H          2 BB2          0.0000
    45 H20       -0.2513   -13.4845    13.1090 H          2 BB2          0.0000
    46 H21        1.9949   -14.7042    11.4071 H          2 BB2          0.0000
    47 H22        1.1770   -15.8249    10.2735 H          2 BB2          0.0000
    48 H23        0.1820   -10.7822    10.9496 H          2 BB2          0.0000
    49 H24       -1.2207    -8.8639    10.3094 H          2 BB2          0.0000
    50 H25       -3.1263   -13.4128    10.3050 H          2 BB2          0.0000
@<TRIPOS>BOND
     1      1      2 1
     2      1     13 1
     3      1     14 1
     4      1     15 1
     5      2      3 1
     6      3      4 2
     7      3      5 1
     8      5      6 1
     9      5     10 1
    10      5     16 1
    11      6      7 1
    12      6     17 1
    13      6     18 1
    14      7      8 1
    15      7     12 1
    16      7     19 1
    17      8      9 1
    18      8     20 1
    19      8     21 1
    20      9     10 1
    21      9     22 1
    22      9     23 1
    23     10     11 1
    24     10     24 1
    25     11     12 1
    26     12     25 1
    27     12     26 1
    28     27     28 2
    29     28     29 1
    30     29     30 1
    31     29     34 1
    32     29     43 1
    33     30     31 1
    34     30     44 1
    35     30     45 1
    36     31     32 am
    37     31     35 1
    38     32     33 2
    39     32     34 1
    40     34     46 1
    41     34     47 1
    42     35     36 ar
    43     35     42 ar
    44     36     37 ar
    45     36     48 1
    46     37     38 ar
    47     37     49 1
    48     38     39 1
    49     38     40 ar
    50     40     41 1
    51     40     42 ar
    52     42     50 1
    53     11     28 am
@<TRIPOS>SUBSTRUCTURE
     1 BB1          11
     2 BB2          28
@<TRIPOS>MOLECULE
EN300-251348_i003_EN300-194291_i002_10_16_1
  50   53   2   0   0
SMALL
USER_CHARGES
@<TRIPOS>ATOM
     1 C1        -0.2001   -22.2022    12.4292 C.3        1 BB1          0.0000
     2 O2        -0.4519   -20.7771    12.5487 O.3        1 BB1          0.0000
     3 C3         0.2232   -20.1168    13.5025 C.2        1 BB1          0.0000
     4 O4         1.0277   -20.7019    14.1883 O.2        1 BB1          0.0000
     5 C5        -0.0224   -18.6457    13.7182 C.3        1 BB1          0.0000
     6 C6         0.8602   -18.1415    14.8644 C.3        1 BB1          0.0000
     7 C7         1.8046   -17.0642    14.3207 C.3        1 BB1          0.0000
     8 C8         0.9736   -15.8865    13.8003 C.3        1 BB1          0.0000
     9 C9         0.0804   -16.3820    12.6590 C.3        1 BB1          0.0000
    10 C10        0.3274   -17.8761    12.4428 C.3        1 BB1          0.0000
    11 N11        1.7318   -18.1050    12.0934 N.am       1 BB1          0.0000
    12 C12        2.6198   -17.6494    13.1660 C.3        1 BB1          0.0000
    13 H13       -0.8080   -22.6122    11.6228 H          1 BB1          0.0000
    14 H14        0.8547   -22.3675    12.2094 H          1 BB1          0.0000
    15 H15       -0.4578   -22.6964    13.3659 H          1 BB1          0.0000
    16 H16       -1.0711   -18.4838    13.9672 H          1 BB1          0.0000
    17 H17        0.2336   -17.7165    15.6485 H          1 BB1          0.0000
    18 H18        1.4434   -18.9692    15.2679 H          1 BB1          0.0000
    19 H19        2.4676   -16.7225    15.1156 H          1 BB1          0.0000
    20 H20        0.3533   -15.4927    14.6054 H          1 BB1          0.0000
    21 H21        1.6380   -15.1049    13.4317 H          1 BB1          0.0000
    22 H22       -0.9658   -16.2192    12.9180 H          1 BB1          0.0000
    23 H23        0.3199   -15.8371    11.7459 H          1 BB1          0.0000
    24 H24       -0.3001   -18.2303    11.6248 H          1 BB1          0.0000
    25 H25        3.2931   -16.8858    12.7768 H          1 BB1          0.0000
    26 H26        3.2072   -18.4923    13.5302 H          1 BB1          0.0000
    27 O1         0.3181   -16.2492    12.8568 O.2        2 BB2          0.0000
    28 C2         0.9864   -15.6654    12.0206 C.2        2 BB2          0.0000
    29 C4         0.3162   -15.0305    10.8295 C.3        2 BB2          0.0000
    30 C5        -0.7059   -13.9613    11.2751 C.3        2 BB2          0.0000
    31 N6        -0.6164   -12.8925    10.2732 N.am       2 BB2          0.0000
    32 C7         0.5153   -12.9905     9.5545 C.2        2 BB2          0.0000
    33 O8         0.8423   -12.2317     8.6666 O.2        2 BB2          0.0000
    34 C9         1.3218   -14.1850    10.0143 C.3        2 BB2          0.0000
    35 C10       -1.5851   -11.8982    10.0900 C.ar       2 BB2          0.0000
    36 C11       -1.1994   -10.5761     9.9146 C.ar       2 BB2          0.0000
    37 C12       -2.1559    -9.5957     9.7334 C.ar       2 BB2          0.0000
    38 C13       -3.4988    -9.9298     9.7271 C.ar       2 BB2          0.0000
    39 F14       -4.4322    -8.9694     9.5498 F          2 BB2          0.0000
    40 C15       -3.8874   -11.2498     9.9021 C.ar       2 BB2          0.0000
    41 F16       -5.1988   -11.5745     9.8952 F          2 BB2          0.0000
    42 C17       -2.9323   -12.2343    10.0779 C.ar       2 BB2          0.0000
    43 H18       -0.1577   -15.7858    10.2026 H          2 BB2          0.0000
    44 H19       -1.7111   -14.3826    11.2883 H          2 BB2          0.0000
    45 H20       -0.4442   -13.5770    12.2610 H          2 BB2          0.0000
    46 H21        2.1512   -13.8654    10.6453 H          2 BB2          0.0000
    47 H22        1.6889   -14.7501     9.1575 H          2 BB2          0.0000
    48 H23       -0.1517   -10.3141     9.9201 H          2 BB2          0.0000
    49 H24       -1.8553    -8.5674     9.5970 H          2 BB2          0.0000
    50 H25       -3.2342   -13.2622    10.2142 H          2 BB2          0.0000
@<TRIPOS>BOND
     1      1      2 1
     2      1     13 1
     3      1     14 1
     4      1     15 1
     5      2      3 1
     6      3      4 2
     7      3      5 1
     8      5      6 1
     9      5     10 1
    10      5     16 1
    11      6      7 1
    12      6     17 1
    13      6     18 1
    14      7      8 1
    15      7     12 1
    16      7     19 1
    17      8      9 1
    18      8     20 1
    19      8     21 1
    20      9     10 1
    21      9     22 1
    22      9     23 1
    23     10     11 1
    24     10     24 1
    25     11     12 1
    26     12     25 1
    27     12     26 1
    28     27     28 2
    29     28     29 1
    30     29     30 1
    31     29     34 1
    32     29     43 1
    33     30     31 1
    34     30     44 1
    35     30     45 1
    36     31     32 am
    37     31     35 1
    38     32     33 2
    39     32     34 1
    40     34     46 1
    41     34     47 1
    42     35     36 ar
    43     35     42 ar
    44     36     37 ar
    45     36     48 1
    46     37     38 ar
    47     37     49 1
    48     38     39 1
    49     38     40 ar
    50     40     41 1
    51     40     42 ar
    52     42     50 1
    53     11     28 am
@<TRIPOS>SUBSTRUCTURE
     1 BB1          11
     2 BB2          28
@<TRIPOS>MOLECULE
EN300-251348_i003_EN300-97777_i001_16_3_1
  54   55   2   0   0
SMALL
USER_CHARGES
@<TRIPOS>ATOM
     1 C1         1.2322   -21.8581    14.0185 C.3        1 BB1          0.0000
     2 O2         0.8640   -20.4685    14.2233 O.3        1 BB1          0.0000
     3 C3         0.0441   -19.9153    13.3160 C.2        1 BB1          0.0000
     4 O4        -0.4337   -20.5955    12.4391 O.2        1 BB1          0.0000
     5 C5        -0.2807   -18.4456    13.3909 C.3        1 BB1          0.0000
     6 C6         0.3850   -17.8362    14.6289 C.3        1 BB1          0.0000
     7 C7         1.3708   -16.7545    14.1749 C.3        1 BB1          0.0000
     8 C8         0.5992   -15.6466    13.4499 C.3        1 BB1          0.0000
     9 C9        -0.0780   -16.2475    12.2145 C.3        1 BB1          0.0000
    10 C10        0.2489   -17.7401    12.1408 C.3        1 BB1          0.0000
    11 N11        1.6983   -17.9297    12.0393 N.am       1 BB1          0.0000
    12 C12        2.3830   -17.3729    13.2089 C.3        1 BB1          0.0000
    13 H13        1.8961   -22.1801    14.8207 H          1 BB1          0.0000
    14 H14        0.3341   -22.4759    14.0200 H          1 BB1          0.0000
    15 H15        1.7426   -21.9614    13.0610 H          1 BB1          0.0000
    16 H16       -1.3607   -18.3137    13.4556 H          1 BB1          0.0000
    17 H17       -0.3752   -17.3918    15.2712 H          1 BB1          0.0000
    18 H18        0.9203   -18.6125    15.1755 H          1 BB1          0.0000
    19 H19        1.8829   -16.3376    15.0422 H          1 BB1          0.0000
    20 H20       -0.1572   -15.2318    14.1160 H          1 BB1          0.0000
    21 H21        1.2896   -14.8611    13.1426 H          1 BB1          0.0000
    22 H22       -1.1573   -16.1140    12.2893 H          1 BB1          0.0000
    23 H23        0.2906   -15.7489    11.3180 H          1 BB1          0.0000
    24 H24       -0.2239   -18.1692    11.2573 H          1 BB1          0.0000
    25 H25        3.0862   -16.6062    12.8839 H          1 BB1          0.0000
    26 H26        2.9293   -18.1666    13.7185 H          1 BB1          0.0000
    27 C1        -1.5392   -10.5689    11.7089 C.3        2 BB2          0.0000
    28 C2        -1.5677   -11.2425    10.3355 C.3        2 BB2          0.0000
    29 C3        -2.9433   -11.8711    10.1040 C.3        2 BB2          0.0000
    30 C4        -1.2944   -10.1995     9.2500 C.3        2 BB2          0.0000
    31 O5        -0.5485   -12.2753    10.2818 O.3        2 BB2          0.0000
    32 C6        -0.7051   -13.3319    11.1016 C.2        2 BB2          0.0000
    33 O7        -1.5463   -13.3014    11.9779 O.2        2 BB2          0.0000
    34 N8         0.0712   -14.4232    10.9502 N.am       2 BB2          0.0000
    35 C9         1.0854   -14.4598     9.8936 C.3        2 BB2          0.0000
    36 C10        0.4242   -14.4570     8.5785 C.1        2 BB2          0.0000
    37 C11       -0.1031   -14.4548     7.5296 C.1        2 BB2          0.0000
    38 C12       -0.0992   -15.5728    11.8422 C.3        2 BB2          0.0000
    39 C13        1.0675   -15.6478    12.7932 C.2        2 BB2          0.0000
    40 O14        2.2016   -15.7569    12.3594 O.2        2 BB2          0.0000
    41 H16       -1.7339   -11.3120    12.4821 H          2 BB2          0.0000
    42 H17       -0.5592   -10.1211    11.8737 H          2 BB2          0.0000
    43 H18       -2.3044    -9.7936    11.7492 H          2 BB2          0.0000
    44 H19       -3.7084   -11.0958    10.1443 H          2 BB2          0.0000
    45 H20       -2.9635   -12.3511     9.1256 H          2 BB2          0.0000
    46 H21       -3.1380   -12.6142    10.8774 H          2 BB2          0.0000
    47 H22       -0.3143    -9.7517     9.4149 H          2 BB2          0.0000
    48 H23       -1.3146   -10.6794     8.2715 H          2 BB2          0.0000
    49 H24       -2.0595    -9.4243     9.2903 H          2 BB2          0.0000
    50 H25        1.7298   -13.5849     9.9782 H          2 BB2          0.0000
    51 H26        1.6851   -15.3641     9.9968 H          2 BB2          0.0000
    52 H27       -0.5748   -14.4528     6.5915 H          2 BB2          0.0000
    53 H28       -1.0232   -15.4590    12.4091 H          2 BB2          0.0000
    54 H29       -0.1456   -16.4875    11.2513 H          2 BB2          0.0000
@<TRIPOS>BOND
     1      1      2 1
     2      1     13 1
     3      1     14 1
     4      1     15 1
     5      2      3 1
     6      3      4 2
     7      3      5 1
     8      5      6 1
     9      5     10 1
    10      5     16 1
    11      6      7 1
    12      6     17 1
    13      6     18 1
    14      7      8 1
    15      7     12 1
    16      7     19 1
    17      8      9 1
    18      8     20 1
    19      8     21 1
    20      9     10 1
    21      9     22 1
    22      9     23 1
    23     10     11 1
    24     10     24 1
    25     11     12 1
    26     12     25 1
    27     12     26 1
    28     27     28 1
    29     27     41 1
    30     27     42 1
    31     27     43 1
    32     28     29 1
    33     28     30 1
    34     28     31 1
    35     29     44 1
    36     29     45 1
    37     29     46 1
    38     30     47 1
    39     30     48 1
    40     30     49 1
    41     31     32 1
    42     32     33 2
    43     32     34 am
    44     34     35 1
    45     34     38 1
    46     35     36 1
    47     35     50 1
    48     35     51 1
    49     36     37 3
    50     37     52 1
    51     38     39 1
    52     38     53 1
    53     38     54 1
    54     39     40 2
    55     11     39 am
@<TRIPOS>SUBSTRUCTURE
     1 BB1          11
     2 BB2          39
@<TRIPOS>MOLECULE
EN300-251348_i003_EN300-194291_i002_16_16_1
  50   53   2   0   0
SMALL
USER_CHARGES
@<TRIPOS>ATOM
     1 C1         1.2322   -21.8581    14.0185 C.3        1 BB1          0.0000
     2 O2         0.8640   -20.4685    14.2233 O.3        1 BB1          0.0000
     3 C3         0.0441   -19.9153    13.3160 C.2        1 BB1          0.0000
     4 O4        -0.4337   -20.5955    12.4391 O.2        1 BB1          0.0000
     5 C5        -0.2807   -18.4456    13.3909 C.3        1 BB1          0.0000
     6 C6         0.3850   -17.8362    14.6289 C.3        1 BB1          0.0000
     7 C7         1.3708   -16.7545    14.1749 C.3        1 BB1          0.0000
     8 C8         0.5992   -15.6466    13.4499 C.3        1 BB1          0.0000
     9 C9        -0.0780   -16.2475    12.2145 C.3        1 BB1          0.0000
    10 C10        0.2489   -17.7401    12.1408 C.3        1 BB1          0.0000
    11 N11        1.6983   -17.9297    12.0393 N.am       1 BB1          0.0000
    12 C12        2.3830   -17.3729    13.2089 C.3        1 BB1          0.0000
    13 H13        1.8961   -22.1801    14.8207 H          1 BB1          0.0000
    14 H14        0.3341   -22.4759    14.0200 H          1 BB1          0.0000
    15 H15        1.7426   -21.9614    13.0610 H          1 BB1          0.0000
    16 H16       -1.3607   -18.3137    13.4556 H          1 BB1          0.0000
    17 H17       -0.3752   -17.3918    15.2712 H          1 BB1          0.0000
    18 H18        0.9203   -18.6125    15.1755 H          1 BB1          0.0000
    19 H19        1.8829   -16.3376    15.0422 H          1 BB1          0.0000
    20 H20       -0.1572   -15.2318    14.1160 H          1 BB1          0.0000
    21 H21        1.2896   -14.8611    13.1426 H          1 BB1          0.0000
    22 H22       -1.1573   -16.1140    12.2893 H          1 BB1          0.0000
    23 H23        0.2906   -15.7489    11.3180 H          1 BB1          0.0000
    24 H24       -0.2239   -18.1692    11.2573 H          1 BB1          0.0000
    25 H25        3.0862   -16.6062    12.8839 H          1 BB1          0.0000
    26 H26        2.9293   -18.1666    13.7185 H          1 BB1          0.0000
    27 O1         0.3181   -16.2492    12.8568 O.2        2 BB2          0.0000
    28 C2         0.9864   -15.6654    12.0206 C.2        2 BB2          0.0000
    29 C4         0.3162   -15.0305    10.8295 C.3        2 BB2          0.0000
    30 C5        -0.7059   -13.9613    11.2751 C.3        2 BB2          0.0000
    31 N6        -0.6164   -12.8925    10.2732 N.am       2 BB2          0.0000
    32 C7         0.5153   -12.9905     9.5545 C.2        2 BB2          0.0000
    33 O8         0.8423   -12.2317     8.6666 O.2        2 BB2          0.0000
    34 C9         1.3218   -14.1850    10.0143 C.3        2 BB2          0.0000
    35 C10       -1.5851   -11.8982    10.0900 C.ar       2 BB2          0.0000
    36 C11       -1.1994   -10.5761     9.9146 C.ar       2 BB2          0.0000
    37 C12       -2.1559    -9.5957     9.7334 C.ar       2 BB2          0.0000
    38 C13       -3.4988    -9.9298     9.7271 C.ar       2 BB2          0.0000
    39 F14       -4.4322    -8.9694     9.5498 F          2 BB2          0.0000
    40 C15       -3.8874   -11.2498     9.9021 C.ar       2 BB2          0.0000
    41 F16       -5.1988   -11.5745     9.8952 F          2 BB2          0.0000
    42 C17       -2.9323   -12.2343    10.0779 C.ar       2 BB2          0.0000
    43 H18       -0.1577   -15.7858    10.2026 H          2 BB2          0.0000
    44 H19       -1.7111   -14.3826    11.2883 H          2 BB2          0.0000
    45 H20       -0.4442   -13.5770    12.2610 H          2 BB2          0.0000
    46 H21        2.1512   -13.8654    10.6453 H          2 BB2          0.0000
    47 H22        1.6889   -14.7501     9.1575 H          2 BB2          0.0000
    48 H23       -0.1517   -10.3141     9.9201 H          2 BB2          0.0000
    49 H24       -1.8553    -8.5674     9.5970 H          2 BB2          0.0000
    50 H25       -3.2342   -13.2622    10.2142 H          2 BB2          0.0000
@<TRIPOS>BOND
     1      1      2 1
     2      1     13 1
     3      1     14 1
     4      1     15 1
     5      2      3 1
     6      3      4 2
     7      3      5 1
     8      5      6 1
     9      5     10 1
    10      5     16 1
    11      6      7 1
    12      6     17 1
    13      6     18 1
    14      7      8 1
    15      7     12 1
    16      7     19 1
    17      8      9 1
    18      8     20 1
    19      8     21 1
    20      9     10 1
    21      9     22 1
    22      9     23 1
    23     10     11 1
    24     10     24 1
    25     11     12 1
    26     12     25 1
    27     12     26 1
    28     27     28 2
    29     28     29 1
    30     29     30 1
    31     29     34 1
    32     29     43 1
    33     30     31 1
    34     30     44 1
    35     30     45 1
    36     31     32 am
    37     31     35 1
    38     32     33 2
    39     32     34 1
    40     34     46 1
    41     34     47 1
    42     35     36 ar
    43     35     42 ar
    44     36     37 ar
    45     36     48 1
    46     37     38 ar
    47     37     49 1
    48     38     39 1
    49     38     40 ar
    50     40     41 1
    51     40     42 ar
    52     42     50 1
    53     11     28 am
@<TRIPOS>SUBSTRUCTURE
     1 BB1          11
     2 BB2          28
@<TRIPOS>MOLECULE
EN300-251348_i003_EN300-1198129_i001_18_9_1
  50   52   2   0   0
SMALL
USER_CHARGES
@<TRIPOS>ATOM
     1 C1        -0.1006   -15.5307    13.5568 C.3        1 BB1          0.0000
     2 O2         0.5758   -16.8153    13.5305 O.3        1 BB1          0.0000
     3 C3        -0.0344   -17.8381    14.1494 C.2        1 BB1          0.0000
     4 O4        -0.8540   -17.6210    15.0102 O.2        1 BB1          0.0000
     5 C5         0.3027   -19.2572    13.7706 C.3        1 BB1          0.0000
     6 C6        -0.9583   -19.9665    13.2671 C.3        1 BB1          0.0000
     7 C7        -0.7338   -20.3959    11.8133 C.3        1 BB1          0.0000
     8 C8         0.4308   -21.3904    11.7594 C.3        1 BB1          0.0000
     9 C9         1.6958   -20.6935    12.2696 C.3        1 BB1          0.0000
    10 C10        1.3523   -19.2542    12.6573 C.3        1 BB1          0.0000
    11 N11        0.8379   -18.5317    11.4910 N.am       1 BB1          0.0000
    12 C12       -0.3790   -19.1652    10.9768 C.3        1 BB1          0.0000
    13 H13        0.4984   -14.7936    13.0220 H          1 BB1          0.0000
    14 H14       -1.0753   -15.6235    13.0777 H          1 BB1          0.0000
    15 H15       -0.2327   -15.2107    14.5903 H          1 BB1          0.0000
    16 H16        0.6942   -19.7837    14.6410 H          1 BB1          0.0000
    17 H17       -1.1536   -20.8452    13.8818 H          1 BB1          0.0000
    18 H18       -1.8070   -19.2847    13.3199 H          1 BB1          0.0000
    19 H19       -1.6371   -20.8675    11.4264 H          1 BB1          0.0000
    20 H20        0.2070   -22.2501    12.3911 H          1 BB1          0.0000
    21 H21        0.5838   -21.7190    10.7314 H          1 BB1          0.0000
    22 H22        2.0781   -21.2246    13.1414 H          1 BB1          0.0000
    23 H23        2.4514   -20.6890    11.4840 H          1 BB1          0.0000
    24 H24        2.2525   -18.7522    13.0122 H          1 BB1          0.0000
    25 H25       -0.2188   -19.4668     9.9417 H          1 BB1          0.0000
    26 H26       -1.2020   -18.4517    11.0181 H          1 BB1          0.0000
    27 C2        -0.3298   -16.2651    12.1501 C.2        2 BB2          0.0000
    28 O3        -0.7790   -17.3577    12.4674 O.2        2 BB2          0.0000
    29 C4        -0.2777   -15.8739    10.7304 C.ar       2 BB2          0.0000
    30 C5        -0.0559   -14.5399    10.3768 C.ar       2 BB2          0.0000
    31 C6        -0.0084   -14.1812     9.0467 C.ar       2 BB2          0.0000
    32 C7        -0.1800   -15.1375     8.0601 C.ar       2 BB2          0.0000
    33 C8        -0.4001   -16.4597     8.3988 C.ar       2 BB2          0.0000
    34 C9        -0.4444   -16.8374     9.7282 C.ar       2 BB2          0.0000
    35 F10       -0.6594   -18.1295    10.0590 F          2 BB2          0.0000
    36 S11        0.2712   -12.4998     8.6004 S.o2       2 BB2          0.0000
    37 O12        1.1192   -12.0014     9.6259 O.2        2 BB2          0.0000
    38 O13        0.7129   -12.5641     7.2513 O.2        2 BB2          0.0000
    39 C14       -1.3671   -11.7273     8.6976 C.3        2 BB2          0.0000
    40 C15       -1.8344   -11.7042    10.1543 C.3        2 BB2          0.0000
    41 C16       -3.1653   -11.0801    10.2329 C.1        2 BB2          0.0000
    42 C17       -4.2268   -10.5825    10.2955 C.1        2 BB2          0.0000
    43 H18        0.0778   -13.7917    11.1441 H          2 BB2          0.0000
    44 H19       -0.1423   -14.8487     7.0201 H          2 BB2          0.0000
    45 H20       -0.5331   -17.1996     7.6236 H          2 BB2          0.0000
    46 H21       -1.3110   -10.7072     8.3179 H          2 BB2          0.0000
    47 H22       -2.0750   -12.2997     8.0981 H          2 BB2          0.0000
    48 H23       -1.8885   -12.7242    10.5348 H          2 BB2          0.0000
    49 H24       -1.1279   -11.1298    10.7535 H          2 BB2          0.0000
    50 H25       -5.1762   -10.1374    10.3514 H          2 BB2          0.0000
@<TRIPOS>BOND
     1      1      2 1
     2      1     13 1
     3      1     14 1
     4      1     15 1
     5      2      3 1
     6      3      4 2
     7      3      5 1
     8      5      6 1
     9      5     10 1
    10      5     16 1
    11      6      7 1
    12      6     17 1
    13      6     18 1
    14      7      8 1
    15      7     12 1
    16      7     19 1
    17      8      9 1
    18      8     20 1
    19      8     21 1
    20      9     10 1
    21      9     22 1
    22      9     23 1
    23     10     11 1
    24     10     24 1
    25     11     12 1
    26     12     25 1
    27     12     26 1
    28     27     28 2
    29     27     29 1
    30     29     30 ar
    31     29     34 ar
    32     30     31 ar
    33     30     43 1
    34     31     32 ar
    35     31     36 1
    36     32     33 ar
    37     32     44 1
    38     33     34 ar
    39     33     45 1
    40     34     35 1
    41     36     37 2
    42     36     38 2
    43     36     39 1
    44     39     40 1
    45     39     46 1
    46     39     47 1
    47     40     41 1
    48     40     48 1
    49     40     49 1
    50     41     42 3
    51     42     50 1
    52     11     27 am
@<TRIPOS>SUBSTRUCTURE
     1 BB1          11
     2 BB2          27
@<TRIPOS>MOLECULE
EN300-251348_i003_EN300-315786_i001_18_20_1
  54   57   2   0   0
SMALL
USER_CHARGES
@<TRIPOS>ATOM
     1 C1        -0.1006   -15.5307    13.5568 C.3        1 BB1          0.0000
     2 O2         0.5758   -16.8153    13.5305 O.3        1 BB1          0.0000
     3 C3        -0.0344   -17.8381    14.1494 C.2        1 BB1          0.0000
     4 O4        -0.8540   -17.6210    15.0102 O.2        1 BB1          0.0000
     5 C5         0.3027   -19.2572    13.7706 C.3        1 BB1          0.0000
     6 C6        -0.9583   -19.9665    13.2671 C.3        1 BB1          0.0000
     7 C7        -0.7338   -20.3959    11.8133 C.3        1 BB1          0.0000
     8 C8         0.4308   -21.3904    11.7594 C.3        1 BB1          0.0000
     9 C9         1.6958   -20.6935    12.2696 C.3        1 BB1          0.0000
    10 C10        1.3523   -19.2542    12.6573 C.3        1 BB1          0.0000
    11 N11        0.8379   -18.5317    11.4910 N.am       1 BB1          0.0000
    12 C12       -0.3790   -19.1652    10.9768 C.3        1 BB1          0.0000
    13 H13        0.4984   -14.7936    13.0220 H          1 BB1          0.0000
    14 H14       -1.0753   -15.6235    13.0777 H          1 BB1          0.0000
    15 H15       -0.2327   -15.2107    14.5903 H          1 BB1          0.0000
    16 H16        0.6942   -19.7837    14.6410 H          1 BB1          0.0000
    17 H17       -1.1536   -20.8452    13.8818 H          1 BB1          0.0000
    18 H18       -1.8070   -19.2847    13.3199 H          1 BB1          0.0000
    19 H19       -1.6371   -20.8675    11.4264 H          1 BB1          0.0000
    20 H20        0.2070   -22.2501    12.3911 H          1 BB1          0.0000
    21 H21        0.5838   -21.7190    10.7314 H          1 BB1          0.0000
    22 H22        2.0781   -21.2246    13.1414 H          1 BB1          0.0000
    23 H23        2.4514   -20.6890    11.4840 H          1 BB1          0.0000
    24 H24        2.2525   -18.7522    13.0122 H          1 BB1          0.0000
    25 H25       -0.2188   -19.4668     9.9417 H          1 BB1          0.0000
    26 H26       -1.2020   -18.4517    11.0181 H          1 BB1          0.0000
    27 C2        -0.5377   -17.8247    11.2208 C.2        2 BB2          0.0000
    28 O3        -0.3032   -18.6368    10.3375 O.2        2 BB2          0.0000
    29 C4        -0.4243   -16.3776    10.9432 C.ar       2 BB2          0.0000
    30 C5        -0.2026   -15.9318     9.6383 C.ar       2 BB2          0.0000
    31 C6        -0.0970   -14.5821     9.3802 C.ar       2 BB2          0.0000
    32 C7        -0.2115   -13.6610    10.4221 C.ar       2 BB2          0.0000
    33 C8        -0.4330   -14.1058    11.7261 C.ar       2 BB2          0.0000
    34 C9        -0.5446   -15.4549    11.9848 C.ar       2 BB2          0.0000
    35 C10       -0.0973   -12.2109    10.1440 C.2        2 BB2          0.0000
    36 O11        0.9278   -11.7619     9.6706 O.2        2 BB2          0.0000
    37 N12       -1.1304   -11.3892    10.4159 N.am       2 BB2          0.0000
    38 C13       -1.0720    -9.9596    10.0720 C.3        2 BB2          0.0000
    39 C14       -2.3448    -9.5960     9.2988 C.3        2 BB2          0.0000
    40 O15       -3.4870   -10.0234    10.0447 O.3        2 BB2          0.0000
    41 C16       -3.5607   -11.4373    10.2434 C.3        2 BB2          0.0000
    42 C17       -2.3525   -11.8963    11.0600 C.3        2 BB2          0.0000
    43 H18       -0.1136   -16.6445     8.8319 H          2 BB2          0.0000
    44 H19        0.0749   -14.2372     8.3712 H          2 BB2          0.0000
    45 H20       -0.5212   -13.3924    12.5321 H          2 BB2          0.0000
    46 H21       -0.7164   -15.7990    12.9940 H          2 BB2          0.0000
    47 H22       -1.0137    -9.3648    10.9836 H          2 BB2          0.0000
    48 H23       -0.1974    -9.7669     9.4509 H          2 BB2          0.0000
    49 H24       -2.3873    -8.5164     9.1546 H          2 BB2          0.0000
    50 H25       -2.3362   -10.0935     8.3290 H          2 BB2          0.0000
    51 H26       -4.4778   -11.6824    10.7789 H          2 BB2          0.0000
    52 H27       -3.5565   -11.9414     9.2771 H          2 BB2          0.0000
    53 H28       -2.3256   -12.9854    11.0954 H          2 BB2          0.0000
    54 H29       -2.4202   -11.4971    12.0720 H          2 BB2          0.0000
@<TRIPOS>BOND
     1      1      2 1
     2      1     13 1
     3      1     14 1
     4      1     15 1
     5      2      3 1
     6      3      4 2
     7      3      5 1
     8      5      6 1
     9      5     10 1
    10      5     16 1
    11      6      7 1
    12      6     17 1
    13      6     18 1
    14      7      8 1
    15      7     12 1
    16      7     19 1
    17      8      9 1
    18      8     20 1
    19      8     21 1
    20      9     10 1
    21      9     22 1
    22      9     23 1
    23     10     11 1
    24     10     24 1
    25     11     12 1
    26     12     25 1
    27     12     26 1
    28     27     28 2
    29     27     29 1
    30     29     30 ar
    31     29     34 ar
    32     30     31 ar
    33     30     43 1
    34     31     32 ar
    35     31     44 1
    36     32     33 ar
    37     32     35 1
    38     33     34 ar
    39     33     45 1
    40     34     46 1
    41     35     36 2
    42     35     37 am
    43     37     38 1
    44     37     42 1
    45     38     39 1
    46     38     47 1
    47     38     48 1
    48     39     40 1
    49     39     49 1
    50     39     50 1
    51     40     41 1
    52     41     42 1
    53     41     51 1
    54     41     52 1
    55     42     53 1
    56     42     54 1
    57     11     27 am
@<TRIPOS>SUBSTRUCTURE
     1 BB1          11
     2 BB2          27
@<TRIPOS>MOLECULE
EN300-251348_i003_EN300-194291_i002_18_10_1
  50   53   2   0   0
SMALL
USER_CHARGES
@<TRIPOS>ATOM
     1 C1        -0.1006   -15.5307    13.5568 C.3        1 BB1          0.0000
     2 O2         0.5758   -16.8153    13.5305 O.3        1 BB1          0.0000
     3 C3        -0.0344   -17.8381    14.1494 C.2        1 BB1          0.0000
     4 O4        -0.8540   -17.6210    15.0102 O.2        1 BB1          0.0000
     5 C5         0.3027   -19.2572    13.7706 C.3        1 BB1          0.0000
     6 C6        -0.9583   -19.9665    13.2671 C.3        1 BB1          0.0000
     7 C7        -0.7338   -20.3959    11.8133 C.3        1 BB1          0.0000
     8 C8         0.4308   -21.3904    11.7594 C.3        1 BB1          0.0000
     9 C9         1.6958   -20.6935    12.2696 C.3        1 BB1          0.0000
    10 C10        1.3523   -19.2542    12.6573 C.3        1 BB1          0.0000
    11 N11        0.8379   -18.5317    11.4910 N.am       1 BB1          0.0000
    12 C12       -0.3790   -19.1652    10.9768 C.3        1 BB1          0.0000
    13 H13        0.4984   -14.7936    13.0220 H          1 BB1          0.0000
    14 H14       -1.0753   -15.6235    13.0777 H          1 BB1          0.0000
    15 H15       -0.2327   -15.2107    14.5903 H          1 BB1          0.0000
    16 H16        0.6942   -19.7837    14.6410 H          1 BB1          0.0000
    17 H17       -1.1536   -20.8452    13.8818 H          1 BB1          0.0000
    18 H18       -1.8070   -19.2847    13.3199 H          1 BB1          0.0000
    19 H19       -1.6371   -20.8675    11.4264 H          1 BB1          0.0000
    20 H20        0.2070   -22.2501    12.3911 H          1 BB1          0.0000
    21 H21        0.5838   -21.7190    10.7314 H          1 BB1          0.0000
    22 H22        2.0781   -21.2246    13.1414 H          1 BB1          0.0000
    23 H23        2.4514   -20.6890    11.4840 H          1 BB1          0.0000
    24 H24        2.2525   -18.7522    13.0122 H          1 BB1          0.0000
    25 H25       -0.2188   -19.4668     9.9417 H          1 BB1          0.0000
    26 H26       -1.2020   -18.4517    11.0181 H          1 BB1          0.0000
    27 C2         0.4763   -16.8160    13.3767 C.2        2 BB2          0.0000
    28 O3        -0.5063   -17.4774    13.0874 O.2        2 BB2          0.0000
    29 C4         0.6440   -15.4290    12.8118 C.3        2 BB2          0.0000
    30 C5         0.9682   -15.4824    11.3024 C.3        2 BB2          0.0000
    31 N6         0.2732   -14.3325    10.7117 N.am       2 BB2          0.0000
    32 C7        -0.6722   -13.8555    11.5396 C.2        2 BB2          0.0000
    33 O8        -1.3983   -12.9149    11.2964 O.2        2 BB2          0.0000
    34 C9        -0.6989   -14.6625    12.8189 C.3        2 BB2          0.0000
    35 C10        0.5580   -13.8011     9.4479 C.ar       2 BB2          0.0000
    36 C11        1.0908   -14.6136     8.4564 C.ar       2 BB2          0.0000
    37 C12        1.3712   -14.0886     7.2095 C.ar       2 BB2          0.0000
    38 C13        1.1219   -12.7527     6.9476 C.ar       2 BB2          0.0000
    39 F14        1.3968   -12.2416     5.7277 F          2 BB2          0.0000
    40 C15        0.5896   -11.9383     7.9363 C.ar       2 BB2          0.0000
    41 F16        0.3463   -10.6345     7.6789 F          2 BB2          0.0000
    42 C17        0.3026   -12.4621     9.1834 C.ar       2 BB2          0.0000
    43 H18        1.4110   -14.8784    13.3564 H          2 BB2          0.0000
    44 H19        2.0432   -15.3953    11.1442 H          2 BB2          0.0000
    45 H20        0.5965   -16.4110    10.8693 H          2 BB2          0.0000
    46 H21       -1.5364   -15.3602    12.8125 H          2 BB2          0.0000
    47 H22       -0.7572   -14.0031    13.6849 H          2 BB2          0.0000
    48 H23        1.2865   -15.6561     8.6598 H          2 BB2          0.0000
    49 H24        1.7856   -14.7212     6.4385 H          2 BB2          0.0000
    50 H25       -0.1119   -11.8285     9.9536 H          2 BB2          0.0000
@<TRIPOS>BOND
     1      1      2 1
     2      1     13 1
     3      1     14 1
     4      1     15 1
     5      2      3 1
     6      3      4 2
     7      3      5 1
     8      5      6 1
     9      5     10 1
    10      5     16 1
    11      6      7 1
    12      6     17 1
    13      6     18 1
    14      7      8 1
    15      7     12 1
    16      7     19 1
    17      8      9 1
    18      8     20 1
    19      8     21 1
    20      9     10 1
    21      9     22 1
    22      9     23 1
    23     10     11 1
    24     10     24 1
    25     11     12 1
    26     12     25 1
    27     12     26 1
    28     27     28 2
    29     27     29 1
    30     29     30 1
    31     29     34 1
    32     29     43 1
    33     30     31 1
    34     30     44 1
    35     30     45 1
    36     31     32 am
    37     31     35 1
    38     32     33 2
    39     32     34 1
    40     34     46 1
    41     34     47 1
    42     35     36 ar
    43     35     42 ar
    44     36     37 ar
    45     36     48 1
    46     37     38 ar
    47     37     49 1
    48     38     39 1
    49     38     40 ar
    50     40     41 1
    51     40     42 ar
    52     42     50 1
    53     11     27 am
@<TRIPOS>SUBSTRUCTURE
     1 BB1          11
     2 BB2          27
@<TRIPOS>MOLECULE
EN300-251348_i003_EN300-194291_i002_18_16_1
  50   53   2   0   0
SMALL
USER_CHARGES
@<TRIPOS>ATOM
     1 C1        -0.1006   -15.5307    13.5568 C.3        1 BB1          0.0000
     2 O2         0.5758   -16.8153    13.5305 O.3        1 BB1          0.0000
     3 C3        -0.0344   -17.8381    14.1494 C.2        1 BB1          0.0000
     4 O4        -0.8540   -17.6210    15.0102 O.2        1 BB1          0.0000
     5 C5         0.3027   -19.2572    13.7706 C.3        1 BB1          0.0000
     6 C6        -0.9583   -19.9665    13.2671 C.3        1 BB1          0.0000
     7 C7        -0.7338   -20.3959    11.8133 C.3        1 BB1          0.0000
     8 C8         0.4308   -21.3904    11.7594 C.3        1 BB1          0.0000
     9 C9         1.6958   -20.6935    12.2696 C.3        1 BB1          0.0000
    10 C10        1.3523   -19.2542    12.6573 C.3        1 BB1          0.0000
    11 N11        0.8379   -18.5317    11.4910 N.am       1 BB1          0.0000
    12 C12       -0.3790   -19.1652    10.9768 C.3        1 BB1          0.0000
    13 H13        0.4984   -14.7936    13.0220 H          1 BB1          0.0000
    14 H14       -1.0753   -15.6235    13.0777 H          1 BB1          0.0000
    15 H15       -0.2327   -15.2107    14.5903 H          1 BB1          0.0000
    16 H16        0.6942   -19.7837    14.6410 H          1 BB1          0.0000
    17 H17       -1.1536   -20.8452    13.8818 H          1 BB1          0.0000
    18 H18       -1.8070   -19.2847    13.3199 H          1 BB1          0.0000
    19 H19       -1.6371   -20.8675    11.4264 H          1 BB1          0.0000
    20 H20        0.2070   -22.2501    12.3911 H          1 BB1          0.0000
    21 H21        0.5838   -21.7190    10.7314 H          1 BB1          0.0000
    22 H22        2.0781   -21.2246    13.1414 H          1 BB1          0.0000
    23 H23        2.4514   -20.6890    11.4840 H          1 BB1          0.0000
    24 H24        2.2525   -18.7522    13.0122 H          1 BB1          0.0000
    25 H25       -0.2188   -19.4668     9.9417 H          1 BB1          0.0000
    26 H26       -1.2020   -18.4517    11.0181 H          1 BB1          0.0000
    27 O1         0.3181   -16.2492    12.8568 O.2        2 BB2          0.0000
    28 C2         0.9864   -15.6654    12.0206 C.2        2 BB2          0.0000
    29 C4         0.3162   -15.0305    10.8295 C.3        2 BB2          0.0000
    30 C5        -0.7059   -13.9613    11.2751 C.3        2 BB2          0.0000
    31 N6        -0.6164   -12.8925    10.2732 N.am       2 BB2          0.0000
    32 C7         0.5153   -12.9905     9.5545 C.2        2 BB2          0.0000
    33 O8         0.8423   -12.2317     8.6666 O.2        2 BB2          0.0000
    34 C9         1.3218   -14.1850    10.0143 C.3        2 BB2          0.0000
    35 C10       -1.5851   -11.8982    10.0900 C.ar       2 BB2          0.0000
    36 C11       -1.1994   -10.5761     9.9146 C.ar       2 BB2          0.0000
    37 C12       -2.1559    -9.5957     9.7334 C.ar       2 BB2          0.0000
    38 C13       -3.4988    -9.9298     9.7271 C.ar       2 BB2          0.0000
    39 F14       -4.4322    -8.9694     9.5498 F          2 BB2          0.0000
    40 C15       -3.8874   -11.2498     9.9021 C.ar       2 BB2          0.0000
    41 F16       -5.1988   -11.5745     9.8952 F          2 BB2          0.0000
    42 C17       -2.9323   -12.2343    10.0779 C.ar       2 BB2          0.0000
    43 H18       -0.1577   -15.7858    10.2026 H          2 BB2          0.0000
    44 H19       -1.7111   -14.3826    11.2883 H          2 BB2          0.0000
    45 H20       -0.4442   -13.5770    12.2610 H          2 BB2          0.0000
    46 H21        2.1512   -13.8654    10.6453 H          2 BB2          0.0000
    47 H22        1.6889   -14.7501     9.1575 H          2 BB2          0.0000
    48 H23       -0.1517   -10.3141     9.9201 H          2 BB2          0.0000
    49 H24       -1.8553    -8.5674     9.5970 H          2 BB2          0.0000
    50 H25       -3.2342   -13.2622    10.2142 H          2 BB2          0.0000
@<TRIPOS>BOND
     1      1      2 1
     2      1     13 1
     3      1     14 1
     4      1     15 1
     5      2      3 1
     6      3      4 2
     7      3      5 1
     8      5      6 1
     9      5     10 1
    10      5     16 1
    11      6      7 1
    12      6     17 1
    13      6     18 1
    14      7      8 1
    15      7     12 1
    16      7     19 1
    17      8      9 1
    18      8     20 1
    19      8     21 1
    20      9     10 1
    21      9     22 1
    22      9     23 1
    23     10     11 1
    24     10     24 1
    25     11     12 1
    26     12     25 1
    27     12     26 1
    28     27     28 2
    29     28     29 1
    30     29     30 1
    31     29     34 1
    32     29     43 1
    33     30     31 1
    34     30     44 1
    35     30     45 1
    36     31     32 am
    37     31     35 1
    38     32     33 2
    39     32     34 1
    40     34     46 1
    41     34     47 1
    42     35     36 ar
    43     35     42 ar
    44     36     37 ar
    45     36     48 1
    46     37     38 ar
    47     37     49 1
    48     38     39 1
    49     38     40 ar
    50     40     41 1
    51     40     42 ar
    52     42     50 1
    53     11     28 am
@<TRIPOS>SUBSTRUCTURE
     1 BB1          11
     2 BB2          28
@<TRIPOS>MOLECULE
EN300-251348_i003_EN300-222254_i002_2_4_1
  49   52   2   0   0
SMALL
USER_CHARGES
@<TRIPOS>ATOM
     1 C1        -0.7004   -18.5951     8.5564 C.3        1 BB1          0.0000
     2 O2        -0.7350   -17.8674     9.8124 O.3        1 BB1          0.0000
     3 C3        -0.3011   -18.5159    10.9046 C.2        1 BB1          0.0000
     4 O4         0.2001   -19.6101    10.7982 O.2        1 BB1          0.0000
     5 C5        -0.4390   -17.8791    12.2635 C.3        1 BB1          0.0000
     6 C6         0.1943   -18.7878    13.3218 C.3        1 BB1          0.0000
     7 C7         1.3455   -18.0320    13.9938 C.3        1 BB1          0.0000
     8 C8         0.7860   -16.7915    14.6983 C.3        1 BB1          0.0000
     9 C9         0.1421   -15.8796    13.6495 C.3        1 BB1          0.0000
    10 C10        0.2791   -16.5281    12.2708 C.3        1 BB1          0.0000
    11 N11        1.6954   -16.7161    11.9456 N.am       1 BB1          0.0000
    12 C12        2.3464   -17.5905    12.9245 C.3        1 BB1          0.0000
    13 H13       -1.0771   -17.9575     7.7566 H          1 BB1          0.0000
    14 H14        0.3258   -18.8883     8.3346 H          1 BB1          0.0000
    15 H15       -1.3238   -19.4857     8.6352 H          1 BB1          0.0000
    16 H16       -1.4946   -17.7335    12.4924 H          1 BB1          0.0000
    17 H17       -0.5531   -19.0549    14.0689 H          1 BB1          0.0000
    18 H18        0.5779   -19.6905    12.8463 H          1 BB1          0.0000
    19 H19        1.8331   -18.6792    14.7228 H          1 BB1          0.0000
    20 H20        0.0365   -17.0934    15.4298 H          1 BB1          0.0000
    21 H21        1.5949   -16.2590    15.1985 H          1 BB1          0.0000
    22 H22       -0.9134   -15.7424    13.8845 H          1 BB1          0.0000
    23 H23        0.6451   -14.9126    13.6491 H          1 BB1          0.0000
    24 H24       -0.1699   -15.8773    11.5205 H          1 BB1          0.0000
    25 H25        3.1671   -17.0526    13.3990 H          1 BB1          0.0000
    26 H26        2.7417   -18.4698    12.4158 H          1 BB1          0.0000
    27 C2         0.8004   -14.8911    10.7774 C.2        2 BB2          0.0000
    28 O3         0.0117   -15.5813    11.4007 O.2        2 BB2          0.0000
    29 C4         0.3644   -14.2102     9.5059 C.3        2 BB2          0.0000
    30 C5         1.4242   -14.2481     8.3921 C.3        2 BB2          0.0000
    31 C6         1.0198   -12.8008     8.0660 C.3        2 BB2          0.0000
    32 C7         0.5555   -12.6843     9.5274 C.3        2 BB2          0.0000
    33 C8        -0.7309   -11.9171     9.6928 C.ar       2 BB2          0.0000
    34 C9        -1.9103   -12.4281     9.1855 C.ar       2 BB2          0.0000
    35 C10       -3.0908   -11.7247     9.3363 C.ar       2 BB2          0.0000
    36 C11       -3.0929   -10.5086     9.9959 C.ar       2 BB2          0.0000
    37 Cl12      -4.5761    -9.6265    10.1853 Cl         2 BB2          0.0000
    38 C13       -1.9132    -9.9958    10.5049 C.ar       2 BB2          0.0000
    39 C14       -0.7321   -10.7026    10.3583 C.ar       2 BB2          0.0000
    40 F15        0.4206   -10.2031    10.8554 F          2 BB2          0.0000
    41 H16       -0.6264   -14.5228     9.1765 H          2 BB2          0.0000
    42 H17        2.4446   -14.3433     8.7634 H          2 BB2          0.0000
    43 H18        1.1950   -14.9556     7.5952 H          2 BB2          0.0000
    44 H19        1.8642   -12.1556     7.8234 H          2 BB2          0.0000
    45 H20        0.2078   -12.7268     7.3427 H          2 BB2          0.0000
    46 H21        1.3384   -12.3520    10.2091 H          2 BB2          0.0000
    47 H22       -1.9097   -13.3774     8.6703 H          2 BB2          0.0000
    48 H23       -4.0119   -12.1247     8.9388 H          2 BB2          0.0000
    49 H24       -1.9145    -9.0466    11.0198 H          2 BB2          0.0000
@<TRIPOS>BOND
     1      1      2 1
     2      1     13 1
     3      1     14 1
     4      1     15 1
     5      2      3 1
     6      3      4 2
     7      3      5 1
     8      5      6 1
     9      5     10 1
    10      5     16 1
    11      6      7 1
    12      6     17 1
    13      6     18 1
    14      7      8 1
    15      7     12 1
    16      7     19 1
    17      8      9 1
    18      8     20 1
    19      8     21 1
    20      9     10 1
    21      9     22 1
    22      9     23 1
    23     10     11 1
    24     10     24 1
    25     11     12 1
    26     12     25 1
    27     12     26 1
    28     27     28 2
    29     27     29 1
    30     29     30 1
    31     29     32 1
    32     29     41 1
    33     30     31 1
    34     30     42 1
    35     30     43 1
    36     31     32 1
    37     31     44 1
    38     31     45 1
    39     32     33 1
    40     32     46 1
    41     33     34 ar
    42     33     39 ar
    43     34     35 ar
    44     34     47 1
    45     35     36 ar
    46     35     48 1
    47     36     37 1
    48     36     38 ar
    49     38     39 ar
    50     38     49 1
    51     39     40 1
    52     11     27 am
@<TRIPOS>SUBSTRUCTURE
     1 BB1          11
     2 BB2          27
@<TRIPOS>MOLECULE
EN300-251348_i003_EN300-306118_i001_2_2_1
  48   51   2   0   0
SMALL
USER_CHARGES
@<TRIPOS>ATOM
     1 C1        -0.7004   -18.5951     8.5564 C.3        1 BB1          0.0000
     2 O2        -0.7350   -17.8674     9.8124 O.3        1 BB1          0.0000
     3 C3        -0.3011   -18.5159    10.9046 C.2        1 BB1          0.0000
     4 O4         0.2001   -19.6101    10.7982 O.2        1 BB1          0.0000
     5 C5        -0.4390   -17.8791    12.2635 C.3        1 BB1          0.0000
     6 C6         0.1943   -18.7878    13.3218 C.3        1 BB1          0.0000
     7 C7         1.3455   -18.0320    13.9938 C.3        1 BB1          0.0000
     8 C8         0.7860   -16.7915    14.6983 C.3        1 BB1          0.0000
     9 C9         0.1421   -15.8796    13.6495 C.3        1 BB1          0.0000
    10 C10        0.2791   -16.5281    12.2708 C.3        1 BB1          0.0000
    11 N11        1.6954   -16.7161    11.9456 N.am       1 BB1          0.0000
    12 C12        2.3464   -17.5905    12.9245 C.3        1 BB1          0.0000
    13 H13       -1.0771   -17.9575     7.7566 H          1 BB1          0.0000
    14 H14        0.3258   -18.8883     8.3346 H          1 BB1          0.0000
    15 H15       -1.3238   -19.4857     8.6352 H          1 BB1          0.0000
    16 H16       -1.4946   -17.7335    12.4924 H          1 BB1          0.0000
    17 H17       -0.5531   -19.0549    14.0689 H          1 BB1          0.0000
    18 H18        0.5779   -19.6905    12.8463 H          1 BB1          0.0000
    19 H19        1.8331   -18.6792    14.7228 H          1 BB1          0.0000
    20 H20        0.0365   -17.0934    15.4298 H          1 BB1          0.0000
    21 H21        1.5949   -16.2590    15.1985 H          1 BB1          0.0000
    22 H22       -0.9134   -15.7424    13.8845 H          1 BB1          0.0000
    23 H23        0.6451   -14.9126    13.6491 H          1 BB1          0.0000
    24 H24       -0.1699   -15.8773    11.5205 H          1 BB1          0.0000
    25 H25        3.1671   -17.0526    13.3990 H          1 BB1          0.0000
    26 H26        2.7417   -18.4698    12.4158 H          1 BB1          0.0000
    27 C2         0.6326   -14.8679    11.1794 C.2        2 BB2          0.0000
    28 O3         1.7065   -15.2466    11.6254 O.2        2 BB2          0.0000
    29 C4         0.5817   -14.1401     9.8971 C.ar       2 BB2          0.0000
    30 C5         1.3893   -14.5408     8.8300 C.ar       2 BB2          0.0000
    31 C6         1.3364   -13.8555     7.6340 C.ar       2 BB2          0.0000
    32 C7         0.4864   -12.7733     7.4900 C.ar       2 BB2          0.0000
    33 C8        -0.3166   -12.3706     8.5429 C.ar       2 BB2          0.0000
    34 C9        -0.2789   -13.0501     9.7423 C.ar       2 BB2          0.0000
    35 C10       -1.1546   -12.6104    10.8873 C.3        2 BB2          0.0000
    36 N11       -2.0673   -11.5601    10.4288 N.pl3      2 BB2          0.0000
    37 C12       -1.7295   -10.2775    10.1613 C.2        2 BB2          0.0000
    38 C13       -2.8693    -9.6610     9.7705 C.2        2 BB2          0.0000
    39 N14       -3.8360   -10.5845     9.8175 N.2        2 BB2          0.0000
    40 N15       -3.3272   -11.7003    10.2060 N.2        2 BB2          0.0000
    41 H16        2.0538   -15.3849     8.9414 H          2 BB2          0.0000
    42 H17        1.9603   -14.1641     6.8083 H          2 BB2          0.0000
    43 H18        0.4497   -12.2400     6.5515 H          2 BB2          0.0000
    44 H19       -0.9775   -11.5248     8.4234 H          2 BB2          0.0000
    45 H20       -1.7320   -13.4605    11.2504 H          2 BB2          0.0000
    46 H21       -0.5313   -12.2235    11.6935 H          2 BB2          0.0000
    47 H22       -0.7479    -9.8347    10.2433 H          2 BB2          0.0000
    48 H23       -2.9773    -8.6269     9.4786 H          2 BB2          0.0000
@<TRIPOS>BOND
     1      1      2 1
     2      1     13 1
     3      1     14 1
     4      1     15 1
     5      2      3 1
     6      3      4 2
     7      3      5 1
     8      5      6 1
     9      5     10 1
    10      5     16 1
    11      6      7 1
    12      6     17 1
    13      6     18 1
    14      7      8 1
    15      7     12 1
    16      7     19 1
    17      8      9 1
    18      8     20 1
    19      8     21 1
    20      9     10 1
    21      9     22 1
    22      9     23 1
    23     10     11 1
    24     10     24 1
    25     11     12 1
    26     12     25 1
    27     12     26 1
    28     27     28 2
    29     27     29 1
    30     29     30 ar
    31     29     34 ar
    32     30     31 ar
    33     30     41 1
    34     31     32 ar
    35     31     42 1
    36     32     33 ar
    37     32     43 1
    38     33     34 ar
    39     33     44 1
    40     34     35 1
    41     35     36 1
    42     35     45 1
    43     35     46 1
    44     36     37 1
    45     36     40 1
    46     37     38 2
    47     37     47 1
    48     38     39 1
    49     38     48 1
    50     39     40 2
    51     11     27 am
@<TRIPOS>SUBSTRUCTURE
     1 BB1          11
     2 BB2          27
@<TRIPOS>MOLECULE
EN300-251348_i003_EN300-306118_i001_2_4_1
  48   51   2   0   0
SMALL
USER_CHARGES
@<TRIPOS>ATOM
     1 C1        -0.7004   -18.5951     8.5564 C.3        1 BB1          0.0000
     2 O2        -0.7350   -17.8674     9.8124 O.3        1 BB1          0.0000
     3 C3        -0.3011   -18.5159    10.9046 C.2        1 BB1          0.0000
     4 O4         0.2001   -19.6101    10.7982 O.2        1 BB1          0.0000
     5 C5        -0.4390   -17.8791    12.2635 C.3        1 BB1          0.0000
     6 C6         0.1943   -18.7878    13.3218 C.3        1 BB1          0.0000
     7 C7         1.3455   -18.0320    13.9938 C.3        1 BB1          0.0000
     8 C8         0.7860   -16.7915    14.6983 C.3        1 BB1          0.0000
     9 C9         0.1421   -15.8796    13.6495 C.3        1 BB1          0.0000
    10 C10        0.2791   -16.5281    12.2708 C.3        1 BB1          0.0000
    11 N11        1.6954   -16.7161    11.9456 N.am       1 BB1          0.0000
    12 C12        2.3464   -17.5905    12.9245 C.3        1 BB1          0.0000
    13 H13       -1.0771   -17.9575     7.7566 H          1 BB1          0.0000
    14 H14        0.3258   -18.8883     8.3346 H          1 BB1          0.0000
    15 H15       -1.3238   -19.4857     8.6352 H          1 BB1          0.0000
    16 H16       -1.4946   -17.7335    12.4924 H          1 BB1          0.0000
    17 H17       -0.5531   -19.0549    14.0689 H          1 BB1          0.0000
    18 H18        0.5779   -19.6905    12.8463 H          1 BB1          0.0000
    19 H19        1.8331   -18.6792    14.7228 H          1 BB1          0.0000
    20 H20        0.0365   -17.0934    15.4298 H          1 BB1          0.0000
    21 H21        1.5949   -16.2590    15.1985 H          1 BB1          0.0000
    22 H22       -0.9134   -15.7424    13.8845 H          1 BB1          0.0000
    23 H23        0.6451   -14.9126    13.6491 H          1 BB1          0.0000
    24 H24       -0.1699   -15.8773    11.5205 H          1 BB1          0.0000
    25 H25        3.1671   -17.0526    13.3990 H          1 BB1          0.0000
    26 H26        2.7417   -18.4698    12.4158 H          1 BB1          0.0000
    27 C2         0.0232   -14.5029    10.8440 C.2        2 BB2          0.0000
    28 O3         0.5964   -15.4713    11.3227 O.2        2 BB2          0.0000
    29 C4         0.1943   -14.1761     9.4156 C.ar       2 BB2          0.0000
    30 C5         0.2000   -15.1937     8.4585 C.ar       2 BB2          0.0000
    31 C6         0.3606   -14.8807     7.1247 C.ar       2 BB2          0.0000
    32 C7         0.5162   -13.5625     6.7340 C.ar       2 BB2          0.0000
    33 C8         0.5116   -12.5491     7.6766 C.ar       2 BB2          0.0000
    34 C9         0.3458   -12.8466     9.0128 C.ar       2 BB2          0.0000
    35 C10        0.3405   -11.7416    10.0376 C.3        2 BB2          0.0000
    36 N11       -0.8775   -10.9417     9.8869 N.pl3      2 BB2          0.0000
    37 C12       -1.9601   -10.9853    10.6975 C.2        2 BB2          0.0000
    38 C13       -2.8435   -10.0913    10.1954 C.2        2 BB2          0.0000
    39 N14       -2.2659    -9.5516     9.1162 N.2        2 BB2          0.0000
    40 N15       -1.0997   -10.0726     8.9638 N.2        2 BB2          0.0000
    41 H16        0.0794   -16.2231     8.7623 H          2 BB2          0.0000
    42 H17        0.3653   -15.6663     6.3837 H          2 BB2          0.0000
    43 H18        0.6423   -13.3234     5.6883 H          2 BB2          0.0000
    44 H19        0.6339   -11.5225     7.3644 H          2 BB2          0.0000
    45 H20        0.3700   -12.1736    11.0379 H          2 BB2          0.0000
    46 H21        1.2134   -11.1056     9.8906 H          2 BB2          0.0000
    47 H22       -2.0926   -11.6083    11.5697 H          2 BB2          0.0000
    48 H23       -3.8224    -9.8595    10.5883 H          2 BB2          0.0000
@<TRIPOS>BOND
     1      1      2 1
     2      1     13 1
     3      1     14 1
     4      1     15 1
     5      2      3 1
     6      3      4 2
     7      3      5 1
     8      5      6 1
     9      5     10 1
    10      5     16 1
    11      6      7 1
    12      6     17 1
    13      6     18 1
    14      7      8 1
    15      7     12 1
    16      7     19 1
    17      8      9 1
    18      8     20 1
    19      8     21 1
    20      9     10 1
    21      9     22 1
    22      9     23 1
    23     10     11 1
    24     10     24 1
    25     11     12 1
    26     12     25 1
    27     12     26 1
    28     27     28 2
    29     27     29 1
    30     29     30 ar
    31     29     34 ar
    32     30     31 ar
    33     30     41 1
    34     31     32 ar
    35     31     42 1
    36     32     33 ar
    37     32     43 1
    38     33     34 ar
    39     33     44 1
    40     34     35 1
    41     35     36 1
    42     35     45 1
    43     35     46 1
    44     36     37 1
    45     36     40 1
    46     37     38 2
    47     37     47 1
    48     38     39 1
    49     38     48 1
    50     39     40 2
    51     11     27 am
@<TRIPOS>SUBSTRUCTURE
     1 BB1          11
     2 BB2          27
@<TRIPOS>MOLECULE
EN300-251348_i003_EN300-344045_i001_2_2_1
  55   58   2   0   0
SMALL
USER_CHARGES
@<TRIPOS>ATOM
     1 C1        -0.7004   -18.5951     8.5564 C.3        1 BB1          0.0000
     2 O2        -0.7350   -17.8674     9.8124 O.3        1 BB1          0.0000
     3 C3        -0.3011   -18.5159    10.9046 C.2        1 BB1          0.0000
     4 O4         0.2001   -19.6101    10.7982 O.2        1 BB1          0.0000
     5 C5        -0.4390   -17.8791    12.2635 C.3        1 BB1          0.0000
     6 C6         0.1943   -18.7878    13.3218 C.3        1 BB1          0.0000
     7 C7         1.3455   -18.0320    13.9938 C.3        1 BB1          0.0000
     8 C8         0.7860   -16.7915    14.6983 C.3        1 BB1          0.0000
     9 C9         0.1421   -15.8796    13.6495 C.3        1 BB1          0.0000
    10 C10        0.2791   -16.5281    12.2708 C.3        1 BB1          0.0000
    11 N11        1.6954   -16.7161    11.9456 N.am       1 BB1          0.0000
    12 C12        2.3464   -17.5905    12.9245 C.3        1 BB1          0.0000
    13 H13       -1.0771   -17.9575     7.7566 H          1 BB1          0.0000
    14 H14        0.3258   -18.8883     8.3346 H          1 BB1          0.0000
    15 H15       -1.3238   -19.4857     8.6352 H          1 BB1          0.0000
    16 H16       -1.4946   -17.7335    12.4924 H          1 BB1          0.0000
    17 H17       -0.5531   -19.0549    14.0689 H          1 BB1          0.0000
    18 H18        0.5779   -19.6905    12.8463 H          1 BB1          0.0000
    19 H19        1.8331   -18.6792    14.7228 H          1 BB1          0.0000
    20 H20        0.0365   -17.0934    15.4298 H          1 BB1          0.0000
    21 H21        1.5949   -16.2590    15.1985 H          1 BB1          0.0000
    22 H22       -0.9134   -15.7424    13.8845 H          1 BB1          0.0000
    23 H23        0.6451   -14.9126    13.6491 H          1 BB1          0.0000
    24 H24       -0.1699   -15.8773    11.5205 H          1 BB1          0.0000
    25 H25        3.1671   -17.0526    13.3990 H          1 BB1          0.0000
    26 H26        2.7417   -18.4698    12.4158 H          1 BB1          0.0000
    27 O1         0.5661   -15.7707    10.9576 O.2        2 BB2          0.0000
    28 C2         0.2489   -14.5943    11.0019 C.2        2 BB2          0.0000
    29 C4         0.9922   -13.5817    10.1694 C.3        2 BB2          0.0000
    30 C5         0.0568   -13.0163     9.0988 C.3        2 BB2          0.0000
    31 C6         0.8768   -12.3025     8.0042 C.3        2 BB2          0.0000
    32 C7         1.0511   -13.3749     6.9002 C.3        2 BB2          0.0000
    33 C8        -0.3163   -14.1023     6.9114 C.3        2 BB2          0.0000
    34 C9        -0.7017   -14.1605     8.4040 C.3        2 BB2          0.0000
    35 C10       -0.9194   -12.0528     9.7233 C.ar       2 BB2          0.0000
    36 C11       -0.7018   -11.5818    11.0046 C.ar       2 BB2          0.0000
    37 C12       -1.5972   -10.6981    11.5774 C.ar       2 BB2          0.0000
    38 C13       -2.7099   -10.2850    10.8687 C.ar       2 BB2          0.0000
    39 C14       -2.9270   -10.7553     9.5871 C.ar       2 BB2          0.0000
    40 C15       -2.0292   -11.6357     9.0126 C.ar       2 BB2          0.0000
    41 H16        1.3431   -12.7722    10.8096 H          2 BB2          0.0000
    42 H17        1.8455   -14.0614     9.6898 H          2 BB2          0.0000
    43 H18        0.3298   -11.4425     7.6177 H          2 BB2          0.0000
    44 H19        1.8472   -11.9949     8.3939 H          2 BB2          0.0000
    45 H20        1.2319   -12.9071     5.9324 H          2 BB2          0.0000
    46 H21        1.8570   -14.0634     7.1543 H          2 BB2          0.0000
    47 H22       -1.0559   -13.5330     6.3483 H          2 BB2          0.0000
    48 H23       -0.2166   -15.1082     6.5036 H          2 BB2          0.0000
    49 H24       -0.4034   -15.1187     8.8294 H          2 BB2          0.0000
    50 H25       -1.7765   -14.0194     8.5179 H          2 BB2          0.0000
    51 H26        0.1674   -11.9045    11.5583 H          2 BB2          0.0000
    52 H27       -1.4278   -10.3307    12.5787 H          2 BB2          0.0000
    53 H28       -3.4099    -9.5951    11.3165 H          2 BB2          0.0000
    54 H29       -3.7964   -10.4328     9.0334 H          2 BB2          0.0000
    55 H30       -2.1987   -12.0032     8.0113 H          2 BB2          0.0000
@<TRIPOS>BOND
     1      1      2 1
     2      1     13 1
     3      1     14 1
     4      1     15 1
     5      2      3 1
     6      3      4 2
     7      3      5 1
     8      5      6 1
     9      5     10 1
    10      5     16 1
    11      6      7 1
    12      6     17 1
    13      6     18 1
    14      7      8 1
    15      7     12 1
    16      7     19 1
    17      8      9 1
    18      8     20 1
    19      8     21 1
    20      9     10 1
    21      9     22 1
    22      9     23 1
    23     10     11 1
    24     10     24 1
    25     11     12 1
    26     12     25 1
    27     12     26 1
    28     27     28 2
    29     28     29 1
    30     29     30 1
    31     29     41 1
    32     29     42 1
    33     30     31 1
    34     30     34 1
    35     30     35 1
    36     31     32 1
    37     31     43 1
    38     31     44 1
    39     32     33 1
    40     32     45 1
    41     32     46 1
    42     33     34 1
    43     33     47 1
    44     33     48 1
    45     34     49 1
    46     34     50 1
    47     35     36 ar
    48     35     40 ar
    49     36     37 ar
    50     36     51 1
    51     37     38 ar
    52     37     52 1
    53     38     39 ar
    54     38     53 1
    55     39     40 ar
    56     39     54 1
    57     40     55 1
    58     11     28 am
@<TRIPOS>SUBSTRUCTURE
     1 BB1          11
     2 BB2          28
@<TRIPOS>MOLECULE
EN300-251348_i003_EN300-97777_i001_5_3_1
  54   55   2   0   0
SMALL
USER_CHARGES
@<TRIPOS>ATOM
     1 C1         1.4795   -21.9572    13.8195 C.3        1 BB1          0.0000
     2 O2         1.1282   -20.5971    13.4519 O.3        1 BB1          0.0000
     3 C3         0.7842   -19.7661    14.4483 C.2        1 BB1          0.0000
     4 O4         0.8128   -20.1511    15.5932 O.2        1 BB1          0.0000
     5 C5         0.3624   -18.3528    14.1389 C.3        1 BB1          0.0000
     6 C6         1.2657   -17.3717    14.8929 C.3        1 BB1          0.0000
     7 C7         2.0051   -16.5001    13.8722 C.3        1 BB1          0.0000
     8 C8         0.9806   -15.6906    13.0700 C.3        1 BB1          0.0000
     9 C9         0.0660   -16.6628    12.3188 C.3        1 BB1          0.0000
    10 C10        0.4923   -18.0973    12.6359 C.3        1 BB1          0.0000
    11 N11        1.8788   -18.3116    12.2132 N.am       1 BB1          0.0000
    12 C12        2.7876   -17.4027    12.9165 C.3        1 BB1          0.0000
    13 H13        1.7362   -22.5211    12.9228 H          1 BB1          0.0000
    14 H14        2.3340   -21.9415    14.4960 H          1 BB1          0.0000
    15 H15        0.6318   -22.4299    14.3157 H          1 BB1          0.0000
    16 H16       -0.6727   -18.2056    14.4468 H          1 BB1          0.0000
    17 H17        0.6585   -16.7401    15.5413 H          1 BB1          0.0000
    18 H18        1.9883   -17.9263    15.4915 H          1 BB1          0.0000
    19 H19        2.6829   -15.8224    14.3912 H          1 BB1          0.0000
    20 H20        0.3857   -15.0792    13.7484 H          1 BB1          0.0000
    21 H21        1.4987   -15.0503    12.3561 H          1 BB1          0.0000
    22 H22       -0.9659   -16.5107    12.6353 H          1 BB1          0.0000
    23 H23        0.1491   -16.4865    11.2464 H          1 BB1          0.0000
    24 H24       -0.1508   -18.7920    12.0955 H          1 BB1          0.0000
    25 H25        3.3152   -16.7859    12.1890 H          1 BB1          0.0000
    26 H26        3.5129   -17.9858    13.4840 H          1 BB1          0.0000
    27 C1        -1.5392   -10.5689    11.7089 C.3        2 BB2          0.0000
    28 C2        -1.5677   -11.2425    10.3355 C.3        2 BB2          0.0000
    29 C3        -2.9433   -11.8711    10.1040 C.3        2 BB2          0.0000
    30 C4        -1.2944   -10.1995     9.2500 C.3        2 BB2          0.0000
    31 O5        -0.5485   -12.2753    10.2818 O.3        2 BB2          0.0000
    32 C6        -0.7051   -13.3319    11.1016 C.2        2 BB2          0.0000
    33 O7        -1.5463   -13.3014    11.9779 O.2        2 BB2          0.0000
    34 N8         0.0712   -14.4232    10.9502 N.am       2 BB2          0.0000
    35 C9         1.0854   -14.4598     9.8936 C.3        2 BB2          0.0000
    36 C10        0.4242   -14.4570     8.5785 C.1        2 BB2          0.0000
    37 C11       -0.1031   -14.4548     7.5296 C.1        2 BB2          0.0000
    38 C12       -0.0992   -15.5728    11.8422 C.3        2 BB2          0.0000
    39 C13        1.0675   -15.6478    12.7932 C.2        2 BB2          0.0000
    40 O14        2.2016   -15.7569    12.3594 O.2        2 BB2          0.0000
    41 H16       -1.7339   -11.3120    12.4821 H          2 BB2          0.0000
    42 H17       -0.5592   -10.1211    11.8737 H          2 BB2          0.0000
    43 H18       -2.3044    -9.7936    11.7492 H          2 BB2          0.0000
    44 H19       -3.7084   -11.0958    10.1443 H          2 BB2          0.0000
    45 H20       -2.9635   -12.3511     9.1256 H          2 BB2          0.0000
    46 H21       -3.1380   -12.6142    10.8774 H          2 BB2          0.0000
    47 H22       -0.3143    -9.7517     9.4149 H          2 BB2          0.0000
    48 H23       -1.3146   -10.6794     8.2715 H          2 BB2          0.0000
    49 H24       -2.0595    -9.4243     9.2903 H          2 BB2          0.0000
    50 H25        1.7298   -13.5849     9.9782 H          2 BB2          0.0000
    51 H26        1.6851   -15.3641     9.9968 H          2 BB2          0.0000
    52 H27       -0.5748   -14.4528     6.5915 H          2 BB2          0.0000
    53 H28       -1.0232   -15.4590    12.4091 H          2 BB2          0.0000
    54 H29       -0.1456   -16.4875    11.2513 H          2 BB2          0.0000
@<TRIPOS>BOND
     1      1      2 1
     2      1     13 1
     3      1     14 1
     4      1     15 1
     5      2      3 1
     6      3      4 2
     7      3      5 1
     8      5      6 1
     9      5     10 1
    10      5     16 1
    11      6      7 1
    12      6     17 1
    13      6     18 1
    14      7      8 1
    15      7     12 1
    16      7     19 1
    17      8      9 1
    18      8     20 1
    19      8     21 1
    20      9     10 1
    21      9     22 1
    22      9     23 1
    23     10     11 1
    24     10     24 1
    25     11     12 1
    26     12     25 1
    27     12     26 1
    28     27     28 1
    29     27     41 1
    30     27     42 1
    31     27     43 1
    32     28     29 1
    33     28     30 1
    34     28     31 1
    35     29     44 1
    36     29     45 1
    37     29     46 1
    38     30     47 1
    39     30     48 1
    40     30     49 1
    41     31     32 1
    42     32     33 2
    43     32     34 am
    44     34     35 1
    45     34     38 1
    46     35     36 1
    47     35     50 1
    48     35     51 1
    49     36     37 3
    50     37     52 1
    51     38     39 1
    52     38     53 1
    53     38     54 1
    54     39     40 2
    55     11     39 am
@<TRIPOS>SUBSTRUCTURE
     1 BB1          11
     2 BB2          39
@<TRIPOS>MOLECULE
EN300-251348_i003_EN300-194291_i002_5_16_1
  50   53   2   0   0
SMALL
USER_CHARGES
@<TRIPOS>ATOM
     1 C1         1.4795   -21.9572    13.8195 C.3        1 BB1          0.0000
     2 O2         1.1282   -20.5971    13.4519 O.3        1 BB1          0.0000
     3 C3         0.7842   -19.7661    14.4483 C.2        1 BB1          0.0000
     4 O4         0.8128   -20.1511    15.5932 O.2        1 BB1          0.0000
     5 C5         0.3624   -18.3528    14.1389 C.3        1 BB1          0.0000
     6 C6         1.2657   -17.3717    14.8929 C.3        1 BB1          0.0000
     7 C7         2.0051   -16.5001    13.8722 C.3        1 BB1          0.0000
     8 C8         0.9806   -15.6906    13.0700 C.3        1 BB1          0.0000
     9 C9         0.0660   -16.6628    12.3188 C.3        1 BB1          0.0000
    10 C10        0.4923   -18.0973    12.6359 C.3        1 BB1          0.0000
    11 N11        1.8788   -18.3116    12.2132 N.am       1 BB1          0.0000
    12 C12        2.7876   -17.4027    12.9165 C.3        1 BB1          0.0000
    13 H13        1.7362   -22.5211    12.9228 H          1 BB1          0.0000
    14 H14        2.3340   -21.9415    14.4960 H          1 BB1          0.0000
    15 H15        0.6318   -22.4299    14.3157 H          1 BB1          0.0000
    16 H16       -0.6727   -18.2056    14.4468 H          1 BB1          0.0000
    17 H17        0.6585   -16.7401    15.5413 H          1 BB1          0.0000
    18 H18        1.9883   -17.9263    15.4915 H          1 BB1          0.0000
    19 H19        2.6829   -15.8224    14.3912 H          1 BB1          0.0000
    20 H20        0.3857   -15.0792    13.7484 H          1 BB1          0.0000
    21 H21        1.4987   -15.0503    12.3561 H          1 BB1          0.0000
    22 H22       -0.9659   -16.5107    12.6353 H          1 BB1          0.0000
    23 H23        0.1491   -16.4865    11.2464 H          1 BB1          0.0000
    24 H24       -0.1508   -18.7920    12.0955 H          1 BB1          0.0000
    25 H25        3.3152   -16.7859    12.1890 H          1 BB1          0.0000
    26 H26        3.5129   -17.9858    13.4840 H          1 BB1          0.0000
    27 O1         0.3181   -16.2492    12.8568 O.2        2 BB2          0.0000
    28 C2         0.9864   -15.6654    12.0206 C.2        2 BB2          0.0000
    29 C4         0.3162   -15.0305    10.8295 C.3        2 BB2          0.0000
    30 C5        -0.7059   -13.9613    11.2751 C.3        2 BB2          0.0000
    31 N6        -0.6164   -12.8925    10.2732 N.am       2 BB2          0.0000
    32 C7         0.5153   -12.9905     9.5545 C.2        2 BB2          0.0000
    33 O8         0.8423   -12.2317     8.6666 O.2        2 BB2          0.0000
    34 C9         1.3218   -14.1850    10.0143 C.3        2 BB2          0.0000
    35 C10       -1.5851   -11.8982    10.0900 C.ar       2 BB2          0.0000
    36 C11       -1.1994   -10.5761     9.9146 C.ar       2 BB2          0.0000
    37 C12       -2.1559    -9.5957     9.7334 C.ar       2 BB2          0.0000
    38 C13       -3.4988    -9.9298     9.7271 C.ar       2 BB2          0.0000
    39 F14       -4.4322    -8.9694     9.5498 F          2 BB2          0.0000
    40 C15       -3.8874   -11.2498     9.9021 C.ar       2 BB2          0.0000
    41 F16       -5.1988   -11.5745     9.8952 F          2 BB2          0.0000
    42 C17       -2.9323   -12.2343    10.0779 C.ar       2 BB2          0.0000
    43 H18       -0.1577   -15.7858    10.2026 H          2 BB2          0.0000
    44 H19       -1.7111   -14.3826    11.2883 H          2 BB2          0.0000
    45 H20       -0.4442   -13.5770    12.2610 H          2 BB2          0.0000
    46 H21        2.1512   -13.8654    10.6453 H          2 BB2          0.0000
    47 H22        1.6889   -14.7501     9.1575 H          2 BB2          0.0000
    48 H23       -0.1517   -10.3141     9.9201 H          2 BB2          0.0000
    49 H24       -1.8553    -8.5674     9.5970 H          2 BB2          0.0000
    50 H25       -3.2342   -13.2622    10.2142 H          2 BB2          0.0000
@<TRIPOS>BOND
     1      1      2 1
     2      1     13 1
     3      1     14 1
     4      1     15 1
     5      2      3 1
     6      3      4 2
     7      3      5 1
     8      5      6 1
     9      5     10 1
    10      5     16 1
    11      6      7 1
    12      6     17 1
    13      6     18 1
    14      7      8 1
    15      7     12 1
    16      7     19 1
    17      8      9 1
    18      8     20 1
    19      8     21 1
    20      9     10 1
    21      9     22 1
    22      9     23 1
    23     10     11 1
    24     10     24 1
    25     11     12 1
    26     12     25 1
    27     12     26 1
    28     27     28 2
    29     28     29 1
    30     29     30 1
    31     29     34 1
    32     29     43 1
    33     30     31 1
    34     30     44 1
    35     30     45 1
    36     31     32 am
    37     31     35 1
    38     32     33 2
    39     32     34 1
    40     34     46 1
    41     34     47 1
    42     35     36 ar
    43     35     42 ar
    44     36     37 ar
    45     36     48 1
    46     37     38 ar
    47     37     49 1
    48     38     39 1
    49     38     40 ar
    50     40     41 1
    51     40     42 ar
    52     42     50 1
    53     11     28 am
@<TRIPOS>SUBSTRUCTURE
     1 BB1          11
     2 BB2          28
@<TRIPOS>MOLECULE
EN300-251348_i003_EN300-97777_i001_8_3_1
  54   55   2   0   0
SMALL
USER_CHARGES
@<TRIPOS>ATOM
     1 C1         1.4635   -22.5752    14.3489 C.3        1 BB1          0.0000
     2 O2         1.0833   -21.2076    14.6543 O.3        1 BB1          0.0000
     3 C3         1.0673   -20.3369    13.6329 C.2        1 BB1          0.0000
     4 O4         1.4000   -20.6956    12.5281 O.2        1 BB1          0.0000
     5 C5         0.6344   -18.9121    13.8640 C.3        1 BB1          0.0000
     6 C6         1.5653   -18.2532    14.8870 C.3        1 BB1          0.0000
     7 C7         2.2663   -17.0649    14.2202 C.3        1 BB1          0.0000
     8 C8         1.2128   -16.0358    13.7965 C.3        1 BB1          0.0000
     9 C9         0.2708   -16.6875    12.7797 C.3        1 BB1          0.0000
    10 C10        0.7084   -18.1349    12.5481 C.3        1 BB1          0.0000
    11 N11        2.0782   -18.1657    12.0289 N.am       1 BB1          0.0000
    12 C12        3.0127   -17.5561    12.9785 C.3        1 BB1          0.0000
    13 H13        1.4353   -23.1724    15.2604 H          1 BB1          0.0000
    14 H14        0.7681   -22.9915    13.6201 H          1 BB1          0.0000
    15 H15        2.4726   -22.5884    13.9371 H          1 BB1          0.0000
    16 H16       -0.3885   -18.8982    14.2400 H          1 BB1          0.0000
    17 H17        0.9826   -17.9030    15.7390 H          1 BB1          0.0000
    18 H18        2.3095   -18.9755    15.2223 H          1 BB1          0.0000
    19 H19        2.9630   -16.6084    14.9233 H          1 BB1          0.0000
    20 H20        0.6436   -15.7149    14.6689 H          1 BB1          0.0000
    21 H21        1.7041   -15.1760    13.3411 H          1 BB1          0.0000
    22 H22       -0.7486   -16.6721    13.1653 H          1 BB1          0.0000
    23 H23        0.3140   -16.1387    11.8389 H          1 BB1          0.0000
    24 H24        0.0456   -18.5991    11.8177 H          1 BB1          0.0000
    25 H25        3.5129   -16.7133    12.5016 H          1 BB1          0.0000
    26 H26        3.7585   -18.2939    13.2746 H          1 BB1          0.0000
    27 C1        -1.5392   -10.5689    11.7089 C.3        2 BB2          0.0000
    28 C2        -1.5677   -11.2425    10.3355 C.3        2 BB2          0.0000
    29 C3        -2.9433   -11.8711    10.1040 C.3        2 BB2          0.0000
    30 C4        -1.2944   -10.1995     9.2500 C.3        2 BB2          0.0000
    31 O5        -0.5485   -12.2753    10.2818 O.3        2 BB2          0.0000
    32 C6        -0.7051   -13.3319    11.1016 C.2        2 BB2          0.0000
    33 O7        -1.5463   -13.3014    11.9779 O.2        2 BB2          0.0000
    34 N8         0.0712   -14.4232    10.9502 N.am       2 BB2          0.0000
    35 C9         1.0854   -14.4598     9.8936 C.3        2 BB2          0.0000
    36 C10        0.4242   -14.4570     8.5785 C.1        2 BB2          0.0000
    37 C11       -0.1031   -14.4548     7.5296 C.1        2 BB2          0.0000
    38 C12       -0.0992   -15.5728    11.8422 C.3        2 BB2          0.0000
    39 C13        1.0675   -15.6478    12.7932 C.2        2 BB2          0.0000
    40 O14        2.2016   -15.7569    12.3594 O.2        2 BB2          0.0000
    41 H16       -1.7339   -11.3120    12.4821 H          2 BB2          0.0000
    42 H17       -0.5592   -10.1211    11.8737 H          2 BB2          0.0000
    43 H18       -2.3044    -9.7936    11.7492 H          2 BB2          0.0000
    44 H19       -3.7084   -11.0958    10.1443 H          2 BB2          0.0000
    45 H20       -2.9635   -12.3511     9.1256 H          2 BB2          0.0000
    46 H21       -3.1380   -12.6142    10.8774 H          2 BB2          0.0000
    47 H22       -0.3143    -9.7517     9.4149 H          2 BB2          0.0000
    48 H23       -1.3146   -10.6794     8.2715 H          2 BB2          0.0000
    49 H24       -2.0595    -9.4243     9.2903 H          2 BB2          0.0000
    50 H25        1.7298   -13.5849     9.9782 H          2 BB2          0.0000
    51 H26        1.6851   -15.3641     9.9968 H          2 BB2          0.0000
    52 H27       -0.5748   -14.4528     6.5915 H          2 BB2          0.0000
    53 H28       -1.0232   -15.4590    12.4091 H          2 BB2          0.0000
    54 H29       -0.1456   -16.4875    11.2513 H          2 BB2          0.0000
@<TRIPOS>BOND
     1      1      2 1
     2      1     13 1
     3      1     14 1
     4      1     15 1
     5      2      3 1
     6      3      4 2
     7      3      5 1
     8      5      6 1
     9      5     10 1
    10      5     16 1
    11      6      7 1
    12      6     17 1
    13      6     18 1
    14      7      8 1
    15      7     12 1
    16      7     19 1
    17      8      9 1
    18      8     20 1
    19      8     21 1
    20      9     10 1
    21      9     22 1
    22      9     23 1
    23     10     11 1
    24     10     24 1
    25     11     12 1
    26     12     25 1
    27     12     26 1
    28     27     28 1
    29     27     41 1
    30     27     42 1
    31     27     43 1
    32     28     29 1
    33     28     30 1
    34     28     31 1
    35     29     44 1
    36     29     45 1
    37     29     46 1
    38     30     47 1
    39     30     48 1
    40     30     49 1
    41     31     32 1
    42     32     33 2
    43     32     34 am
    44     34     35 1
    45     34     38 1
    46     35     36 1
    47     35     50 1
    48     35     51 1
    49     36     37 3
    50     37     52 1
    51     38     39 1
    52     38     53 1
    53     38     54 1
    54     39     40 2
    55     11     39 am
@<TRIPOS>SUBSTRUCTURE
     1 BB1          11
     2 BB2          39
@<TRIPOS>MOLECULE
EN300-251348_i003_EN300-315786_i001_8_15_1
  54   57   2   0   0
SMALL
USER_CHARGES
@<TRIPOS>ATOM
     1 C1         1.4635   -22.5752    14.3489 C.3        1 BB1          0.0000
     2 O2         1.0833   -21.2076    14.6543 O.3        1 BB1          0.0000
     3 C3         1.0673   -20.3369    13.6329 C.2        1 BB1          0.0000
     4 O4         1.4000   -20.6956    12.5281 O.2        1 BB1          0.0000
     5 C5         0.6344   -18.9121    13.8640 C.3        1 BB1          0.0000
     6 C6         1.5653   -18.2532    14.8870 C.3        1 BB1          0.0000
     7 C7         2.2663   -17.0649    14.2202 C.3        1 BB1          0.0000
     8 C8         1.2128   -16.0358    13.7965 C.3        1 BB1          0.0000
     9 C9         0.2708   -16.6875    12.7797 C.3        1 BB1          0.0000
    10 C10        0.7084   -18.1349    12.5481 C.3        1 BB1          0.0000
    11 N11        2.0782   -18.1657    12.0289 N.am       1 BB1          0.0000
    12 C12        3.0127   -17.5561    12.9785 C.3        1 BB1          0.0000
    13 H13        1.4353   -23.1724    15.2604 H          1 BB1          0.0000
    14 H14        0.7681   -22.9915    13.6201 H          1 BB1          0.0000
    15 H15        2.4726   -22.5884    13.9371 H          1 BB1          0.0000
    16 H16       -0.3885   -18.8982    14.2400 H          1 BB1          0.0000
    17 H17        0.9826   -17.9030    15.7390 H          1 BB1          0.0000
    18 H18        2.3095   -18.9755    15.2223 H          1 BB1          0.0000
    19 H19        2.9630   -16.6084    14.9233 H          1 BB1          0.0000
    20 H20        0.6436   -15.7149    14.6689 H          1 BB1          0.0000
    21 H21        1.7041   -15.1760    13.3411 H          1 BB1          0.0000
    22 H22       -0.7486   -16.6721    13.1653 H          1 BB1          0.0000
    23 H23        0.3140   -16.1387    11.8389 H          1 BB1          0.0000
    24 H24        0.0456   -18.5991    11.8177 H          1 BB1          0.0000
    25 H25        3.5129   -16.7133    12.5016 H          1 BB1          0.0000
    26 H26        3.7585   -18.2939    13.2746 H          1 BB1          0.0000
    27 O1         2.6322   -17.2256    13.2919 O.2        2 BB2          0.0000
    28 C2         1.7327   -16.4396    13.5523 C.2        2 BB2          0.0000
    29 C4         1.1955   -15.5555    12.4970 C.ar       2 BB2          0.0000
    30 C5        -0.1031   -15.0520    12.6014 C.ar       2 BB2          0.0000
    31 C6        -0.6034   -14.2275    11.6168 C.ar       2 BB2          0.0000
    32 C7         0.1870   -13.8958    10.5158 C.ar       2 BB2          0.0000
    33 C8         1.4845   -14.3984    10.4108 C.ar       2 BB2          0.0000
    34 C9         1.9881   -15.2184    11.3976 C.ar       2 BB2          0.0000
    35 C10       -0.3515   -13.0103     9.4580 C.2        2 BB2          0.0000
    36 O11       -0.3862   -13.3925     8.3050 O.2        2 BB2          0.0000
    37 N12       -0.8031   -11.7804     9.7740 N.am       2 BB2          0.0000
    38 C13       -1.4186   -10.9146     8.7556 C.3        2 BB2          0.0000
    39 C14       -2.7582   -10.4053     9.2996 C.3        2 BB2          0.0000
    40 O15       -2.5518    -9.8218    10.5882 O.3        2 BB2          0.0000
    41 C16       -2.0707   -10.7375    11.5751 C.3        2 BB2          0.0000
    42 C17       -0.7009   -11.2660    11.1489 C.3        2 BB2          0.0000
    43 H18       -0.7151   -15.3090    13.4533 H          2 BB2          0.0000
    44 H19       -1.6078   -13.8385    11.6973 H          2 BB2          0.0000
    45 H20        2.0956   -14.1416     9.5582 H          2 BB2          0.0000
    46 H21        2.9925   -15.6071    11.3164 H          2 BB2          0.0000
    47 H22       -0.7622   -10.0699     8.5466 H          2 BB2          0.0000
    48 H23       -1.5863   -11.4847     7.8418 H          2 BB2          0.0000
    49 H24       -3.1651    -9.6553     8.6213 H          2 BB2          0.0000
    50 H25       -3.4568   -11.2377     9.3846 H          2 BB2          0.0000
    51 H26       -1.9829   -10.2265    12.5339 H          2 BB2          0.0000
    52 H27       -2.7667   -11.5711    11.6683 H          2 BB2          0.0000
    53 H28       -0.3914   -12.0672    11.8201 H          2 BB2          0.0000
    54 H29        0.0300   -10.4580    11.1793 H          2 BB2          0.0000
@<TRIPOS>BOND
     1      1      2 1
     2      1     13 1
     3      1     14 1
     4      1     15 1
     5      2      3 1
     6      3      4 2
     7      3      5 1
     8      5      6 1
     9      5     10 1
    10      5     16 1
    11      6      7 1
    12      6     17 1
    13      6     18 1
    14      7      8 1
    15      7     12 1
    16      7     19 1
    17      8      9 1
    18      8     20 1
    19      8     21 1
    20      9     10 1
    21      9     22 1
    22      9     23 1
    23     10     11 1
    24     10     24 1
    25     11     12 1
    26     12     25 1
    27     12     26 1
    28     27     28 2
    29     28     29 1
    30     29     30 ar
    31     29     34 ar
    32     30     31 ar
    33     30     43 1
    34     31     32 ar
    35     31     44 1
    36     32     33 ar
    37     32     35 1
    38     33     34 ar
    39     33     45 1
    40     34     46 1
    41     35     36 2
    42     35     37 am
    43     37     38 1
    44     37     42 1
    45     38     39 1
    46     38     47 1
    47     38     48 1
    48     39     40 1
    49     39     49 1
    50     39     50 1
    51     40     41 1
    52     41     42 1
    53     41     51 1
    54     41     52 1
    55     42     53 1
    56     42     54 1
    57     11     28 am
@<TRIPOS>SUBSTRUCTURE
     1 BB1          11
     2 BB2          28
@<TRIPOS>MOLECULE
EN300-251348_i003_EN300-194291_i002_8_16_1
  50   53   2   0   0
SMALL
USER_CHARGES
@<TRIPOS>ATOM
     1 C1         1.4635   -22.5752    14.3489 C.3        1 BB1          0.0000
     2 O2         1.0833   -21.2076    14.6543 O.3        1 BB1          0.0000
     3 C3         1.0673   -20.3369    13.6329 C.2        1 BB1          0.0000
     4 O4         1.4000   -20.6956    12.5281 O.2        1 BB1          0.0000
     5 C5         0.6344   -18.9121    13.8640 C.3        1 BB1          0.0000
     6 C6         1.5653   -18.2532    14.8870 C.3        1 BB1          0.0000
     7 C7         2.2663   -17.0649    14.2202 C.3        1 BB1          0.0000
     8 C8         1.2128   -16.0358    13.7965 C.3        1 BB1          0.0000
     9 C9         0.2708   -16.6875    12.7797 C.3        1 BB1          0.0000
    10 C10        0.7084   -18.1349    12.5481 C.3        1 BB1          0.0000
    11 N11        2.0782   -18.1657    12.0289 N.am       1 BB1          0.0000
    12 C12        3.0127   -17.5561    12.9785 C.3        1 BB1          0.0000
    13 H13        1.4353   -23.1724    15.2604 H          1 BB1          0.0000
    14 H14        0.7681   -22.9915    13.6201 H          1 BB1          0.0000
    15 H15        2.4726   -22.5884    13.9371 H          1 BB1          0.0000
    16 H16       -0.3885   -18.8982    14.2400 H          1 BB1          0.0000
    17 H17        0.9826   -17.9030    15.7390 H          1 BB1          0.0000
    18 H18        2.3095   -18.9755    15.2223 H          1 BB1          0.0000
    19 H19        2.9630   -16.6084    14.9233 H          1 BB1          0.0000
    20 H20        0.6436   -15.7149    14.6689 H          1 BB1          0.0000
    21 H21        1.7041   -15.1760    13.3411 H          1 BB1          0.0000
    22 H22       -0.7486   -16.6721    13.1653 H          1 BB1          0.0000
    23 H23        0.3140   -16.1387    11.8389 H          1 BB1          0.0000
    24 H24        0.0456   -18.5991    11.8177 H          1 BB1          0.0000
    25 H25        3.5129   -16.7133    12.5016 H          1 BB1          0.0000
    26 H26        3.7585   -18.2939    13.2746 H          1 BB1          0.0000
    27 C2         0.9864   -15.6654    12.0206 C.2        2 BB2          0.0000
    28 O3         2.1974   -15.5995    12.1456 O.2        2 BB2          0.0000
    29 C4         0.3162   -15.0305    10.8295 C.3        2 BB2          0.0000
    30 C5        -0.7059   -13.9613    11.2751 C.3        2 BB2          0.0000
    31 N6        -0.6164   -12.8925    10.2732 N.am       2 BB2          0.0000
    32 C7         0.5153   -12.9905     9.5545 C.2        2 BB2          0.0000
    33 O8         0.8423   -12.2317     8.6666 O.2        2 BB2          0.0000
    34 C9         1.3218   -14.1850    10.0143 C.3        2 BB2          0.0000
    35 C10       -1.5851   -11.8982    10.0900 C.ar       2 BB2          0.0000
    36 C11       -1.1994   -10.5761     9.9146 C.ar       2 BB2          0.0000
    37 C12       -2.1559    -9.5957     9.7334 C.ar       2 BB2          0.0000
    38 C13       -3.4988    -9.9298     9.7271 C.ar       2 BB2          0.0000
    39 F14       -4.4322    -8.9694     9.5498 F          2 BB2          0.0000
    40 C15       -3.8874   -11.2498     9.9021 C.ar       2 BB2          0.0000
    41 F16       -5.1988   -11.5745     9.8952 F          2 BB2          0.0000
    42 C17       -2.9323   -12.2343    10.0779 C.ar       2 BB2          0.0000
    43 H18       -0.1577   -15.7858    10.2026 H          2 BB2          0.0000
    44 H19       -1.7111   -14.3826    11.2883 H          2 BB2          0.0000
    45 H20       -0.4442   -13.5770    12.2610 H          2 BB2          0.0000
    46 H21        2.1512   -13.8654    10.6453 H          2 BB2          0.0000
    47 H22        1.6889   -14.7501     9.1575 H          2 BB2          0.0000
    48 H23       -0.1517   -10.3141     9.9201 H          2 BB2          0.0000
    49 H24       -1.8553    -8.5674     9.5970 H          2 BB2          0.0000
    50 H25       -3.2342   -13.2622    10.2142 H          2 BB2          0.0000
@<TRIPOS>BOND
     1      1      2 1
     2      1     13 1
     3      1     14 1
     4      1     15 1
     5      2      3 1
     6      3      4 2
     7      3      5 1
     8      5      6 1
     9      5     10 1
    10      5     16 1
    11      6      7 1
    12      6     17 1
    13      6     18 1
    14      7      8 1
    15      7     12 1
    16      7     19 1
    17      8      9 1
    18      8     20 1
    19      8     21 1
    20      9     10 1
    21      9     22 1
    22      9     23 1
    23     10     11 1
    24     10     24 1
    25     11     12 1
    26     12     25 1
    27     12     26 1
    28     27     28 2
    29     27     29 1
    30     29     30 1
    31     29     34 1
    32     29     43 1
    33     30     31 1
    34     30     44 1
    35     30     45 1
    36     31     32 am
    37     31     35 1
    38     32     33 2
    39     32     34 1
    40     34     46 1
    41     34     47 1
    42     35     36 ar
    43     35     42 ar
    44     36     37 ar
    45     36     48 1
    46     37     38 ar
    47     37     49 1
    48     38     39 1
    49     38     40 ar
    50     40     41 1
    51     40     42 ar
    52     42     50 1
    53     11     27 am
@<TRIPOS>SUBSTRUCTURE
     1 BB1          11
     2 BB2          27
@<TRIPOS>MOLECULE
EN300-256216_i001_EN300-34862_i002_10_10_1
  43   45   2   0   0
SMALL
USER_CHARGES
@<TRIPOS>ATOM
     1 C1         1.0993   -15.5416     7.2316 C.3        1 BB1          0.0000
     2 C2         0.2916   -14.2998     7.6144 C.3        1 BB1          0.0000
     3 C3         1.0393   -13.0449     7.1591 C.3        1 BB1          0.0000
     4 C4        -1.0779   -14.3524     6.9344 C.3        1 BB1          0.0000
     5 O5         0.1156   -14.2622     9.0552 O.3        1 BB1          0.0000
     6 C6         1.2163   -14.4376     9.8104 C.2        1 BB1          0.0000
     7 O7         2.3017   -14.0845     9.3935 O.2        1 BB1          0.0000
     8 N8         1.1143   -15.0048    11.0287 N.am       1 BB1          0.0000
     9 C9         2.0474   -15.3548    12.1137 C.3        1 BB1          0.0000
    10 C10        1.0566   -16.4323    12.5320 C.3        1 BB1          0.0000
    11 C11        0.9145   -16.8868    13.9828 C.3        1 BB1          0.0000
    12 C12        1.6946   -18.1437    13.5481 C.3        1 BB1          0.0000
    13 N13        1.2342   -17.8423    12.1716 N.am       1 BB1          0.0000
    14 C14        0.0205   -15.5387    11.8584 C.3        1 BB1          0.0000
    15 H15        2.0750   -15.5041     7.7161 H          1 BB1          0.0000
    16 H16        0.5667   -16.4356     7.5560 H          1 BB1          0.0000
    17 H17        1.2315   -15.5699     6.1500 H          1 BB1          0.0000
    18 H18        1.1714   -13.0732     6.0776 H          1 BB1          0.0000
    19 H19        0.4639   -12.1602     7.4319 H          1 BB1          0.0000
    20 H20        2.0150   -13.0074     7.6436 H          1 BB1          0.0000
    21 H21       -1.6105   -15.2464     7.2588 H          1 BB1          0.0000
    22 H22       -1.6532   -13.4678     7.2072 H          1 BB1          0.0000
    23 H23       -0.9456   -14.3807     5.8529 H          1 BB1          0.0000
    24 H24        2.9982   -15.7522    11.7585 H          1 BB1          0.0000
    25 H25        2.1695   -14.5646    12.8545 H          1 BB1          0.0000
    26 H26        1.4514   -16.2600    14.6948 H          1 BB1          0.0000
    27 H27       -0.1139   -17.0888    14.2819 H          1 BB1          0.0000
    28 H28        2.7734   -18.0567    13.6782 H          1 BB1          0.0000
    29 H29        1.2906   -19.0718    13.9520 H          1 BB1          0.0000
    30 H30       -0.4210   -14.8020    12.5296 H          1 BB1          0.0000
    31 H31       -0.7257   -16.0915    11.2876 H          1 BB1          0.0000
    32 C2        -0.3489   -19.7996    11.8809 C.2        2 BB2          0.0000
    33 O3         0.1780   -19.5632    10.8072 O.2        2 BB2          0.0000
    34 C4        -0.1440   -21.1381    12.5424 C.3        2 BB2          0.0000
    35 C5        -0.9105   -21.1624    13.8712 C.3        2 BB2          0.0000
    36 S6        -2.0718   -22.5518    13.6823 S.3        2 BB2          0.0000
    37 C7        -1.5627   -22.9965    12.0496 C.2        2 BB2          0.0000
    38 O8        -2.0284   -23.9088    11.3941 O.2        2 BB2          0.0000
    39 N9        -0.5927   -22.1803    11.6470 N.am       2 BB2          0.0000
    40 H10        0.9186   -21.2765    12.7422 H          2 BB2          0.0000
    41 H11       -0.2290   -21.3438    14.7024 H          2 BB2          0.0000
    42 H12       -1.4526   -20.2281    14.0170 H          2 BB2          0.0000
    43 H13       -0.1942   -22.2823    10.7686 H          2 BB2          0.0000
@<TRIPOS>BOND
     1      1      2 1
     2      1     15 1
     3      1     16 1
     4      1     17 1
     5      2      3 1
     6      2      4 1
     7      2      5 1
     8      3     18 1
     9      3     19 1
    10      3     20 1
    11      4     21 1
    12      4     22 1
    13      4     23 1
    14      5      6 1
    15      6      7 2
    16      6      8 am
    17      8      9 1
    18      8     14 1
    19      9     10 1
    20      9     24 1
    21      9     25 1
    22     10     11 1
    23     10     13 1
    24     10     14 1
    25     11     12 1
    26     11     26 1
    27     11     27 1
    28     12     13 1
    29     12     28 1
    30     12     29 1
    31     14     30 1
    32     14     31 1
    33     32     33 2
    34     32     34 1
    35     34     35 1
    36     34     39 1
    37     34     40 1
    38     35     36 1
    39     35     41 1
    40     35     42 1
    41     36     37 1
    42     37     38 2
    43     37     39 am
    44     39     43 1
    45     13     32 am
@<TRIPOS>SUBSTRUCTURE
     1 BB1          13
     2 BB2          32
@<TRIPOS>MOLECULE
EN300-256216_i001_EN300-107901_i001_10_14_1
  57   60   2   0   0
SMALL
USER_CHARGES
@<TRIPOS>ATOM
     1 C1         1.0993   -15.5416     7.2316 C.3        1 BB1          0.0000
     2 C2         0.2916   -14.2998     7.6144 C.3        1 BB1          0.0000
     3 C3         1.0393   -13.0449     7.1591 C.3        1 BB1          0.0000
     4 C4        -1.0779   -14.3524     6.9344 C.3        1 BB1          0.0000
     5 O5         0.1156   -14.2622     9.0552 O.3        1 BB1          0.0000
     6 C6         1.2163   -14.4376     9.8104 C.2        1 BB1          0.0000
     7 O7         2.3017   -14.0845     9.3935 O.2        1 BB1          0.0000
     8 N8         1.1143   -15.0048    11.0287 N.am       1 BB1          0.0000
     9 C9         2.0474   -15.3548    12.1137 C.3        1 BB1          0.0000
    10 C10        1.0566   -16.4323    12.5320 C.3        1 BB1          0.0000
    11 C11        0.9145   -16.8868    13.9828 C.3        1 BB1          0.0000
    12 C12        1.6946   -18.1437    13.5481 C.3        1 BB1          0.0000
    13 N13        1.2342   -17.8423    12.1716 N.am       1 BB1          0.0000
    14 C14        0.0205   -15.5387    11.8584 C.3        1 BB1          0.0000
    15 H15        2.0750   -15.5041     7.7161 H          1 BB1          0.0000
    16 H16        0.5667   -16.4356     7.5560 H          1 BB1          0.0000
    17 H17        1.2315   -15.5699     6.1500 H          1 BB1          0.0000
    18 H18        1.1714   -13.0732     6.0776 H          1 BB1          0.0000
    19 H19        0.4639   -12.1602     7.4319 H          1 BB1          0.0000
    20 H20        2.0150   -13.0074     7.6436 H          1 BB1          0.0000
    21 H21       -1.6105   -15.2464     7.2588 H          1 BB1          0.0000
    22 H22       -1.6532   -13.4678     7.2072 H          1 BB1          0.0000
    23 H23       -0.9456   -14.3807     5.8529 H          1 BB1          0.0000
    24 H24        2.9982   -15.7522    11.7585 H          1 BB1          0.0000
    25 H25        2.1695   -14.5646    12.8545 H          1 BB1          0.0000
    26 H26        1.4514   -16.2600    14.6948 H          1 BB1          0.0000
    27 H27       -0.1139   -17.0888    14.2819 H          1 BB1          0.0000
    28 H28        2.7734   -18.0567    13.6782 H          1 BB1          0.0000
    29 H29        1.2906   -19.0718    13.9520 H          1 BB1          0.0000
    30 H30       -0.4210   -14.8020    12.5296 H          1 BB1          0.0000
    31 H31       -0.7257   -16.0915    11.2876 H          1 BB1          0.0000
    32 O1        -1.1044   -18.9616    12.9522 O.2        2 BB2          0.0000
    33 C2        -0.2112   -19.3730    13.6728 C.2        2 BB2          0.0000
    34 C4         0.9797   -20.0451    13.0754 C.3        2 BB2          0.0000
    35 C5         0.7789   -21.1029    12.0033 C.3        2 BB2          0.0000
    36 C6        -0.6011   -21.4491    11.5202 C.3        2 BB2          0.0000
    37 C7        -1.0687   -22.8022    12.1671 C.3        2 BB2          0.0000
    38 C8        -2.1119   -22.2542    13.2046 C.3        2 BB2          0.0000
    39 C9        -1.6431   -21.8882    14.5934 C.3        2 BB2          0.0000
    40 C10       -0.2703   -21.9777    15.1628 C.3        2 BB2          0.0000
    41 C11        0.7467   -22.5237    14.1819 C.3        2 BB2          0.0000
    42 C12        1.4004   -21.4658    13.3283 C.3        2 BB2          0.0000
    43 H13        1.8063   -19.3226    12.8705 H          2 BB2          0.0000
    44 H14        1.4998   -21.0308    11.1347 H          2 BB2          0.0000
    45 H15       -1.3314   -20.6776    11.7382 H          2 BB2          0.0000
    46 H16       -0.5859   -21.6033    10.4298 H          2 BB2          0.0000
    47 H17       -1.6564   -23.3338    11.3862 H          2 BB2          0.0000
    48 H18       -0.3114   -23.4212    12.4973 H          2 BB2          0.0000
    49 H19       -2.5982   -21.3894    12.7428 H          2 BB2          0.0000
    50 H20       -2.8869   -23.0314    13.2890 H          2 BB2          0.0000
    51 H21       -2.0404   -20.8695    14.8077 H          2 BB2          0.0000
    52 H22       -2.2938   -22.4998    15.2815 H          2 BB2          0.0000
    53 H23        0.0623   -21.0182    15.5960 H          2 BB2          0.0000
    54 H24       -0.2987   -22.6555    16.0572 H          2 BB2          0.0000
    55 H25        1.5953   -22.9279    14.8520 H          2 BB2          0.0000
    56 H26        0.4807   -23.4678    13.7322 H          2 BB2          0.0000
    57 H27        2.5427   -21.6098    13.3168 H          2 BB2          0.0000
@<TRIPOS>BOND
     1      1      2 1
     2      1     15 1
     3      1     16 1
     4      1     17 1
     5      2      3 1
     6      2      4 1
     7      2      5 1
     8      3     18 1
     9      3     19 1
    10      3     20 1
    11      4     21 1
    12      4     22 1
    13      4     23 1
    14      5      6 1
    15      6      7 2
    16      6      8 am
    17      8      9 1
    18      8     14 1
    19      9     10 1
    20      9     24 1
    21      9     25 1
    22     10     11 1
    23     10     13 1
    24     10     14 1
    25     11     12 1
    26     11     26 1
    27     11     27 1
    28     12     13 1
    29     12     28 1
    30     12     29 1
    31     14     30 1
    32     14     31 1
    33     32     33 2
    34     33     34 1
    35     34     35 1
    36     34     42 1
    37     34     43 1
    38     35     36 1
    39     35     42 1
    40     35     44 1
    41     36     37 1
    42     36     45 1
    43     36     46 1
    44     37     38 1
    45     37     47 1
    46     37     48 1
    47     38     39 1
    48     38     49 1
    49     38     50 1
    50     39     40 1
    51     39     51 1
    52     39     52 1
    53     40     41 1
    54     40     53 1
    55     40     54 1
    56     41     42 1
    57     41     55 1
    58     41     56 1
    59     42     57 1
    60     13     33 am
@<TRIPOS>SUBSTRUCTURE
     1 BB1          13
     2 BB2          33
@<TRIPOS>MOLECULE
EN300-256216_i001_EN300-1231025_i001_11_11_1
  46   47   2   0   0
SMALL
USER_CHARGES
@<TRIPOS>ATOM
     1 C1        -1.3014   -21.0103    13.4901 C.3        1 BB1          0.0000
     2 C2        -0.1760   -20.7175    12.4958 C.3        1 BB1          0.0000
     3 C3         1.1497   -20.5902    13.2491 C.3        1 BB1          0.0000
     4 C4        -0.0796   -21.8605    11.4834 C.3        1 BB1          0.0000
     5 O5        -0.4573   -19.4754    11.7983 O.3        1 BB1          0.0000
     6 C6        -0.4413   -18.3458    12.5306 C.2        1 BB1          0.0000
     7 O7        -0.4494   -18.4083    13.7441 O.2        1 BB1          0.0000
     8 N8        -0.4164   -17.1457    11.9178 N.am       1 BB1          0.0000
     9 C9        -0.4001   -16.6703    10.5236 C.3        1 BB1          0.0000
    10 C10        0.2857   -15.4085    11.0288 C.3        1 BB1          0.0000
    11 C11        0.1115   -14.0572    10.3396 C.3        1 BB1          0.0000
    12 C12        1.5293   -14.2866     9.7786 C.3        1 BB1          0.0000
    13 N13        1.7341   -15.2078    10.9218 N.am       1 BB1          0.0000
    14 C14       -0.4004   -15.7377    12.3504 C.3        1 BB1          0.0000
    15 H15       -1.3701   -20.1959    14.2113 H          1 BB1          0.0000
    16 H16       -2.2459   -21.1008    12.9534 H          1 BB1          0.0000
    17 H17       -1.0902   -21.9426    14.0137 H          1 BB1          0.0000
    18 H18        1.3609   -21.5225    13.7728 H          1 BB1          0.0000
    19 H19        1.9515   -20.3816    12.5409 H          1 BB1          0.0000
    20 H20        1.0810   -19.7759    13.9704 H          1 BB1          0.0000
    21 H21       -1.0240   -21.9512    10.9468 H          1 BB1          0.0000
    22 H22        0.7222   -21.6519    10.7751 H          1 BB1          0.0000
    23 H23        0.1316   -22.7928    12.0071 H          1 BB1          0.0000
    24 H24        0.2267   -17.2726     9.8659 H          1 BB1          0.0000
    25 H25       -1.3938   -16.4910    10.1133 H          1 BB1          0.0000
    26 H26       -0.6674   -14.0493     9.5772 H          1 BB1          0.0000
    27 H27        0.0421   -13.2167    11.0300 H          1 BB1          0.0000
    28 H28        1.5416   -14.7829     8.8082 H          1 BB1          0.0000
    29 H29        2.1622   -13.4000     9.8114 H          1 BB1          0.0000
    30 H30       -1.3927   -15.2970    12.4471 H          1 BB1          0.0000
    31 H31        0.2282   -15.5600    13.2231 H          1 BB1          0.0000
    32 O1         0.8403   -11.0486     9.0139 O.3        2 BB2          0.0000
    33 C2        -0.3649   -11.8043     9.1498 C.3        2 BB2          0.0000
    34 C3        -1.4329   -10.9436     9.8274 C.3        2 BB2          0.0000
    35 C4        -2.8126   -11.5599     9.5870 C.3        2 BB2          0.0000
    36 C5        -3.8547   -10.5786     9.9302 C.1        2 BB2          0.0000
    37 C6        -4.6859    -9.7960    10.2040 C.1        2 BB2          0.0000
    38 C7        -0.0988   -13.0277     9.9887 C.2        2 BB2          0.0000
    39 O9         0.7171   -13.8548     9.6189 O.2        2 BB2          0.0000
    40 H10       -0.7156   -12.1093     8.1638 H          2 BB2          0.0000
    41 H11       -1.2370   -10.8980    10.8987 H          2 BB2          0.0000
    42 H12       -1.4069    -9.9370     9.4101 H          2 BB2          0.0000
    43 H13       -2.9079   -11.8391     8.5378 H          2 BB2          0.0000
    44 H14       -2.9284   -12.4461    10.2110 H          2 BB2          0.0000
    45 H15       -5.4294    -9.0961    10.4488 H          2 BB2          0.0000
    46 H16        1.5025   -11.4632     8.4441 H          2 BB2          0.0000
@<TRIPOS>BOND
     1      1      2 1
     2      1     15 1
     3      1     16 1
     4      1     17 1
     5      2      3 1
     6      2      4 1
     7      2      5 1
     8      3     18 1
     9      3     19 1
    10      3     20 1
    11      4     21 1
    12      4     22 1
    13      4     23 1
    14      5      6 1
    15      6      7 2
    16      6      8 am
    17      8      9 1
    18      8     14 1
    19      9     10 1
    20      9     24 1
    21      9     25 1
    22     10     11 1
    23     10     13 1
    24     10     14 1
    25     11     12 1
    26     11     26 1
    27     11     27 1
    28     12     13 1
    29     12     28 1
    30     12     29 1
    31     14     30 1
    32     14     31 1
    33     32     33 1
    34     32     46 1
    35     33     34 1
    36     33     38 1
    37     33     40 1
    38     34     35 1
    39     34     41 1
    40     34     42 1
    41     35     36 1
    42     35     43 1
    43     35     44 1
    44     36     37 3
    45     37     45 1
    46     38     39 2
    47     13     38 am
@<TRIPOS>SUBSTRUCTURE
     1 BB1          13
     2 BB2          38
@<TRIPOS>MOLECULE
EN300-256216_i001_EN300-222254_i002_11_16_1
  54   57   2   0   0
SMALL
USER_CHARGES
@<TRIPOS>ATOM
     1 C1        -1.3014   -21.0103    13.4901 C.3        1 BB1          0.0000
     2 C2        -0.1760   -20.7175    12.4958 C.3        1 BB1          0.0000
     3 C3         1.1497   -20.5902    13.2491 C.3        1 BB1          0.0000
     4 C4        -0.0796   -21.8605    11.4834 C.3        1 BB1          0.0000
     5 O5        -0.4573   -19.4754    11.7983 O.3        1 BB1          0.0000
     6 C6        -0.4413   -18.3458    12.5306 C.2        1 BB1          0.0000
     7 O7        -0.4494   -18.4083    13.7441 O.2        1 BB1          0.0000
     8 N8        -0.4164   -17.1457    11.9178 N.am       1 BB1          0.0000
     9 C9        -0.4001   -16.6703    10.5236 C.3        1 BB1          0.0000
    10 C10        0.2857   -15.4085    11.0288 C.3        1 BB1          0.0000
    11 C11        0.1115   -14.0572    10.3396 C.3        1 BB1          0.0000
    12 C12        1.5293   -14.2866     9.7786 C.3        1 BB1          0.0000
    13 N13        1.7341   -15.2078    10.9218 N.am       1 BB1          0.0000
    14 C14       -0.4004   -15.7377    12.3504 C.3        1 BB1          0.0000
    15 H15       -1.3701   -20.1959    14.2113 H          1 BB1          0.0000
    16 H16       -2.2459   -21.1008    12.9534 H          1 BB1          0.0000
    17 H17       -1.0902   -21.9426    14.0137 H          1 BB1          0.0000
    18 H18        1.3609   -21.5225    13.7728 H          1 BB1          0.0000
    19 H19        1.9515   -20.3816    12.5409 H          1 BB1          0.0000
    20 H20        1.0810   -19.7759    13.9704 H          1 BB1          0.0000
    21 H21       -1.0240   -21.9512    10.9468 H          1 BB1          0.0000
    22 H22        0.7222   -21.6519    10.7751 H          1 BB1          0.0000
    23 H23        0.1316   -22.7928    12.0071 H          1 BB1          0.0000
    24 H24        0.2267   -17.2726     9.8659 H          1 BB1          0.0000
    25 H25       -1.3938   -16.4910    10.1133 H          1 BB1          0.0000
    26 H26       -0.6674   -14.0493     9.5772 H          1 BB1          0.0000
    27 H27        0.0421   -13.2167    11.0300 H          1 BB1          0.0000
    28 H28        1.5416   -14.7829     8.8082 H          1 BB1          0.0000
    29 H29        2.1622   -13.4000     9.8114 H          1 BB1          0.0000
    30 H30       -1.3927   -15.2970    12.4471 H          1 BB1          0.0000
    31 H31        0.2282   -15.5600    13.2231 H          1 BB1          0.0000
    32 O1         1.6962   -14.4241     9.0663 O.2        2 BB2          0.0000
    33 C2         0.7784   -14.4710     8.2649 C.2        2 BB2          0.0000
    34 C4         0.2585   -13.2024     7.6397 C.3        2 BB2          0.0000
    35 C5         1.2379   -12.5605     6.6429 C.3        2 BB2          0.0000
    36 C6         0.8192   -11.2012     7.2275 C.3        2 BB2          0.0000
    37 C7         0.4584   -11.9558     8.5179 C.3        2 BB2          0.0000
    38 C8        -0.8094   -11.4665     9.1691 C.ar       2 BB2          0.0000
    39 C9        -1.4548   -10.3502     8.6725 C.ar       2 BB2          0.0000
    40 C10       -2.6177    -9.9002     9.2695 C.ar       2 BB2          0.0000
    41 C11       -3.1369   -10.5674    10.3645 C.ar       2 BB2          0.0000
    42 Cl12      -4.5976   -10.0019    11.1131 Cl         2 BB2          0.0000
    43 C13       -2.4924   -11.6855    10.8627 C.ar       2 BB2          0.0000
    44 C14       -1.3308   -12.1389    10.2617 C.ar       2 BB2          0.0000
    45 F15       -0.7006   -13.2310    10.7470 F          2 BB2          0.0000
    46 H16       -0.7545   -13.3063     7.2510 H          2 BB2          0.0000
    47 H17        2.2812   -12.8140     6.8310 H          2 BB2          0.0000
    48 H18        0.9501   -12.6945     5.6001 H          2 BB2          0.0000
    49 H19        1.6479   -10.5033     7.3470 H          2 BB2          0.0000
    50 H20       -0.0409   -10.7567     6.7267 H          2 BB2          0.0000
    51 H21        1.2886   -12.0441     9.2187 H          2 BB2          0.0000
    52 H22       -1.0503    -9.8285     7.8176 H          2 BB2          0.0000
    53 H23       -3.1211    -9.0272     8.8810 H          2 BB2          0.0000
    54 H24       -2.8973   -12.2065    11.7176 H          2 BB2          0.0000
@<TRIPOS>BOND
     1      1      2 1
     2      1     15 1
     3      1     16 1
     4      1     17 1
     5      2      3 1
     6      2      4 1
     7      2      5 1
     8      3     18 1
     9      3     19 1
    10      3     20 1
    11      4     21 1
    12      4     22 1
    13      4     23 1
    14      5      6 1
    15      6      7 2
    16      6      8 am
    17      8      9 1
    18      8     14 1
    19      9     10 1
    20      9     24 1
    21      9     25 1
    22     10     11 1
    23     10     13 1
    24     10     14 1
    25     11     12 1
    26     11     26 1
    27     11     27 1
    28     12     13 1
    29     12     28 1
    30     12     29 1
    31     14     30 1
    32     14     31 1
    33     32     33 2
    34     33     34 1
    35     34     35 1
    36     34     37 1
    37     34     46 1
    38     35     36 1
    39     35     47 1
    40     35     48 1
    41     36     37 1
    42     36     49 1
    43     36     50 1
    44     37     38 1
    45     37     51 1
    46     38     39 ar
    47     38     44 ar
    48     39     40 ar
    49     39     52 1
    50     40     41 ar
    51     40     53 1
    52     41     42 1
    53     41     43 ar
    54     43     44 ar
    55     43     54 1
    56     44     45 1
    57     13     33 am
@<TRIPOS>SUBSTRUCTURE
     1 BB1          13
     2 BB2          33
@<TRIPOS>MOLECULE
EN300-256216_i001_EN300-1198129_i001_13_11_1
  55   57   2   0   0
SMALL
USER_CHARGES
@<TRIPOS>ATOM
     1 C1        -0.7249   -22.5283    12.2507 C.3        1 BB1          0.0000
     2 C2        -0.1883   -21.5291    13.2776 C.3        1 BB1          0.0000
     3 C3        -1.1474   -21.4561    14.4676 C.3        1 BB1          0.0000
     4 C4         1.1901   -21.9846    13.7607 C.3        1 BB1          0.0000
     5 O5        -0.0773   -20.2175    12.6645 O.3        1 BB1          0.0000
     6 C6         0.1734   -19.1790    13.4838 C.2        1 BB1          0.0000
     7 O7         0.6469   -19.3748    14.5855 O.2        1 BB1          0.0000
     8 N8        -0.1010   -17.9221    13.0819 N.am       1 BB1          0.0000
     9 C9        -0.6575   -17.2972    11.8695 C.3        1 BB1          0.0000
    10 C10        0.1124   -16.0378    12.2423 C.3        1 BB1          0.0000
    11 C11       -0.3819   -14.6424    11.8683 C.3        1 BB1          0.0000
    12 C12        0.7092   -14.6698    10.7792 C.3        1 BB1          0.0000
    13 N13        1.3904   -15.6866    11.6154 N.am       1 BB1          0.0000
    14 C14        0.0186   -16.5753    13.6664 C.3        1 BB1          0.0000
    15 H15       -1.7069   -22.2037    11.9066 H          1 BB1          0.0000
    16 H16       -0.0417   -22.5802    11.4030 H          1 BB1          0.0000
    17 H17       -0.8082   -23.5128    12.7109 H          1 BB1          0.0000
    18 H18       -1.2307   -22.4406    14.9278 H          1 BB1          0.0000
    19 H19       -0.7652   -20.7442    15.1991 H          1 BB1          0.0000
    20 H20       -2.1294   -21.1316    14.1234 H          1 BB1          0.0000
    21 H21        1.8732   -22.0365    12.9130 H          1 BB1          0.0000
    22 H22        1.5722   -21.2727    14.4922 H          1 BB1          0.0000
    23 H23        1.1066   -22.9691    14.2209 H          1 BB1          0.0000
    24 H24       -0.3132   -17.7598    10.9445 H          1 BB1          0.0000
    25 H25       -1.7397   -17.1714    11.9022 H          1 BB1          0.0000
    26 H26       -1.3977   -14.6266    11.4732 H          1 BB1          0.0000
    27 H27       -0.2127   -13.8935    12.6420 H          1 BB1          0.0000
    28 H28        0.3613   -15.0530     9.8199 H          1 BB1          0.0000
    29 H29        1.2619   -13.7348    10.6890 H          1 BB1          0.0000
    30 H30       -0.8746   -16.2464    14.1976 H          1 BB1          0.0000
    31 H31        0.9312   -16.4341    14.2457 H          1 BB1          0.0000
    32 O1         0.0143   -16.1877    10.6382 O.2        2 BB2          0.0000
    33 C2        -0.1070   -15.9082     9.4535 C.2        2 BB2          0.0000
    34 C4         0.0888   -14.5199     9.0003 C.ar       2 BB2          0.0000
    35 C5        -0.2536   -13.4529     9.8358 C.ar       2 BB2          0.0000
    36 C6        -0.0676   -12.1568     9.4051 C.ar       2 BB2          0.0000
    37 C7         0.4567   -11.9083     8.1479 C.ar       2 BB2          0.0000
    38 C8         0.7986   -12.9562     7.3134 C.ar       2 BB2          0.0000
    39 C9         0.6244   -14.2623     7.7324 C.ar       2 BB2          0.0000
    40 F10        0.9586   -15.2862     6.9169 F          2 BB2          0.0000
    41 S11       -0.4990   -10.8115    10.4579 S.o2       2 BB2          0.0000
    42 O12       -0.9885   -11.4332    11.6382 O.2        2 BB2          0.0000
    43 O13        0.6677   -10.0009    10.4867 O.2        2 BB2          0.0000
    44 C14       -1.8418    -9.9635     9.5814 C.3        2 BB2          0.0000
    45 C15       -3.0735    -9.8878    10.4860 C.3        2 BB2          0.0000
    46 C16       -4.1017   -10.8192     9.9938 C.1        2 BB2          0.0000
    47 C17       -4.9218   -11.5619     9.6012 C.1        2 BB2          0.0000
    48 H18       -0.6632   -13.6436    10.8167 H          2 BB2          0.0000
    49 H19        0.5988   -10.8901     7.8170 H          2 BB2          0.0000
    50 H20        1.2070   -12.7542     6.3343 H          2 BB2          0.0000
    51 H21       -1.5232    -8.9553     9.3166 H          2 BB2          0.0000
    52 H22       -2.0901   -10.5158     8.6751 H          2 BB2          0.0000
    53 H23       -2.7940   -10.1601    11.5037 H          2 BB2          0.0000
    54 H24       -3.4691    -8.8722    10.4771 H          2 BB2          0.0000
    55 H25       -5.6553   -12.2263     9.2502 H          2 BB2          0.0000
@<TRIPOS>BOND
     1      1      2 1
     2      1     15 1
     3      1     16 1
     4      1     17 1
     5      2      3 1
     6      2      4 1
     7      2      5 1
     8      3     18 1
     9      3     19 1
    10      3     20 1
    11      4     21 1
    12      4     22 1
    13      4     23 1
    14      5      6 1
    15      6      7 2
    16      6      8 am
    17      8      9 1
    18      8     14 1
    19      9     10 1
    20      9     24 1
    21      9     25 1
    22     10     11 1
    23     10     13 1
    24     10     14 1
    25     11     12 1
    26     11     26 1
    27     11     27 1
    28     12     13 1
    29     12     28 1
    30     12     29 1
    31     14     30 1
    32     14     31 1
    33     32     33 2
    34     33     34 1
    35     34     35 ar
    36     34     39 ar
    37     35     36 ar
    38     35     48 1
    39     36     37 ar
    40     36     41 1
    41     37     38 ar
    42     37     49 1
    43     38     39 ar
    44     38     50 1
    45     39     40 1
    46     41     42 2
    47     41     43 2
    48     41     44 1
    49     44     45 1
    50     44     51 1
    51     44     52 1
    52     45     46 1
    53     45     53 1
    54     45     54 1
    55     46     47 3
    56     47     55 1
    57     13     33 am
@<TRIPOS>SUBSTRUCTURE
     1 BB1          13
     2 BB2          33
@<TRIPOS>MOLECULE
EN300-256216_i001_EN300-4287209_i001_13_3_1
  46   48   2   0   0
SMALL
USER_CHARGES
@<TRIPOS>ATOM
     1 C1        -0.7249   -22.5283    12.2507 C.3        1 BB1          0.0000
     2 C2        -0.1883   -21.5291    13.2776 C.3        1 BB1          0.0000
     3 C3        -1.1474   -21.4561    14.4676 C.3        1 BB1          0.0000
     4 C4         1.1901   -21.9846    13.7607 C.3        1 BB1          0.0000
     5 O5        -0.0773   -20.2175    12.6645 O.3        1 BB1          0.0000
     6 C6         0.1734   -19.1790    13.4838 C.2        1 BB1          0.0000
     7 O7         0.6469   -19.3748    14.5855 O.2        1 BB1          0.0000
     8 N8        -0.1010   -17.9221    13.0819 N.am       1 BB1          0.0000
     9 C9        -0.6575   -17.2972    11.8695 C.3        1 BB1          0.0000
    10 C10        0.1124   -16.0378    12.2423 C.3        1 BB1          0.0000
    11 C11       -0.3819   -14.6424    11.8683 C.3        1 BB1          0.0000
    12 C12        0.7092   -14.6698    10.7792 C.3        1 BB1          0.0000
    13 N13        1.3904   -15.6866    11.6154 N.am       1 BB1          0.0000
    14 C14        0.0186   -16.5753    13.6664 C.3        1 BB1          0.0000
    15 H15       -1.7069   -22.2037    11.9066 H          1 BB1          0.0000
    16 H16       -0.0417   -22.5802    11.4030 H          1 BB1          0.0000
    17 H17       -0.8082   -23.5128    12.7109 H          1 BB1          0.0000
    18 H18       -1.2307   -22.4406    14.9278 H          1 BB1          0.0000
    19 H19       -0.7652   -20.7442    15.1991 H          1 BB1          0.0000
    20 H20       -2.1294   -21.1316    14.1234 H          1 BB1          0.0000
    21 H21        1.8732   -22.0365    12.9130 H          1 BB1          0.0000
    22 H22        1.5722   -21.2727    14.4922 H          1 BB1          0.0000
    23 H23        1.1066   -22.9691    14.2209 H          1 BB1          0.0000
    24 H24       -0.3132   -17.7598    10.9445 H          1 BB1          0.0000
    25 H25       -1.7397   -17.1714    11.9022 H          1 BB1          0.0000
    26 H26       -1.3977   -14.6266    11.4732 H          1 BB1          0.0000
    27 H27       -0.2127   -13.8935    12.6420 H          1 BB1          0.0000
    28 H28        0.3613   -15.0530     9.8199 H          1 BB1          0.0000
    29 H29        1.2619   -13.7348    10.6890 H          1 BB1          0.0000
    30 H30       -0.8746   -16.2464    14.1976 H          1 BB1          0.0000
    31 H31        0.9312   -16.4341    14.2457 H          1 BB1          0.0000
    32 O1         0.9022   -15.2848    11.2052 O.2        2 BB2          0.0000
    33 C2        -0.0043   -14.5201    11.5040 C.2        2 BB2          0.0000
    34 C4        -0.4017   -13.4480    10.5724 C.ar       2 BB2          0.0000
    35 C5        -1.5033   -12.6425    10.8617 C.ar       2 BB2          0.0000
    36 C6        -1.8709   -11.6325     9.9767 C.ar       2 BB2          0.0000
    37 C7        -3.0001   -10.8010    10.2667 C.1        2 BB2          0.0000
    38 C8        -3.9259   -10.1193    10.5044 C.1        2 BB2          0.0000
    39 C9        -1.1364   -11.4311     8.8058 C.ar       2 BB2          0.0000
    40 C10       -0.0472   -12.2308     8.5230 C.ar       2 BB2          0.0000
    41 C11        0.3287   -13.2319     9.3982 C.ar       2 BB2          0.0000
    42 Cl12       1.6998   -14.2324     9.0338 Cl         2 BB2          0.0000
    43 H13       -2.0687   -12.8018    11.7680 H          2 BB2          0.0000
    44 H14       -4.7538    -9.5095    10.7170 H          2 BB2          0.0000
    45 H15       -1.4217   -10.6476     8.1195 H          2 BB2          0.0000
    46 H16        0.5164   -12.0702     7.6158 H          2 BB2          0.0000
@<TRIPOS>BOND
     1      1      2 1
     2      1     15 1
     3      1     16 1
     4      1     17 1
     5      2      3 1
     6      2      4 1
     7      2      5 1
     8      3     18 1
     9      3     19 1
    10      3     20 1
    11      4     21 1
    12      4     22 1
    13      4     23 1
    14      5      6 1
    15      6      7 2
    16      6      8 am
    17      8      9 1
    18      8     14 1
    19      9     10 1
    20      9     24 1
    21      9     25 1
    22     10     11 1
    23     10     13 1
    24     10     14 1
    25     11     12 1
    26     11     26 1
    27     11     27 1
    28     12     13 1
    29     12     28 1
    30     12     29 1
    31     14     30 1
    32     14     31 1
    33     32     33 2
    34     33     34 1
    35     34     35 ar
    36     34     41 ar
    37     35     36 ar
    38     35     43 1
    39     36     37 1
    40     36     39 ar
    41     37     38 3
    42     38     44 1
    43     39     40 ar
    44     39     45 1
    45     40     41 ar
    46     40     46 1
    47     41     42 1
    48     13     33 am
@<TRIPOS>SUBSTRUCTURE
     1 BB1          13
     2 BB2          33
@<TRIPOS>MOLECULE
EN300-256216_i001_EN300-19857_i001_13_20_1
  44   46   2   0   0
SMALL
USER_CHARGES
@<TRIPOS>ATOM
     1 C1        -0.7249   -22.5283    12.2507 C.3        1 BB1          0.0000
     2 C2        -0.1883   -21.5291    13.2776 C.3        1 BB1          0.0000
     3 C3        -1.1474   -21.4561    14.4676 C.3        1 BB1          0.0000
     4 C4         1.1901   -21.9846    13.7607 C.3        1 BB1          0.0000
     5 O5        -0.0773   -20.2175    12.6645 O.3        1 BB1          0.0000
     6 C6         0.1734   -19.1790    13.4838 C.2        1 BB1          0.0000
     7 O7         0.6469   -19.3748    14.5855 O.2        1 BB1          0.0000
     8 N8        -0.1010   -17.9221    13.0819 N.am       1 BB1          0.0000
     9 C9        -0.6575   -17.2972    11.8695 C.3        1 BB1          0.0000
    10 C10        0.1124   -16.0378    12.2423 C.3        1 BB1          0.0000
    11 C11       -0.3819   -14.6424    11.8683 C.3        1 BB1          0.0000
    12 C12        0.7092   -14.6698    10.7792 C.3        1 BB1          0.0000
    13 N13        1.3904   -15.6866    11.6154 N.am       1 BB1          0.0000
    14 C14        0.0186   -16.5753    13.6664 C.3        1 BB1          0.0000
    15 H15       -1.7069   -22.2037    11.9066 H          1 BB1          0.0000
    16 H16       -0.0417   -22.5802    11.4030 H          1 BB1          0.0000
    17 H17       -0.8082   -23.5128    12.7109 H          1 BB1          0.0000
    18 H18       -1.2307   -22.4406    14.9278 H          1 BB1          0.0000
    19 H19       -0.7652   -20.7442    15.1991 H          1 BB1          0.0000
    20 H20       -2.1294   -21.1316    14.1234 H          1 BB1          0.0000
    21 H21        1.8732   -22.0365    12.9130 H          1 BB1          0.0000
    22 H22        1.5722   -21.2727    14.4922 H          1 BB1          0.0000
    23 H23        1.1066   -22.9691    14.2209 H          1 BB1          0.0000
    24 H24       -0.3132   -17.7598    10.9445 H          1 BB1          0.0000
    25 H25       -1.7397   -17.1714    11.9022 H          1 BB1          0.0000
    26 H26       -1.3977   -14.6266    11.4732 H          1 BB1          0.0000
    27 H27       -0.2127   -13.8935    12.6420 H          1 BB1          0.0000
    28 H28        0.3613   -15.0530     9.8199 H          1 BB1          0.0000
    29 H29        1.2619   -13.7348    10.6890 H          1 BB1          0.0000
    30 H30       -0.8746   -16.2464    14.1976 H          1 BB1          0.0000
    31 H31        0.9312   -16.4341    14.2457 H          1 BB1          0.0000
    32 C2        -0.0612   -14.3703    11.2846 C.2        2 BB2          0.0000
    33 O3         0.9101   -15.0078    10.9027 O.2        2 BB2          0.0000
    34 C4        -0.4899   -13.1665    10.5471 C.ar       2 BB2          0.0000
    35 C5         0.2870   -12.6738     9.4958 C.ar       2 BB2          0.0000
    36 C6        -0.1195   -11.5478     8.8104 C.ar       2 BB2          0.0000
    37 C7        -1.2938   -10.9062     9.1618 C.ar       2 BB2          0.0000
    38 C8        -2.0692   -11.3882    10.2031 C.ar       2 BB2          0.0000
    39 Br9       -3.6723   -10.5028    10.6742 Br         2 BB2          0.0000
    40 C10       -1.6778   -12.5173    10.8933 C.ar       2 BB2          0.0000
    41 H11        1.2041   -13.1732     9.2205 H          2 BB2          0.0000
    42 H12        0.4805   -11.1659     7.9978 H          2 BB2          0.0000
    43 H13       -1.6071   -10.0250     8.6216 H          2 BB2          0.0000
    44 H14       -2.2830   -12.8926    11.7053 H          2 BB2          0.0000
@<TRIPOS>BOND
     1      1      2 1
     2      1     15 1
     3      1     16 1
     4      1     17 1
     5      2      3 1
     6      2      4 1
     7      2      5 1
     8      3     18 1
     9      3     19 1
    10      3     20 1
    11      4     21 1
    12      4     22 1
    13      4     23 1
    14      5      6 1
    15      6      7 2
    16      6      8 am
    17      8      9 1
    18      8     14 1
    19      9     10 1
    20      9     24 1
    21      9     25 1
    22     10     11 1
    23     10     13 1
    24     10     14 1
    25     11     12 1
    26     11     26 1
    27     11     27 1
    28     12     13 1
    29     12     28 1
    30     12     29 1
    31     14     30 1
    32     14     31 1
    33     32     33 2
    34     32     34 1
    35     34     35 ar
    36     34     40 ar
    37     35     36 ar
    38     35     41 1
    39     36     37 ar
    40     36     42 1
    41     37     38 ar
    42     37     43 1
    43     38     39 1
    44     38     40 ar
    45     40     44 1
    46     13     32 am
@<TRIPOS>SUBSTRUCTURE
     1 BB1          13
     2 BB2          32
@<TRIPOS>MOLECULE
EN300-256216_i001_EN300-222254_i002_13_7_1
  54   57   2   0   0
SMALL
USER_CHARGES
@<TRIPOS>ATOM
     1 C1        -0.7249   -22.5283    12.2507 C.3        1 BB1          0.0000
     2 C2        -0.1883   -21.5291    13.2776 C.3        1 BB1          0.0000
     3 C3        -1.1474   -21.4561    14.4676 C.3        1 BB1          0.0000
     4 C4         1.1901   -21.9846    13.7607 C.3        1 BB1          0.0000
     5 O5        -0.0773   -20.2175    12.6645 O.3        1 BB1          0.0000
     6 C6         0.1734   -19.1790    13.4838 C.2        1 BB1          0.0000
     7 O7         0.6469   -19.3748    14.5855 O.2        1 BB1          0.0000
     8 N8        -0.1010   -17.9221    13.0819 N.am       1 BB1          0.0000
     9 C9        -0.6575   -17.2972    11.8695 C.3        1 BB1          0.0000
    10 C10        0.1124   -16.0378    12.2423 C.3        1 BB1          0.0000
    11 C11       -0.3819   -14.6424    11.8683 C.3        1 BB1          0.0000
    12 C12        0.7092   -14.6698    10.7792 C.3        1 BB1          0.0000
    13 N13        1.3904   -15.6866    11.6154 N.am       1 BB1          0.0000
    14 C14        0.0186   -16.5753    13.6664 C.3        1 BB1          0.0000
    15 H15       -1.7069   -22.2037    11.9066 H          1 BB1          0.0000
    16 H16       -0.0417   -22.5802    11.4030 H          1 BB1          0.0000
    17 H17       -0.8082   -23.5128    12.7109 H          1 BB1          0.0000
    18 H18       -1.2307   -22.4406    14.9278 H          1 BB1          0.0000
    19 H19       -0.7652   -20.7442    15.1991 H          1 BB1          0.0000
    20 H20       -2.1294   -21.1316    14.1234 H          1 BB1          0.0000
    21 H21        1.8732   -22.0365    12.9130 H          1 BB1          0.0000
    22 H22        1.5722   -21.2727    14.4922 H          1 BB1          0.0000
    23 H23        1.1066   -22.9691    14.2209 H          1 BB1          0.0000
    24 H24       -0.3132   -17.7598    10.9445 H          1 BB1          0.0000
    25 H25       -1.7397   -17.1714    11.9022 H          1 BB1          0.0000
    26 H26       -1.3977   -14.6266    11.4732 H          1 BB1          0.0000
    27 H27       -0.2127   -13.8935    12.6420 H          1 BB1          0.0000
    28 H28        0.3613   -15.0530     9.8199 H          1 BB1          0.0000
    29 H29        1.2619   -13.7348    10.6890 H          1 BB1          0.0000
    30 H30       -0.8746   -16.2464    14.1976 H          1 BB1          0.0000
    31 H31        0.9312   -16.4341    14.2457 H          1 BB1          0.0000
    32 O1         1.0761   -15.2604    11.4874 O.2        2 BB2          0.0000
    33 C2         0.0691   -14.5794    11.3943 C.2        2 BB2          0.0000
    34 C4        -0.3286   -14.0010    10.0609 C.3        2 BB2          0.0000
    35 C5         0.7881   -14.0614     9.0053 C.3        2 BB2          0.0000
    36 C6         0.3404   -12.6575     8.5654 C.3        2 BB2          0.0000
    37 C7        -0.2035   -12.4698     9.9915 C.3        2 BB2          0.0000
    38 C8        -1.5280   -11.7529    10.0428 C.ar       2 BB2          0.0000
    39 C9        -2.6243   -12.2791     9.3866 C.ar       2 BB2          0.0000
    40 C10       -3.8397   -11.6218     9.4328 C.ar       2 BB2          0.0000
    41 C11       -3.9599   -10.4369    10.1366 C.ar       2 BB2          0.0000
    42 Cl12      -5.4867    -9.6127    10.1944 Cl         2 BB2          0.0000
    43 C13       -2.8635    -9.9090    10.7946 C.ar       2 BB2          0.0000
    44 C14       -1.6479   -10.5698    10.7526 C.ar       2 BB2          0.0000
    45 F15       -0.5765   -10.0555    11.3951 F          2 BB2          0.0000
    46 H16       -1.2870   -14.3786     9.7046 H          2 BB2          0.0000
    47 H17        1.7910   -14.0862     9.4316 H          2 BB2          0.0000
    48 H18        0.6306   -14.8277     8.2463 H          2 BB2          0.0000
    49 H19        1.1683   -11.9913     8.3226 H          2 BB2          0.0000
    50 H20       -0.4354   -12.6666     7.7998 H          2 BB2          0.0000
    51 H21        0.5283   -12.0595    10.6874 H          2 BB2          0.0000
    52 H22       -2.5316   -13.2041     8.8369 H          2 BB2          0.0000
    53 H23       -4.6958   -12.0336     8.9190 H          2 BB2          0.0000
    54 H24       -2.9569    -8.9840    11.3440 H          2 BB2          0.0000
@<TRIPOS>BOND
     1      1      2 1
     2      1     15 1
     3      1     16 1
     4      1     17 1
     5      2      3 1
     6      2      4 1
     7      2      5 1
     8      3     18 1
     9      3     19 1
    10      3     20 1
    11      4     21 1
    12      4     22 1
    13      4     23 1
    14      5      6 1
    15      6      7 2
    16      6      8 am
    17      8      9 1
    18      8     14 1
    19      9     10 1
    20      9     24 1
    21      9     25 1
    22     10     11 1
    23     10     13 1
    24     10     14 1
    25     11     12 1
    26     11     26 1
    27     11     27 1
    28     12     13 1
    29     12     28 1
    30     12     29 1
    31     14     30 1
    32     14     31 1
    33     32     33 2
    34     33     34 1
    35     34     35 1
    36     34     37 1
    37     34     46 1
    38     35     36 1
    39     35     47 1
    40     35     48 1
    41     36     37 1
    42     36     49 1
    43     36     50 1
    44     37     38 1
    45     37     51 1
    46     38     39 ar
    47     38     44 ar
    48     39     40 ar
    49     39     52 1
    50     40     41 ar
    51     40     53 1
    52     41     42 1
    53     41     43 ar
    54     43     44 ar
    55     43     54 1
    56     44     45 1
    57     13     33 am
@<TRIPOS>SUBSTRUCTURE
     1 BB1          13
     2 BB2          33
@<TRIPOS>MOLECULE
EN300-256216_i001_EN300-306118_i001_13_10_1
  53   56   2   0   0
SMALL
USER_CHARGES
@<TRIPOS>ATOM
     1 C1        -0.7249   -22.5283    12.2507 C.3        1 BB1          0.0000
     2 C2        -0.1883   -21.5291    13.2776 C.3        1 BB1          0.0000
     3 C3        -1.1474   -21.4561    14.4676 C.3        1 BB1          0.0000
     4 C4         1.1901   -21.9846    13.7607 C.3        1 BB1          0.0000
     5 O5        -0.0773   -20.2175    12.6645 O.3        1 BB1          0.0000
     6 C6         0.1734   -19.1790    13.4838 C.2        1 BB1          0.0000
     7 O7         0.6469   -19.3748    14.5855 O.2        1 BB1          0.0000
     8 N8        -0.1010   -17.9221    13.0819 N.am       1 BB1          0.0000
     9 C9        -0.6575   -17.2972    11.8695 C.3        1 BB1          0.0000
    10 C10        0.1124   -16.0378    12.2423 C.3        1 BB1          0.0000
    11 C11       -0.3819   -14.6424    11.8683 C.3        1 BB1          0.0000
    12 C12        0.7092   -14.6698    10.7792 C.3        1 BB1          0.0000
    13 N13        1.3904   -15.6866    11.6154 N.am       1 BB1          0.0000
    14 C14        0.0186   -16.5753    13.6664 C.3        1 BB1          0.0000
    15 H15       -1.7069   -22.2037    11.9066 H          1 BB1          0.0000
    16 H16       -0.0417   -22.5802    11.4030 H          1 BB1          0.0000
    17 H17       -0.8082   -23.5128    12.7109 H          1 BB1          0.0000
    18 H18       -1.2307   -22.4406    14.9278 H          1 BB1          0.0000
    19 H19       -0.7652   -20.7442    15.1991 H          1 BB1          0.0000
    20 H20       -2.1294   -21.1316    14.1234 H          1 BB1          0.0000
    21 H21        1.8732   -22.0365    12.9130 H          1 BB1          0.0000
    22 H22        1.5722   -21.2727    14.4922 H          1 BB1          0.0000
    23 H23        1.1066   -22.9691    14.2209 H          1 BB1          0.0000
    24 H24       -0.3132   -17.7598    10.9445 H          1 BB1          0.0000
    25 H25       -1.7397   -17.1714    11.9022 H          1 BB1          0.0000
    26 H26       -1.3977   -14.6266    11.4732 H          1 BB1          0.0000
    27 H27       -0.2127   -13.8935    12.6420 H          1 BB1          0.0000
    28 H28        0.3613   -15.0530     9.8199 H          1 BB1          0.0000
    29 H29        1.2619   -13.7348    10.6890 H          1 BB1          0.0000
    30 H30       -0.8746   -16.2464    14.1976 H          1 BB1          0.0000
    31 H31        0.9312   -16.4341    14.2457 H          1 BB1          0.0000
    32 C2         0.1195   -14.4038    10.7566 C.2        2 BB2          0.0000
    33 O3         0.6856   -15.3919    11.2023 O.2        2 BB2          0.0000
    34 C4         0.4114   -13.9416     9.3863 C.ar       2 BB2          0.0000
    35 C5         0.5717   -14.8674     8.3525 C.ar       2 BB2          0.0000
    36 C6         0.8445   -14.4280     7.0737 C.ar       2 BB2          0.0000
    37 C7         0.9599   -13.0739     6.8139 C.ar       2 BB2          0.0000
    38 C8         0.8024   -12.1509     7.8331 C.ar       2 BB2          0.0000
    39 C9         0.5231   -12.5754     9.1151 C.ar       2 BB2          0.0000
    40 C10        0.3514   -11.5687    10.2234 C.3        2 BB2          0.0000
    41 N11       -1.0436   -11.1231    10.2665 N.pl3      2 BB2          0.0000
    42 C12       -1.4690    -9.8410    10.1885 C.2        2 BB2          0.0000
    43 C13       -2.8194    -9.8863    10.2682 C.2        2 BB2          0.0000
    44 N14       -3.1497   -11.1769    10.3896 N.2        2 BB2          0.0000
    45 N15       -2.0753   -11.8843    10.3797 N.2        2 BB2          0.0000
    46 H16        0.4826   -15.9247     8.5541 H          2 BB2          0.0000
    47 H17        0.9688   -15.1425     6.2735 H          2 BB2          0.0000
    48 H18        1.1744   -12.7356     5.8108 H          2 BB2          0.0000
    49 H19        0.8941   -11.0955     7.6231 H          2 BB2          0.0000
    50 H20        0.6156   -12.0283    11.1758 H          2 BB2          0.0000
    51 H21        1.0008   -10.7127    10.0405 H          2 BB2          0.0000
    52 H22       -0.8546    -8.9590    10.0839 H          2 BB2          0.0000
    53 H23       -3.4970    -9.0458    10.2398 H          2 BB2          0.0000
@<TRIPOS>BOND
     1      1      2 1
     2      1     15 1
     3      1     16 1
     4      1     17 1
     5      2      3 1
     6      2      4 1
     7      2      5 1
     8      3     18 1
     9      3     19 1
    10      3     20 1
    11      4     21 1
    12      4     22 1
    13      4     23 1
    14      5      6 1
    15      6      7 2
    16      6      8 am
    17      8      9 1
    18      8     14 1
    19      9     10 1
    20      9     24 1
    21      9     25 1
    22     10     11 1
    23     10     13 1
    24     10     14 1
    25     11     12 1
    26     11     26 1
    27     11     27 1
    28     12     13 1
    29     12     28 1
    30     12     29 1
    31     14     30 1
    32     14     31 1
    33     32     33 2
    34     32     34 1
    35     34     35 ar
    36     34     39 ar
    37     35     36 ar
    38     35     46 1
    39     36     37 ar
    40     36     47 1
    41     37     38 ar
    42     37     48 1
    43     38     39 ar
    44     38     49 1
    45     39     40 1
    46     40     41 1
    47     40     50 1
    48     40     51 1
    49     41     42 1
    50     41     45 1
    51     42     43 2
    52     42     52 1
    53     43     44 1
    54     43     53 1
    55     44     45 2
    56     13     32 am
@<TRIPOS>SUBSTRUCTURE
     1 BB1          13
     2 BB2          32
@<TRIPOS>MOLECULE
EN300-256216_i001_EN300-306118_i001_13_13_1
  53   56   2   0   0
SMALL
USER_CHARGES
@<TRIPOS>ATOM
     1 C1        -0.7249   -22.5283    12.2507 C.3        1 BB1          0.0000
     2 C2        -0.1883   -21.5291    13.2776 C.3        1 BB1          0.0000
     3 C3        -1.1474   -21.4561    14.4676 C.3        1 BB1          0.0000
     4 C4         1.1901   -21.9846    13.7607 C.3        1 BB1          0.0000
     5 O5        -0.0773   -20.2175    12.6645 O.3        1 BB1          0.0000
     6 C6         0.1734   -19.1790    13.4838 C.2        1 BB1          0.0000
     7 O7         0.6469   -19.3748    14.5855 O.2        1 BB1          0.0000
     8 N8        -0.1010   -17.9221    13.0819 N.am       1 BB1          0.0000
     9 C9        -0.6575   -17.2972    11.8695 C.3        1 BB1          0.0000
    10 C10        0.1124   -16.0378    12.2423 C.3        1 BB1          0.0000
    11 C11       -0.3819   -14.6424    11.8683 C.3        1 BB1          0.0000
    12 C12        0.7092   -14.6698    10.7792 C.3        1 BB1          0.0000
    13 N13        1.3904   -15.6866    11.6154 N.am       1 BB1          0.0000
    14 C14        0.0186   -16.5753    13.6664 C.3        1 BB1          0.0000
    15 H15       -1.7069   -22.2037    11.9066 H          1 BB1          0.0000
    16 H16       -0.0417   -22.5802    11.4030 H          1 BB1          0.0000
    17 H17       -0.8082   -23.5128    12.7109 H          1 BB1          0.0000
    18 H18       -1.2307   -22.4406    14.9278 H          1 BB1          0.0000
    19 H19       -0.7652   -20.7442    15.1991 H          1 BB1          0.0000
    20 H20       -2.1294   -21.1316    14.1234 H          1 BB1          0.0000
    21 H21        1.8732   -22.0365    12.9130 H          1 BB1          0.0000
    22 H22        1.5722   -21.2727    14.4922 H          1 BB1          0.0000
    23 H23        1.1066   -22.9691    14.2209 H          1 BB1          0.0000
    24 H24       -0.3132   -17.7598    10.9445 H          1 BB1          0.0000
    25 H25       -1.7397   -17.1714    11.9022 H          1 BB1          0.0000
    26 H26       -1.3977   -14.6266    11.4732 H          1 BB1          0.0000
    27 H27       -0.2127   -13.8935    12.6420 H          1 BB1          0.0000
    28 H28        0.3613   -15.0530     9.8199 H          1 BB1          0.0000
    29 H29        1.2619   -13.7348    10.6890 H          1 BB1          0.0000
    30 H30       -0.8746   -16.2464    14.1976 H          1 BB1          0.0000
    31 H31        0.9312   -16.4341    14.2457 H          1 BB1          0.0000
    32 O1        -0.3061   -15.6175    10.8075 O.2        2 BB2          0.0000
    33 C2        -0.2542   -14.4147    11.0220 C.2        2 BB2          0.0000
    34 C4        -0.0888   -13.4717     9.8995 C.ar       2 BB2          0.0000
    35 C5         0.7755   -13.7793     8.8460 C.ar       2 BB2          0.0000
    36 C6         0.9252   -12.8927     7.7999 C.ar       2 BB2          0.0000
    37 C7         0.2221   -11.7011     7.7926 C.ar       2 BB2          0.0000
    38 C8        -0.6359   -11.3897     8.8329 C.ar       2 BB2          0.0000
    39 C9        -0.8003   -12.2692     9.8823 C.ar       2 BB2          0.0000
    40 C10       -1.7356   -11.9285    11.0138 C.3        2 BB2          0.0000
    41 N11       -2.8881   -11.1914    10.4898 N.pl3      2 BB2          0.0000
    42 C12       -3.9824   -11.7380     9.9113 C.2        2 BB2          0.0000
    43 C13       -4.7891   -10.7036     9.5780 C.2        2 BB2          0.0000
    44 N14       -4.1572    -9.5894     9.9637 N.2        2 BB2          0.0000
    45 N15       -3.0361    -9.9129    10.5053 N.2        2 BB2          0.0000
    46 H16        1.3254   -14.7088     8.8509 H          2 BB2          0.0000
    47 H17        1.5931   -13.1291     6.9848 H          2 BB2          0.0000
    48 H18        0.3438   -11.0104     6.9712 H          2 BB2          0.0000
    49 H19       -1.1813   -10.4576     8.8207 H          2 BB2          0.0000
    50 H20       -2.0780   -12.8466    11.4912 H          2 BB2          0.0000
    51 H21       -1.2121   -11.3124    11.7448 H          2 BB2          0.0000
    52 H22       -4.1735   -12.7883     9.7481 H          2 BB2          0.0000
    53 H23       -5.7532   -10.7654     9.0952 H          2 BB2          0.0000
@<TRIPOS>BOND
     1      1      2 1
     2      1     15 1
     3      1     16 1
     4      1     17 1
     5      2      3 1
     6      2      4 1
     7      2      5 1
     8      3     18 1
     9      3     19 1
    10      3     20 1
    11      4     21 1
    12      4     22 1
    13      4     23 1
    14      5      6 1
    15      6      7 2
    16      6      8 am
    17      8      9 1
    18      8     14 1
    19      9     10 1
    20      9     24 1
    21      9     25 1
    22     10     11 1
    23     10     13 1
    24     10     14 1
    25     11     12 1
    26     11     26 1
    27     11     27 1
    28     12     13 1
    29     12     28 1
    30     12     29 1
    31     14     30 1
    32     14     31 1
    33     32     33 2
    34     33     34 1
    35     34     35 ar
    36     34     39 ar
    37     35     36 ar
    38     35     46 1
    39     36     37 ar
    40     36     47 1
    41     37     38 ar
    42     37     48 1
    43     38     39 ar
    44     38     49 1
    45     39     40 1
    46     40     41 1
    47     40     50 1
    48     40     51 1
    49     41     42 1
    50     41     45 1
    51     42     43 2
    52     42     52 1
    53     43     44 1
    54     43     53 1
    55     44     45 2
    56     13     33 am
@<TRIPOS>SUBSTRUCTURE
     1 BB1          13
     2 BB2          33
@<TRIPOS>MOLECULE
EN300-256216_i001_EN300-306118_i001_13_14_1
  53   56   2   0   0
SMALL
USER_CHARGES
@<TRIPOS>ATOM
     1 C1        -0.7249   -22.5283    12.2507 C.3        1 BB1          0.0000
     2 C2        -0.1883   -21.5291    13.2776 C.3        1 BB1          0.0000
     3 C3        -1.1474   -21.4561    14.4676 C.3        1 BB1          0.0000
     4 C4         1.1901   -21.9846    13.7607 C.3        1 BB1          0.0000
     5 O5        -0.0773   -20.2175    12.6645 O.3        1 BB1          0.0000
     6 C6         0.1734   -19.1790    13.4838 C.2        1 BB1          0.0000
     7 O7         0.6469   -19.3748    14.5855 O.2        1 BB1          0.0000
     8 N8        -0.1010   -17.9221    13.0819 N.am       1 BB1          0.0000
     9 C9        -0.6575   -17.2972    11.8695 C.3        1 BB1          0.0000
    10 C10        0.1124   -16.0378    12.2423 C.3        1 BB1          0.0000
    11 C11       -0.3819   -14.6424    11.8683 C.3        1 BB1          0.0000
    12 C12        0.7092   -14.6698    10.7792 C.3        1 BB1          0.0000
    13 N13        1.3904   -15.6866    11.6154 N.am       1 BB1          0.0000
    14 C14        0.0186   -16.5753    13.6664 C.3        1 BB1          0.0000
    15 H15       -1.7069   -22.2037    11.9066 H          1 BB1          0.0000
    16 H16       -0.0417   -22.5802    11.4030 H          1 BB1          0.0000
    17 H17       -0.8082   -23.5128    12.7109 H          1 BB1          0.0000
    18 H18       -1.2307   -22.4406    14.9278 H          1 BB1          0.0000
    19 H19       -0.7652   -20.7442    15.1991 H          1 BB1          0.0000
    20 H20       -2.1294   -21.1316    14.1234 H          1 BB1          0.0000
    21 H21        1.8732   -22.0365    12.9130 H          1 BB1          0.0000
    22 H22        1.5722   -21.2727    14.4922 H          1 BB1          0.0000
    23 H23        1.1066   -22.9691    14.2209 H          1 BB1          0.0000
    24 H24       -0.3132   -17.7598    10.9445 H          1 BB1          0.0000
    25 H25       -1.7397   -17.1714    11.9022 H          1 BB1          0.0000
    26 H26       -1.3977   -14.6266    11.4732 H          1 BB1          0.0000
    27 H27       -0.2127   -13.8935    12.6420 H          1 BB1          0.0000
    28 H28        0.3613   -15.0530     9.8199 H          1 BB1          0.0000
    29 H29        1.2619   -13.7348    10.6890 H          1 BB1          0.0000
    30 H30       -0.8746   -16.2464    14.1976 H          1 BB1          0.0000
    31 H31        0.9312   -16.4341    14.2457 H          1 BB1          0.0000
    32 O1         0.4427   -14.7325    10.7035 O.2        2 BB2          0.0000
    33 C2         0.2503   -14.8942     9.5067 C.2        2 BB2          0.0000
    34 C4         0.4361   -13.7687     8.5711 C.ar       2 BB2          0.0000
    35 C5         1.0712   -13.9736     7.3438 C.ar       2 BB2          0.0000
    36 C6         1.2414   -12.9166     6.4741 C.ar       2 BB2          0.0000
    37 C7         0.7852   -11.6556     6.8150 C.ar       2 BB2          0.0000
    38 C8         0.1551   -11.4451     8.0291 C.ar       2 BB2          0.0000
    39 C9        -0.0276   -12.4937     8.9058 C.ar       2 BB2          0.0000
    40 C10       -0.7145   -12.2625    10.2272 C.3        2 BB2          0.0000
    41 N11       -1.8406   -11.3447    10.0382 N.pl3      2 BB2          0.0000
    42 C12       -3.1396   -11.6193    10.2990 C.2        2 BB2          0.0000
    43 C13       -3.8324   -10.5002     9.9835 C.2        2 BB2          0.0000
    44 N14       -2.9351    -9.6073     9.5507 N.2        2 BB2          0.0000
    45 N15       -1.7637   -10.1366     9.6005 N.2        2 BB2          0.0000
    46 H16        1.4284   -14.9573     7.0769 H          2 BB2          0.0000
    47 H17        1.7323   -13.0735     5.5250 H          2 BB2          0.0000
    48 H18        0.9219   -10.8314     6.1303 H          2 BB2          0.0000
    49 H19       -0.1982   -10.4580     8.2887 H          2 BB2          0.0000
    50 H20       -1.0811   -13.2120    10.6171 H          2 BB2          0.0000
    51 H21       -0.0068   -11.8286    10.9335 H          2 BB2          0.0000
    52 H22       -3.5426   -12.5453    10.6817 H          2 BB2          0.0000
    53 H23       -4.8996   -10.3563    10.0648 H          2 BB2          0.0000
@<TRIPOS>BOND
     1      1      2 1
     2      1     15 1
     3      1     16 1
     4      1     17 1
     5      2      3 1
     6      2      4 1
     7      2      5 1
     8      3     18 1
     9      3     19 1
    10      3     20 1
    11      4     21 1
    12      4     22 1
    13      4     23 1
    14      5      6 1
    15      6      7 2
    16      6      8 am
    17      8      9 1
    18      8     14 1
    19      9     10 1
    20      9     24 1
    21      9     25 1
    22     10     11 1
    23     10     13 1
    24     10     14 1
    25     11     12 1
    26     11     26 1
    27     11     27 1
    28     12     13 1
    29     12     28 1
    30     12     29 1
    31     14     30 1
    32     14     31 1
    33     32     33 2
    34     33     34 1
    35     34     35 ar
    36     34     39 ar
    37     35     36 ar
    38     35     46 1
    39     36     37 ar
    40     36     47 1
    41     37     38 ar
    42     37     48 1
    43     38     39 ar
    44     38     49 1
    45     39     40 1
    46     40     41 1
    47     40     50 1
    48     40     51 1
    49     41     42 1
    50     41     45 1
    51     42     43 2
    52     42     52 1
    53     43     44 1
    54     43     53 1
    55     44     45 2
    56     13     33 am
@<TRIPOS>SUBSTRUCTURE
     1 BB1          13
     2 BB2          33
@<TRIPOS>MOLECULE
EN300-256216_i001_EN300-306118_i001_13_17_1
  53   56   2   0   0
SMALL
USER_CHARGES
@<TRIPOS>ATOM
     1 C1        -0.7249   -22.5283    12.2507 C.3        1 BB1          0.0000
     2 C2        -0.1883   -21.5291    13.2776 C.3        1 BB1          0.0000
     3 C3        -1.1474   -21.4561    14.4676 C.3        1 BB1          0.0000
     4 C4         1.1901   -21.9846    13.7607 C.3        1 BB1          0.0000
     5 O5        -0.0773   -20.2175    12.6645 O.3        1 BB1          0.0000
     6 C6         0.1734   -19.1790    13.4838 C.2        1 BB1          0.0000
     7 O7         0.6469   -19.3748    14.5855 O.2        1 BB1          0.0000
     8 N8        -0.1010   -17.9221    13.0819 N.am       1 BB1          0.0000
     9 C9        -0.6575   -17.2972    11.8695 C.3        1 BB1          0.0000
    10 C10        0.1124   -16.0378    12.2423 C.3        1 BB1          0.0000
    11 C11       -0.3819   -14.6424    11.8683 C.3        1 BB1          0.0000
    12 C12        0.7092   -14.6698    10.7792 C.3        1 BB1          0.0000
    13 N13        1.3904   -15.6866    11.6154 N.am       1 BB1          0.0000
    14 C14        0.0186   -16.5753    13.6664 C.3        1 BB1          0.0000
    15 H15       -1.7069   -22.2037    11.9066 H          1 BB1          0.0000
    16 H16       -0.0417   -22.5802    11.4030 H          1 BB1          0.0000
    17 H17       -0.8082   -23.5128    12.7109 H          1 BB1          0.0000
    18 H18       -1.2307   -22.4406    14.9278 H          1 BB1          0.0000
    19 H19       -0.7652   -20.7442    15.1991 H          1 BB1          0.0000
    20 H20       -2.1294   -21.1316    14.1234 H          1 BB1          0.0000
    21 H21        1.8732   -22.0365    12.9130 H          1 BB1          0.0000
    22 H22        1.5722   -21.2727    14.4922 H          1 BB1          0.0000
    23 H23        1.1066   -22.9691    14.2209 H          1 BB1          0.0000
    24 H24       -0.3132   -17.7598    10.9445 H          1 BB1          0.0000
    25 H25       -1.7397   -17.1714    11.9022 H          1 BB1          0.0000
    26 H26       -1.3977   -14.6266    11.4732 H          1 BB1          0.0000
    27 H27       -0.2127   -13.8935    12.6420 H          1 BB1          0.0000
    28 H28        0.3613   -15.0530     9.8199 H          1 BB1          0.0000
    29 H29        1.2619   -13.7348    10.6890 H          1 BB1          0.0000
    30 H30       -0.8746   -16.2464    14.1976 H          1 BB1          0.0000
    31 H31        0.9312   -16.4341    14.2457 H          1 BB1          0.0000
    32 C2         0.1377   -15.1500     9.6193 C.2        2 BB2          0.0000
    33 O3         0.2453   -15.0645    10.8345 O.2        2 BB2          0.0000
    34 C4         0.3036   -13.9496     8.7778 C.ar       2 BB2          0.0000
    35 C5         0.9945   -14.0317     7.5664 C.ar       2 BB2          0.0000
    36 C6         1.1457   -12.9052     6.7847 C.ar       2 BB2          0.0000
    37 C7         0.6154   -11.6960     7.1982 C.ar       2 BB2          0.0000
    38 C8        -0.0703   -11.6071     8.3972 C.ar       2 BB2          0.0000
    39 C9        -0.2347   -12.7263     9.1858 C.ar       2 BB2          0.0000
    40 C10       -0.9821   -12.6276    10.4908 C.3        2 BB2          0.0000
    41 N11       -2.0934   -11.6839    10.3468 N.pl3      2 BB2          0.0000
    42 C12       -1.9923   -10.3346    10.3447 C.2        2 BB2          0.0000
    43 C13       -3.2511    -9.8624    10.1881 C.2        2 BB2          0.0000
    44 N14       -4.0501   -10.9319    10.1033 N.2        2 BB2          0.0000
    45 N15       -3.3329   -11.9958    10.1953 N.2        2 BB2          0.0000
    46 H16        1.4095   -14.9748     7.2428 H          2 BB2          0.0000
    47 H17        1.6796   -12.9671     5.8480 H          2 BB2          0.0000
    48 H18        0.7375   -10.8170     6.5825 H          2 BB2          0.0000
    49 H19       -0.4813   -10.6599     8.7138 H          2 BB2          0.0000
    50 H20       -1.3716   -13.6090    10.7615 H          2 BB2          0.0000
    51 H21       -0.3064   -12.2770    11.2708 H          2 BB2          0.0000
    52 H22       -1.0890    -9.7516    10.4475 H          2 BB2          0.0000
    53 H23       -3.5514    -8.8261    10.1412 H          2 BB2          0.0000
@<TRIPOS>BOND
     1      1      2 1
     2      1     15 1
     3      1     16 1
     4      1     17 1
     5      2      3 1
     6      2      4 1
     7      2      5 1
     8      3     18 1
     9      3     19 1
    10      3     20 1
    11      4     21 1
    12      4     22 1
    13      4     23 1
    14      5      6 1
    15      6      7 2
    16      6      8 am
    17      8      9 1
    18      8     14 1
    19      9     10 1
    20      9     24 1
    21      9     25 1
    22     10     11 1
    23     10     13 1
    24     10     14 1
    25     11     12 1
    26     11     26 1
    27     11     27 1
    28     12     13 1
    29     12     28 1
    30     12     29 1
    31     14     30 1
    32     14     31 1
    33     32     33 2
    34     32     34 1
    35     34     35 ar
    36     34     39 ar
    37     35     36 ar
    38     35     46 1
    39     36     37 ar
    40     36     47 1
    41     37     38 ar
    42     37     48 1
    43     38     39 ar
    44     38     49 1
    45     39     40 1
    46     40     41 1
    47     40     50 1
    48     40     51 1
    49     41     42 1
    50     41     45 1
    51     42     43 2
    52     42     52 1
    53     43     44 1
    54     43     53 1
    55     44     45 2
    56     13     32 am
@<TRIPOS>SUBSTRUCTURE
     1 BB1          13
     2 BB2          32
@<TRIPOS>MOLECULE
EN300-256216_i001_EN300-306118_i001_13_4_1
  53   56   2   0   0
SMALL
USER_CHARGES
@<TRIPOS>ATOM
     1 C1        -0.7249   -22.5283    12.2507 C.3        1 BB1          0.0000
     2 C2        -0.1883   -21.5291    13.2776 C.3        1 BB1          0.0000
     3 C3        -1.1474   -21.4561    14.4676 C.3        1 BB1          0.0000
     4 C4         1.1901   -21.9846    13.7607 C.3        1 BB1          0.0000
     5 O5        -0.0773   -20.2175    12.6645 O.3        1 BB1          0.0000
     6 C6         0.1734   -19.1790    13.4838 C.2        1 BB1          0.0000
     7 O7         0.6469   -19.3748    14.5855 O.2        1 BB1          0.0000
     8 N8        -0.1010   -17.9221    13.0819 N.am       1 BB1          0.0000
     9 C9        -0.6575   -17.2972    11.8695 C.3        1 BB1          0.0000
    10 C10        0.1124   -16.0378    12.2423 C.3        1 BB1          0.0000
    11 C11       -0.3819   -14.6424    11.8683 C.3        1 BB1          0.0000
    12 C12        0.7092   -14.6698    10.7792 C.3        1 BB1          0.0000
    13 N13        1.3904   -15.6866    11.6154 N.am       1 BB1          0.0000
    14 C14        0.0186   -16.5753    13.6664 C.3        1 BB1          0.0000
    15 H15       -1.7069   -22.2037    11.9066 H          1 BB1          0.0000
    16 H16       -0.0417   -22.5802    11.4030 H          1 BB1          0.0000
    17 H17       -0.8082   -23.5128    12.7109 H          1 BB1          0.0000
    18 H18       -1.2307   -22.4406    14.9278 H          1 BB1          0.0000
    19 H19       -0.7652   -20.7442    15.1991 H          1 BB1          0.0000
    20 H20       -2.1294   -21.1316    14.1234 H          1 BB1          0.0000
    21 H21        1.8732   -22.0365    12.9130 H          1 BB1          0.0000
    22 H22        1.5722   -21.2727    14.4922 H          1 BB1          0.0000
    23 H23        1.1066   -22.9691    14.2209 H          1 BB1          0.0000
    24 H24       -0.3132   -17.7598    10.9445 H          1 BB1          0.0000
    25 H25       -1.7397   -17.1714    11.9022 H          1 BB1          0.0000
    26 H26       -1.3977   -14.6266    11.4732 H          1 BB1          0.0000
    27 H27       -0.2127   -13.8935    12.6420 H          1 BB1          0.0000
    28 H28        0.3613   -15.0530     9.8199 H          1 BB1          0.0000
    29 H29        1.2619   -13.7348    10.6890 H          1 BB1          0.0000
    30 H30       -0.8746   -16.2464    14.1976 H          1 BB1          0.0000
    31 H31        0.9312   -16.4341    14.2457 H          1 BB1          0.0000
    32 C2         0.0232   -14.5029    10.8440 C.2        2 BB2          0.0000
    33 O3         0.5964   -15.4713    11.3227 O.2        2 BB2          0.0000
    34 C4         0.1943   -14.1761     9.4156 C.ar       2 BB2          0.0000
    35 C5         0.2000   -15.1937     8.4585 C.ar       2 BB2          0.0000
    36 C6         0.3606   -14.8807     7.1247 C.ar       2 BB2          0.0000
    37 C7         0.5162   -13.5625     6.7340 C.ar       2 BB2          0.0000
    38 C8         0.5116   -12.5491     7.6766 C.ar       2 BB2          0.0000
    39 C9         0.3458   -12.8466     9.0128 C.ar       2 BB2          0.0000
    40 C10        0.3405   -11.7416    10.0376 C.3        2 BB2          0.0000
    41 N11       -0.8775   -10.9417     9.8869 N.pl3      2 BB2          0.0000
    42 C12       -1.9601   -10.9853    10.6975 C.2        2 BB2          0.0000
    43 C13       -2.8435   -10.0913    10.1954 C.2        2 BB2          0.0000
    44 N14       -2.2659    -9.5516     9.1162 N.2        2 BB2          0.0000
    45 N15       -1.0997   -10.0726     8.9638 N.2        2 BB2          0.0000
    46 H16        0.0794   -16.2231     8.7623 H          2 BB2          0.0000
    47 H17        0.3653   -15.6663     6.3837 H          2 BB2          0.0000
    48 H18        0.6423   -13.3234     5.6883 H          2 BB2          0.0000
    49 H19        0.6339   -11.5225     7.3644 H          2 BB2          0.0000
    50 H20        0.3700   -12.1736    11.0379 H          2 BB2          0.0000
    51 H21        1.2134   -11.1056     9.8906 H          2 BB2          0.0000
    52 H22       -2.0926   -11.6083    11.5697 H          2 BB2          0.0000
    53 H23       -3.8224    -9.8595    10.5883 H          2 BB2          0.0000
@<TRIPOS>BOND
     1      1      2 1
     2      1     15 1
     3      1     16 1
     4      1     17 1
     5      2      3 1
     6      2      4 1
     7      2      5 1
     8      3     18 1
     9      3     19 1
    10      3     20 1
    11      4     21 1
    12      4     22 1
    13      4     23 1
    14      5      6 1
    15      6      7 2
    16      6      8 am
    17      8      9 1
    18      8     14 1
    19      9     10 1
    20      9     24 1
    21      9     25 1
    22     10     11 1
    23     10     13 1
    24     10     14 1
    25     11     12 1
    26     11     26 1
    27     11     27 1
    28     12     13 1
    29     12     28 1
    30     12     29 1
    31     14     30 1
    32     14     31 1
    33     32     33 2
    34     32     34 1
    35     34     35 ar
    36     34     39 ar
    37     35     36 ar
    38     35     46 1
    39     36     37 ar
    40     36     47 1
    41     37     38 ar
    42     37     48 1
    43     38     39 ar
    44     38     49 1
    45     39     40 1
    46     40     41 1
    47     40     50 1
    48     40     51 1
    49     41     42 1
    50     41     45 1
    51     42     43 2
    52     42     52 1
    53     43     44 1
    54     43     53 1
    55     44     45 2
    56     13     32 am
@<TRIPOS>SUBSTRUCTURE
     1 BB1          13
     2 BB2          32
@<TRIPOS>MOLECULE
EN300-256216_i001_EN300-306118_i001_13_6_1
  53   56   2   0   0
SMALL
USER_CHARGES
@<TRIPOS>ATOM
     1 C1        -0.7249   -22.5283    12.2507 C.3        1 BB1          0.0000
     2 C2        -0.1883   -21.5291    13.2776 C.3        1 BB1          0.0000
     3 C3        -1.1474   -21.4561    14.4676 C.3        1 BB1          0.0000
     4 C4         1.1901   -21.9846    13.7607 C.3        1 BB1          0.0000
     5 O5        -0.0773   -20.2175    12.6645 O.3        1 BB1          0.0000
     6 C6         0.1734   -19.1790    13.4838 C.2        1 BB1          0.0000
     7 O7         0.6469   -19.3748    14.5855 O.2        1 BB1          0.0000
     8 N8        -0.1010   -17.9221    13.0819 N.am       1 BB1          0.0000
     9 C9        -0.6575   -17.2972    11.8695 C.3        1 BB1          0.0000
    10 C10        0.1124   -16.0378    12.2423 C.3        1 BB1          0.0000
    11 C11       -0.3819   -14.6424    11.8683 C.3        1 BB1          0.0000
    12 C12        0.7092   -14.6698    10.7792 C.3        1 BB1          0.0000
    13 N13        1.3904   -15.6866    11.6154 N.am       1 BB1          0.0000
    14 C14        0.0186   -16.5753    13.6664 C.3        1 BB1          0.0000
    15 H15       -1.7069   -22.2037    11.9066 H          1 BB1          0.0000
    16 H16       -0.0417   -22.5802    11.4030 H          1 BB1          0.0000
    17 H17       -0.8082   -23.5128    12.7109 H          1 BB1          0.0000
    18 H18       -1.2307   -22.4406    14.9278 H          1 BB1          0.0000
    19 H19       -0.7652   -20.7442    15.1991 H          1 BB1          0.0000
    20 H20       -2.1294   -21.1316    14.1234 H          1 BB1          0.0000
    21 H21        1.8732   -22.0365    12.9130 H          1 BB1          0.0000
    22 H22        1.5722   -21.2727    14.4922 H          1 BB1          0.0000
    23 H23        1.1066   -22.9691    14.2209 H          1 BB1          0.0000
    24 H24       -0.3132   -17.7598    10.9445 H          1 BB1          0.0000
    25 H25       -1.7397   -17.1714    11.9022 H          1 BB1          0.0000
    26 H26       -1.3977   -14.6266    11.4732 H          1 BB1          0.0000
    27 H27       -0.2127   -13.8935    12.6420 H          1 BB1          0.0000
    28 H28        0.3613   -15.0530     9.8199 H          1 BB1          0.0000
    29 H29        1.2619   -13.7348    10.6890 H          1 BB1          0.0000
    30 H30       -0.8746   -16.2464    14.1976 H          1 BB1          0.0000
    31 H31        0.9312   -16.4341    14.2457 H          1 BB1          0.0000
    32 C2        -0.3996   -13.7304    10.8133 C.2        2 BB2          0.0000
    33 O3         0.0088   -14.6778    11.4700 O.2        2 BB2          0.0000
    34 C4         0.1276   -13.4914     9.4563 C.ar       2 BB2          0.0000
    35 C5         0.3583   -14.5656     8.5936 C.ar       2 BB2          0.0000
    36 C6         0.8514   -14.3346     7.3262 C.ar       2 BB2          0.0000
    37 C7         1.1179   -13.0426     6.9090 C.ar       2 BB2          0.0000
    38 C8         0.8918   -11.9734     7.7582 C.ar       2 BB2          0.0000
    39 C9         0.3932   -12.1888     9.0257 C.ar       2 BB2          0.0000
    40 C10        0.1472   -11.0231     9.9488 C.3        2 BB2          0.0000
    41 N11       -1.2932   -10.7753    10.0492 N.pl3      2 BB2          0.0000
    42 C12       -2.2529   -11.3618     9.2971 C.2        2 BB2          0.0000
    43 C13       -3.4309   -10.8465     9.7198 C.2        2 BB2          0.0000
    44 N14       -3.1380    -9.9810    10.6969 N.2        2 BB2          0.0000
    45 N15       -1.8637    -9.9660    10.8717 N.2        2 BB2          0.0000
    46 H16        0.1514   -15.5747     8.9183 H          2 BB2          0.0000
    47 H17        1.0303   -15.1641     6.6582 H          2 BB2          0.0000
    48 H18        1.5046   -12.8676     5.9157 H          2 BB2          0.0000
    49 H19        1.1024   -10.9676     7.4259 H          2 BB2          0.0000
    50 H20        0.5463   -11.2516    10.9369 H          2 BB2          0.0000
    51 H21        0.6418   -10.1360     9.5534 H          2 BB2          0.0000
    52 H22       -2.1081   -12.0939     8.5164 H          2 BB2          0.0000
    53 H23       -4.4139   -11.0863     9.3423 H          2 BB2          0.0000
@<TRIPOS>BOND
     1      1      2 1
     2      1     15 1
     3      1     16 1
     4      1     17 1
     5      2      3 1
     6      2      4 1
     7      2      5 1
     8      3     18 1
     9      3     19 1
    10      3     20 1
    11      4     21 1
    12      4     22 1
    13      4     23 1
    14      5      6 1
    15      6      7 2
    16      6      8 am
    17      8      9 1
    18      8     14 1
    19      9     10 1
    20      9     24 1
    21      9     25 1
    22     10     11 1
    23     10     13 1
    24     10     14 1
    25     11     12 1
    26     11     26 1
    27     11     27 1
    28     12     13 1
    29     12     28 1
    30     12     29 1
    31     14     30 1
    32     14     31 1
    33     32     33 2
    34     32     34 1
    35     34     35 ar
    36     34     39 ar
    37     35     36 ar
    38     35     46 1
    39     36     37 ar
    40     36     47 1
    41     37     38 ar
    42     37     48 1
    43     38     39 ar
    44     38     49 1
    45     39     40 1
    46     40     41 1
    47     40     50 1
    48     40     51 1
    49     41     42 1
    50     41     45 1
    51     42     43 2
    52     42     52 1
    53     43     44 1
    54     43     53 1
    55     44     45 2
    56     13     32 am
@<TRIPOS>SUBSTRUCTURE
     1 BB1          13
     2 BB2          32
@<TRIPOS>MOLECULE
EN300-256216_i001_EN300-306118_i001_13_7_1
  53   56   2   0   0
SMALL
USER_CHARGES
@<TRIPOS>ATOM
     1 C1        -0.7249   -22.5283    12.2507 C.3        1 BB1          0.0000
     2 C2        -0.1883   -21.5291    13.2776 C.3        1 BB1          0.0000
     3 C3        -1.1474   -21.4561    14.4676 C.3        1 BB1          0.0000
     4 C4         1.1901   -21.9846    13.7607 C.3        1 BB1          0.0000
     5 O5        -0.0773   -20.2175    12.6645 O.3        1 BB1          0.0000
     6 C6         0.1734   -19.1790    13.4838 C.2        1 BB1          0.0000
     7 O7         0.6469   -19.3748    14.5855 O.2        1 BB1          0.0000
     8 N8        -0.1010   -17.9221    13.0819 N.am       1 BB1          0.0000
     9 C9        -0.6575   -17.2972    11.8695 C.3        1 BB1          0.0000
    10 C10        0.1124   -16.0378    12.2423 C.3        1 BB1          0.0000
    11 C11       -0.3819   -14.6424    11.8683 C.3        1 BB1          0.0000
    12 C12        0.7092   -14.6698    10.7792 C.3        1 BB1          0.0000
    13 N13        1.3904   -15.6866    11.6154 N.am       1 BB1          0.0000
    14 C14        0.0186   -16.5753    13.6664 C.3        1 BB1          0.0000
    15 H15       -1.7069   -22.2037    11.9066 H          1 BB1          0.0000
    16 H16       -0.0417   -22.5802    11.4030 H          1 BB1          0.0000
    17 H17       -0.8082   -23.5128    12.7109 H          1 BB1          0.0000
    18 H18       -1.2307   -22.4406    14.9278 H          1 BB1          0.0000
    19 H19       -0.7652   -20.7442    15.1991 H          1 BB1          0.0000
    20 H20       -2.1294   -21.1316    14.1234 H          1 BB1          0.0000
    21 H21        1.8732   -22.0365    12.9130 H          1 BB1          0.0000
    22 H22        1.5722   -21.2727    14.4922 H          1 BB1          0.0000
    23 H23        1.1066   -22.9691    14.2209 H          1 BB1          0.0000
    24 H24       -0.3132   -17.7598    10.9445 H          1 BB1          0.0000
    25 H25       -1.7397   -17.1714    11.9022 H          1 BB1          0.0000
    26 H26       -1.3977   -14.6266    11.4732 H          1 BB1          0.0000
    27 H27       -0.2127   -13.8935    12.6420 H          1 BB1          0.0000
    28 H28        0.3613   -15.0530     9.8199 H          1 BB1          0.0000
    29 H29        1.2619   -13.7348    10.6890 H          1 BB1          0.0000
    30 H30       -0.8746   -16.2464    14.1976 H          1 BB1          0.0000
    31 H31        0.9312   -16.4341    14.2457 H          1 BB1          0.0000
    32 C2         0.3107   -14.7692    11.2595 C.2        2 BB2          0.0000
    33 O3         1.3333   -15.2930    11.6783 O.2        2 BB2          0.0000
    34 C4         0.2910   -14.1590     9.9165 C.ar       2 BB2          0.0000
    35 C5         0.9400   -14.7869     8.8506 C.ar       2 BB2          0.0000
    36 C6         0.9175   -14.2104     7.5976 C.ar       2 BB2          0.0000
    37 C7         0.2545   -13.0130     7.3953 C.ar       2 BB2          0.0000
    38 C8        -0.3907   -12.3851     8.4465 C.ar       2 BB2          0.0000
    39 C9        -0.3818   -12.9530     9.7032 C.ar       2 BB2          0.0000
    40 C10       -1.0854   -12.2680    10.8464 C.3        2 BB2          0.0000
    41 N11       -1.9001   -11.1660    10.3286 N.pl3      2 BB2          0.0000
    42 C12       -3.2480   -11.0736    10.4030 C.2        2 BB2          0.0000
    43 C13       -3.5794    -9.9055     9.8051 C.2        2 BB2          0.0000
    44 N14       -2.4331    -9.3478     9.3992 N.2        2 BB2          0.0000
    45 N15       -1.4563   -10.1169     9.7294 N.2        2 BB2          0.0000
    46 H16        1.4585   -15.7213     9.0074 H          2 BB2          0.0000
    47 H17        1.4188   -14.6947     6.7727 H          2 BB2          0.0000
    48 H18        0.2408   -12.5658     6.4122 H          2 BB2          0.0000
    49 H19       -0.9059   -11.4505     8.2813 H          2 BB2          0.0000
    50 H20       -1.7270   -12.9843    11.3596 H          2 BB2          0.0000
    51 H21       -0.3465   -11.8763    11.5454 H          2 BB2          0.0000
    52 H22       -3.9235   -11.7882    10.8496 H          2 BB2          0.0000
    53 H23       -4.5737    -9.5029     9.6797 H          2 BB2          0.0000
@<TRIPOS>BOND
     1      1      2 1
     2      1     15 1
     3      1     16 1
     4      1     17 1
     5      2      3 1
     6      2      4 1
     7      2      5 1
     8      3     18 1
     9      3     19 1
    10      3     20 1
    11      4     21 1
    12      4     22 1
    13      4     23 1
    14      5      6 1
    15      6      7 2
    16      6      8 am
    17      8      9 1
    18      8     14 1
    19      9     10 1
    20      9     24 1
    21      9     25 1
    22     10     11 1
    23     10     13 1
    24     10     14 1
    25     11     12 1
    26     11     26 1
    27     11     27 1
    28     12     13 1
    29     12     28 1
    30     12     29 1
    31     14     30 1
    32     14     31 1
    33     32     33 2
    34     32     34 1
    35     34     35 ar
    36     34     39 ar
    37     35     36 ar
    38     35     46 1
    39     36     37 ar
    40     36     47 1
    41     37     38 ar
    42     37     48 1
    43     38     39 ar
    44     38     49 1
    45     39     40 1
    46     40     41 1
    47     40     50 1
    48     40     51 1
    49     41     42 1
    50     41     45 1
    51     42     43 2
    52     42     52 1
    53     43     44 1
    54     43     53 1
    55     44     45 2
    56     13     32 am
@<TRIPOS>SUBSTRUCTURE
     1 BB1          13
     2 BB2          32
@<TRIPOS>MOLECULE
EN300-256216_i001_EN300-344045_i001_13_2_1
  60   63   2   0   0
SMALL
USER_CHARGES
@<TRIPOS>ATOM
     1 C1        -0.7249   -22.5283    12.2507 C.3        1 BB1          0.0000
     2 C2        -0.1883   -21.5291    13.2776 C.3        1 BB1          0.0000
     3 C3        -1.1474   -21.4561    14.4676 C.3        1 BB1          0.0000
     4 C4         1.1901   -21.9846    13.7607 C.3        1 BB1          0.0000
     5 O5        -0.0773   -20.2175    12.6645 O.3        1 BB1          0.0000
     6 C6         0.1734   -19.1790    13.4838 C.2        1 BB1          0.0000
     7 O7         0.6469   -19.3748    14.5855 O.2        1 BB1          0.0000
     8 N8        -0.1010   -17.9221    13.0819 N.am       1 BB1          0.0000
     9 C9        -0.6575   -17.2972    11.8695 C.3        1 BB1          0.0000
    10 C10        0.1124   -16.0378    12.2423 C.3        1 BB1          0.0000
    11 C11       -0.3819   -14.6424    11.8683 C.3        1 BB1          0.0000
    12 C12        0.7092   -14.6698    10.7792 C.3        1 BB1          0.0000
    13 N13        1.3904   -15.6866    11.6154 N.am       1 BB1          0.0000
    14 C14        0.0186   -16.5753    13.6664 C.3        1 BB1          0.0000
    15 H15       -1.7069   -22.2037    11.9066 H          1 BB1          0.0000
    16 H16       -0.0417   -22.5802    11.4030 H          1 BB1          0.0000
    17 H17       -0.8082   -23.5128    12.7109 H          1 BB1          0.0000
    18 H18       -1.2307   -22.4406    14.9278 H          1 BB1          0.0000
    19 H19       -0.7652   -20.7442    15.1991 H          1 BB1          0.0000
    20 H20       -2.1294   -21.1316    14.1234 H          1 BB1          0.0000
    21 H21        1.8732   -22.0365    12.9130 H          1 BB1          0.0000
    22 H22        1.5722   -21.2727    14.4922 H          1 BB1          0.0000
    23 H23        1.1066   -22.9691    14.2209 H          1 BB1          0.0000
    24 H24       -0.3132   -17.7598    10.9445 H          1 BB1          0.0000
    25 H25       -1.7397   -17.1714    11.9022 H          1 BB1          0.0000
    26 H26       -1.3977   -14.6266    11.4732 H          1 BB1          0.0000
    27 H27       -0.2127   -13.8935    12.6420 H          1 BB1          0.0000
    28 H28        0.3613   -15.0530     9.8199 H          1 BB1          0.0000
    29 H29        1.2619   -13.7348    10.6890 H          1 BB1          0.0000
    30 H30       -0.8746   -16.2464    14.1976 H          1 BB1          0.0000
    31 H31        0.9312   -16.4341    14.2457 H          1 BB1          0.0000
    32 O1         0.5661   -15.7707    10.9576 O.2        2 BB2          0.0000
    33 C2         0.2489   -14.5943    11.0019 C.2        2 BB2          0.0000
    34 C4         0.9922   -13.5817    10.1694 C.3        2 BB2          0.0000
    35 C5         0.0568   -13.0163     9.0988 C.3        2 BB2          0.0000
    36 C6         0.8768   -12.3025     8.0042 C.3        2 BB2          0.0000
    37 C7         1.0511   -13.3749     6.9002 C.3        2 BB2          0.0000
    38 C8        -0.3163   -14.1023     6.9114 C.3        2 BB2          0.0000
    39 C9        -0.7017   -14.1605     8.4040 C.3        2 BB2          0.0000
    40 C10       -0.9194   -12.0528     9.7233 C.ar       2 BB2          0.0000
    41 C11       -0.7018   -11.5818    11.0046 C.ar       2 BB2          0.0000
    42 C12       -1.5972   -10.6981    11.5774 C.ar       2 BB2          0.0000
    43 C13       -2.7099   -10.2850    10.8687 C.ar       2 BB2          0.0000
    44 C14       -2.9270   -10.7553     9.5871 C.ar       2 BB2          0.0000
    45 C15       -2.0292   -11.6357     9.0126 C.ar       2 BB2          0.0000
    46 H16        1.3431   -12.7722    10.8096 H          2 BB2          0.0000
    47 H17        1.8455   -14.0614     9.6898 H          2 BB2          0.0000
    48 H18        0.3298   -11.4425     7.6177 H          2 BB2          0.0000
    49 H19        1.8472   -11.9949     8.3939 H          2 BB2          0.0000
    50 H20        1.2319   -12.9071     5.9324 H          2 BB2          0.0000
    51 H21        1.8570   -14.0634     7.1543 H          2 BB2          0.0000
    52 H22       -1.0559   -13.5330     6.3483 H          2 BB2          0.0000
    53 H23       -0.2166   -15.1082     6.5036 H          2 BB2          0.0000
    54 H24       -0.4034   -15.1187     8.8294 H          2 BB2          0.0000
    55 H25       -1.7765   -14.0194     8.5179 H          2 BB2          0.0000
    56 H26        0.1674   -11.9045    11.5583 H          2 BB2          0.0000
    57 H27       -1.4278   -10.3307    12.5787 H          2 BB2          0.0000
    58 H28       -3.4099    -9.5951    11.3165 H          2 BB2          0.0000
    59 H29       -3.7964   -10.4328     9.0334 H          2 BB2          0.0000
    60 H30       -2.1987   -12.0032     8.0113 H          2 BB2          0.0000
@<TRIPOS>BOND
     1      1      2 1
     2      1     15 1
     3      1     16 1
     4      1     17 1
     5      2      3 1
     6      2      4 1
     7      2      5 1
     8      3     18 1
     9      3     19 1
    10      3     20 1
    11      4     21 1
    12      4     22 1
    13      4     23 1
    14      5      6 1
    15      6      7 2
    16      6      8 am
    17      8      9 1
    18      8     14 1
    19      9     10 1
    20      9     24 1
    21      9     25 1
    22     10     11 1
    23     10     13 1
    24     10     14 1
    25     11     12 1
    26     11     26 1
    27     11     27 1
    28     12     13 1
    29     12     28 1
    30     12     29 1
    31     14     30 1
    32     14     31 1
    33     32     33 2
    34     33     34 1
    35     34     35 1
    36     34     46 1
    37     34     47 1
    38     35     36 1
    39     35     39 1
    40     35     40 1
    41     36     37 1
    42     36     48 1
    43     36     49 1
    44     37     38 1
    45     37     50 1
    46     37     51 1
    47     38     39 1
    48     38     52 1
    49     38     53 1
    50     39     54 1
    51     39     55 1
    52     40     41 ar
    53     40     45 ar
    54     41     42 ar
    55     41     56 1
    56     42     43 ar
    57     42     57 1
    58     43     44 ar
    59     43     58 1
    60     44     45 ar
    61     44     59 1
    62     45     60 1
    63     13     33 am
@<TRIPOS>SUBSTRUCTURE
     1 BB1          13
     2 BB2          33
@<TRIPOS>MOLECULE
EN300-256216_i001_EN300-344045_i001_13_3_1
  60   63   2   0   0
SMALL
USER_CHARGES
@<TRIPOS>ATOM
     1 C1        -0.7249   -22.5283    12.2507 C.3        1 BB1          0.0000
     2 C2        -0.1883   -21.5291    13.2776 C.3        1 BB1          0.0000
     3 C3        -1.1474   -21.4561    14.4676 C.3        1 BB1          0.0000
     4 C4         1.1901   -21.9846    13.7607 C.3        1 BB1          0.0000
     5 O5        -0.0773   -20.2175    12.6645 O.3        1 BB1          0.0000
     6 C6         0.1734   -19.1790    13.4838 C.2        1 BB1          0.0000
     7 O7         0.6469   -19.3748    14.5855 O.2        1 BB1          0.0000
     8 N8        -0.1010   -17.9221    13.0819 N.am       1 BB1          0.0000
     9 C9        -0.6575   -17.2972    11.8695 C.3        1 BB1          0.0000
    10 C10        0.1124   -16.0378    12.2423 C.3        1 BB1          0.0000
    11 C11       -0.3819   -14.6424    11.8683 C.3        1 BB1          0.0000
    12 C12        0.7092   -14.6698    10.7792 C.3        1 BB1          0.0000
    13 N13        1.3904   -15.6866    11.6154 N.am       1 BB1          0.0000
    14 C14        0.0186   -16.5753    13.6664 C.3        1 BB1          0.0000
    15 H15       -1.7069   -22.2037    11.9066 H          1 BB1          0.0000
    16 H16       -0.0417   -22.5802    11.4030 H          1 BB1          0.0000
    17 H17       -0.8082   -23.5128    12.7109 H          1 BB1          0.0000
    18 H18       -1.2307   -22.4406    14.9278 H          1 BB1          0.0000
    19 H19       -0.7652   -20.7442    15.1991 H          1 BB1          0.0000
    20 H20       -2.1294   -21.1316    14.1234 H          1 BB1          0.0000
    21 H21        1.8732   -22.0365    12.9130 H          1 BB1          0.0000
    22 H22        1.5722   -21.2727    14.4922 H          1 BB1          0.0000
    23 H23        1.1066   -22.9691    14.2209 H          1 BB1          0.0000
    24 H24       -0.3132   -17.7598    10.9445 H          1 BB1          0.0000
    25 H25       -1.7397   -17.1714    11.9022 H          1 BB1          0.0000
    26 H26       -1.3977   -14.6266    11.4732 H          1 BB1          0.0000
    27 H27       -0.2127   -13.8935    12.6420 H          1 BB1          0.0000
    28 H28        0.3613   -15.0530     9.8199 H          1 BB1          0.0000
    29 H29        1.2619   -13.7348    10.6890 H          1 BB1          0.0000
    30 H30       -0.8746   -16.2464    14.1976 H          1 BB1          0.0000
    31 H31        0.9312   -16.4341    14.2457 H          1 BB1          0.0000
    32 O1         1.6992   -14.4985    10.4947 O.2        2 BB2          0.0000
    33 C2         0.5459   -14.5453    10.1019 C.2        2 BB2          0.0000
    34 C4        -0.4230   -13.4540    10.4780 C.3        2 BB2          0.0000
    35 C5        -0.6345   -12.5251     9.2809 C.3        2 BB2          0.0000
    36 C6         0.6374   -11.6890     9.0294 C.3        2 BB2          0.0000
    37 C7         1.4011   -12.4785     7.9373 C.3        2 BB2          0.0000
    38 C8         0.2593   -12.9923     7.0255 C.3        2 BB2          0.0000
    39 C9        -0.8749   -13.3536     8.0068 C.3        2 BB2          0.0000
    40 C10       -1.8085   -11.6149     9.5352 C.ar       2 BB2          0.0000
    41 C11       -3.0826   -12.1418     9.6348 C.ar       2 BB2          0.0000
    42 C12       -4.1594   -11.3070     9.8680 C.ar       2 BB2          0.0000
    43 C13       -3.9620    -9.9453    10.0023 C.ar       2 BB2          0.0000
    44 C14       -2.6878    -9.4186     9.9036 C.ar       2 BB2          0.0000
    45 C15       -1.6104   -10.2540     9.6747 C.ar       2 BB2          0.0000
    46 H16       -1.3759   -13.8977    10.7665 H          2 BB2          0.0000
    47 H17       -0.0201   -12.8827    11.3144 H          2 BB2          0.0000
    48 H18        0.3751   -10.6947     8.6682 H          2 BB2          0.0000
    49 H19        1.2348   -11.6204     9.9386 H          2 BB2          0.0000
    50 H20        2.0718   -11.8214     7.3835 H          2 BB2          0.0000
    51 H21        1.9500   -13.3119     8.3758 H          2 BB2          0.0000
    52 H22       -0.0641   -12.2083     6.3407 H          2 BB2          0.0000
    53 H23        0.5807   -13.8747     6.4723 H          2 BB2          0.0000
    54 H24       -0.8408   -14.4175     8.2413 H          2 BB2          0.0000
    55 H25       -1.8409   -13.0975     7.5716 H          2 BB2          0.0000
    56 H26       -3.2369   -13.2055     9.5299 H          2 BB2          0.0000
    57 H27       -5.1549   -11.7185     9.9450 H          2 BB2          0.0000
    58 H28       -4.8033    -9.2931    10.1838 H          2 BB2          0.0000
    59 H29       -2.5335    -8.3548    10.0082 H          2 BB2          0.0000
    60 H30       -0.6148    -9.8425     9.5976 H          2 BB2          0.0000
@<TRIPOS>BOND
     1      1      2 1
     2      1     15 1
     3      1     16 1
     4      1     17 1
     5      2      3 1
     6      2      4 1
     7      2      5 1
     8      3     18 1
     9      3     19 1
    10      3     20 1
    11      4     21 1
    12      4     22 1
    13      4     23 1
    14      5      6 1
    15      6      7 2
    16      6      8 am
    17      8      9 1
    18      8     14 1
    19      9     10 1
    20      9     24 1
    21      9     25 1
    22     10     11 1
    23     10     13 1
    24     10     14 1
    25     11     12 1
    26     11     26 1
    27     11     27 1
    28     12     13 1
    29     12     28 1
    30     12     29 1
    31     14     30 1
    32     14     31 1
    33     32     33 2
    34     33     34 1
    35     34     35 1
    36     34     46 1
    37     34     47 1
    38     35     36 1
    39     35     39 1
    40     35     40 1
    41     36     37 1
    42     36     48 1
    43     36     49 1
    44     37     38 1
    45     37     50 1
    46     37     51 1
    47     38     39 1
    48     38     52 1
    49     38     53 1
    50     39     54 1
    51     39     55 1
    52     40     41 ar
    53     40     45 ar
    54     41     42 ar
    55     41     56 1
    56     42     43 ar
    57     42     57 1
    58     43     44 ar
    59     43     58 1
    60     44     45 ar
    61     44     59 1
    62     45     60 1
    63     13     33 am
@<TRIPOS>SUBSTRUCTURE
     1 BB1          13
     2 BB2          33
@<TRIPOS>MOLECULE
EN300-256216_i001_EN300-1087079_i001_14_4_1
  57   59   2   0   0
SMALL
USER_CHARGES
@<TRIPOS>ATOM
     1 C1        -0.5184   -20.2277    16.2317 C.3        1 BB1          0.0000
     2 C2         0.0530   -20.2874    14.8136 C.3        1 BB1          0.0000
     3 C3         0.8295   -21.5931    14.6313 C.3        1 BB1          0.0000
     4 C4        -1.0912   -20.2286    13.7997 C.3        1 BB1          0.0000
     5 O5         0.9446   -19.1608    14.6032 O.3        1 BB1          0.0000
     6 C6         0.3773   -17.9450    14.4909 C.2        1 BB1          0.0000
     7 O7        -0.6633   -17.7042    15.0702 O.2        1 BB1          0.0000
     8 N8         0.9636   -16.9949    13.7359 N.am       1 BB1          0.0000
     9 C9         0.6672   -15.5973    13.3765 C.3        1 BB1          0.0000
    10 C10        1.4745   -15.8199    12.1051 C.3        1 BB1          0.0000
    11 C11        2.2373   -14.6894    11.4183 C.3        1 BB1          0.0000
    12 C12        1.0962   -14.7000    10.3815 C.3        1 BB1          0.0000
    13 N13        0.8399   -16.0949    10.8124 N.am       1 BB1          0.0000
    14 C14        2.1837   -16.8994    12.9159 C.3        1 BB1          0.0000
    15 H15        0.2969   -20.2696    16.9540 H          1 BB1          0.0000
    16 H16       -1.0715   -19.2975    16.3616 H          1 BB1          0.0000
    17 H17       -1.1876   -21.0734    16.3896 H          1 BB1          0.0000
    18 H18        0.1603   -22.4388    14.7892 H          1 BB1          0.0000
    19 H19        1.2366   -21.6357    13.6211 H          1 BB1          0.0000
    20 H20        1.6447   -21.6349    15.3536 H          1 BB1          0.0000
    21 H21       -1.6444   -19.2984    13.9296 H          1 BB1          0.0000
    22 H22       -0.6841   -20.2712    12.7895 H          1 BB1          0.0000
    23 H23       -1.7604   -21.0744    13.9577 H          1 BB1          0.0000
    24 H24       -0.3909   -15.4104    13.1929 H          1 BB1          0.0000
    25 H25        1.1140   -14.8696    14.0539 H          1 BB1          0.0000
    26 H26        2.2892   -13.7730    12.0062 H          1 BB1          0.0000
    27 H27        3.2027   -14.9925    11.0133 H          1 BB1          0.0000
    28 H28        0.2838   -14.0124    10.6168 H          1 BB1          0.0000
    29 H29        1.4400   -14.6158     9.3507 H          1 BB1          0.0000
    30 H30        3.0524   -16.5326    13.4628 H          1 BB1          0.0000
    31 H31        2.3940   -17.8042    12.3457 H          1 BB1          0.0000
    32 C1         0.5107   -16.0504     7.4434 C.3        2 BB2          0.0000
    33 C2         1.1905   -14.6798     7.4534 C.3        2 BB2          0.0000
    34 C3         0.1492   -13.5961     7.7405 C.3        2 BB2          0.0000
    35 C4         0.8083   -12.1917     7.7560 C.3        2 BB2          0.0000
    36 C5        -0.1535   -11.4070     8.6827 C.3        2 BB2          0.0000
    37 N6        -0.5565   -12.3771     9.7170 N.am       2 BB2          0.0000
    38 C7        -0.4021   -13.7352     9.1752 C.3        2 BB2          0.0000
    39 C8         0.5670   -14.5181    10.0231 C.2        2 BB2          0.0000
    40 O10        0.1863   -15.5037    10.6315 O.2        2 BB2          0.0000
    41 C11       -0.9933   -12.0700    10.9545 C.2        2 BB2          0.0000
    42 O12       -1.2986   -12.9542    11.7265 O.2        2 BB2          0.0000
    43 C13       -1.1025   -10.6282    11.3788 C.3        2 BB2          0.0000
    44 H14        1.2525   -16.8223     7.2388 H          2 BB2          0.0000
    45 H15        0.0520   -16.2355     8.4147 H          2 BB2          0.0000
    46 H16       -0.2567   -16.0697     6.6695 H          2 BB2          0.0000
    47 H17        1.9579   -14.6604     8.2271 H          2 BB2          0.0000
    48 H18        1.6492   -14.4945     6.4821 H          2 BB2          0.0000
    49 H19       -0.6578   -13.6353     7.0089 H          2 BB2          0.0000
    50 H20        1.8112   -12.2354     8.1810 H          2 BB2          0.0000
    51 H21        0.8280   -11.7582     6.7561 H          2 BB2          0.0000
    52 H22        0.3629   -10.5611     9.1366 H          2 BB2          0.0000
    53 H23       -1.0244   -11.0651     8.1234 H          2 BB2          0.0000
    54 H24       -1.3690   -14.2378     9.1537 H          2 BB2          0.0000
    55 H25       -0.7871    -9.9832    10.5586 H          2 BB2          0.0000
    56 H26       -2.1365   -10.4037    11.6406 H          2 BB2          0.0000
    57 H27       -0.4627   -10.4547    12.2442 H          2 BB2          0.0000
@<TRIPOS>BOND
     1      1      2 1
     2      1     15 1
     3      1     16 1
     4      1     17 1
     5      2      3 1
     6      2      4 1
     7      2      5 1
     8      3     18 1
     9      3     19 1
    10      3     20 1
    11      4     21 1
    12      4     22 1
    13      4     23 1
    14      5      6 1
    15      6      7 2
    16      6      8 am
    17      8      9 1
    18      8     14 1
    19      9     10 1
    20      9     24 1
    21      9     25 1
    22     10     11 1
    23     10     13 1
    24     10     14 1
    25     11     12 1
    26     11     26 1
    27     11     27 1
    28     12     13 1
    29     12     28 1
    30     12     29 1
    31     14     30 1
    32     14     31 1
    33     32     33 1
    34     32     44 1
    35     32     45 1
    36     32     46 1
    37     33     34 1
    38     33     47 1
    39     33     48 1
    40     34     35 1
    41     34     38 1
    42     34     49 1
    43     35     36 1
    44     35     50 1
    45     35     51 1
    46     36     37 1
    47     36     52 1
    48     36     53 1
    49     37     38 1
    50     37     41 am
    51     38     39 1
    52     38     54 1
    53     39     40 2
    54     41     42 2
    55     41     43 1
    56     43     55 1
    57     43     56 1
    58     43     57 1
    59     13     39 am
@<TRIPOS>SUBSTRUCTURE
     1 BB1          13
     2 BB2          39
@<TRIPOS>MOLECULE
EN300-256216_i001_EN300-1198129_i001_14_19_1
  55   57   2   0   0
SMALL
USER_CHARGES
@<TRIPOS>ATOM
     1 C1        -0.5184   -20.2277    16.2317 C.3        1 BB1          0.0000
     2 C2         0.0530   -20.2874    14.8136 C.3        1 BB1          0.0000
     3 C3         0.8295   -21.5931    14.6313 C.3        1 BB1          0.0000
     4 C4        -1.0912   -20.2286    13.7997 C.3        1 BB1          0.0000
     5 O5         0.9446   -19.1608    14.6032 O.3        1 BB1          0.0000
     6 C6         0.3773   -17.9450    14.4909 C.2        1 BB1          0.0000
     7 O7        -0.6633   -17.7042    15.0702 O.2        1 BB1          0.0000
     8 N8         0.9636   -16.9949    13.7359 N.am       1 BB1          0.0000
     9 C9         0.6672   -15.5973    13.3765 C.3        1 BB1          0.0000
    10 C10        1.4745   -15.8199    12.1051 C.3        1 BB1          0.0000
    11 C11        2.2373   -14.6894    11.4183 C.3        1 BB1          0.0000
    12 C12        1.0962   -14.7000    10.3815 C.3        1 BB1          0.0000
    13 N13        0.8399   -16.0949    10.8124 N.am       1 BB1          0.0000
    14 C14        2.1837   -16.8994    12.9159 C.3        1 BB1          0.0000
    15 H15        0.2969   -20.2696    16.9540 H          1 BB1          0.0000
    16 H16       -1.0715   -19.2975    16.3616 H          1 BB1          0.0000
    17 H17       -1.1876   -21.0734    16.3896 H          1 BB1          0.0000
    18 H18        0.1603   -22.4388    14.7892 H          1 BB1          0.0000
    19 H19        1.2366   -21.6357    13.6211 H          1 BB1          0.0000
    20 H20        1.6447   -21.6349    15.3536 H          1 BB1          0.0000
    21 H21       -1.6444   -19.2984    13.9296 H          1 BB1          0.0000
    22 H22       -0.6841   -20.2712    12.7895 H          1 BB1          0.0000
    23 H23       -1.7604   -21.0744    13.9577 H          1 BB1          0.0000
    24 H24       -0.3909   -15.4104    13.1929 H          1 BB1          0.0000
    25 H25        1.1140   -14.8696    14.0539 H          1 BB1          0.0000
    26 H26        2.2892   -13.7730    12.0062 H          1 BB1          0.0000
    27 H27        3.2027   -14.9925    11.0133 H          1 BB1          0.0000
    28 H28        0.2838   -14.0124    10.6168 H          1 BB1          0.0000
    29 H29        1.4400   -14.6158     9.3507 H          1 BB1          0.0000
    30 H30        3.0524   -16.5326    13.4628 H          1 BB1          0.0000
    31 H31        2.3940   -17.8042    12.3457 H          1 BB1          0.0000
    32 O1        -0.3046   -17.2320    10.9820 O.2        2 BB2          0.0000
    33 C2        -0.0992   -16.0437    11.1864 C.2        2 BB2          0.0000
    34 C4        -0.0979   -15.0920    10.0614 C.ar       2 BB2          0.0000
    35 C5        -0.0950   -13.7157    10.3052 C.ar       2 BB2          0.0000
    36 C6        -0.0937   -12.8313     9.2479 C.ar       2 BB2          0.0000
    37 C7        -0.0957   -13.3016     7.9456 C.ar       2 BB2          0.0000
    38 C8        -0.0987   -14.6609     7.6932 C.ar       2 BB2          0.0000
    39 C9        -0.0936   -15.5616     8.7423 C.ar       2 BB2          0.0000
    40 F10       -0.0964   -16.8898     8.4955 F          2 BB2          0.0000
    41 S11       -0.0901   -11.0963     9.5546 S.o2       2 BB2          0.0000
    42 O12        1.2590   -10.8027     9.8907 O.2        2 BB2          0.0000
    43 O13       -0.6960   -10.5347     8.3985 O.2        2 BB2          0.0000
    44 C14       -1.1656   -10.8901    11.0008 C.3        2 BB2          0.0000
    45 C15       -2.3179    -9.9470    10.6491 C.3        2 BB2          0.0000
    46 C16       -3.4317   -10.7237    10.0809 C.1        2 BB2          0.0000
    47 C17       -4.3201   -11.3431     9.6277 C.1        2 BB2          0.0000
    48 H18       -0.0940   -13.3459    11.3199 H          2 BB2          0.0000
    49 H19       -0.0955   -12.6026     7.1222 H          2 BB2          0.0000
    50 H20       -0.1002   -15.0199     6.6747 H          2 BB2          0.0000
    51 H21       -1.5669   -11.8595    11.2963 H          2 BB2          0.0000
    52 H22       -0.5898   -10.4688    11.8248 H          2 BB2          0.0000
    53 H23       -2.6551    -9.4338    11.5497 H          2 BB2          0.0000
    54 H24       -1.9769    -9.2132     9.9188 H          2 BB2          0.0000
    55 H25       -5.1147   -11.8971     9.2224 H          2 BB2          0.0000
@<TRIPOS>BOND
     1      1      2 1
     2      1     15 1
     3      1     16 1
     4      1     17 1
     5      2      3 1
     6      2      4 1
     7      2      5 1
     8      3     18 1
     9      3     19 1
    10      3     20 1
    11      4     21 1
    12      4     22 1
    13      4     23 1
    14      5      6 1
    15      6      7 2
    16      6      8 am
    17      8      9 1
    18      8     14 1
    19      9     10 1
    20      9     24 1
    21      9     25 1
    22     10     11 1
    23     10     13 1
    24     10     14 1
    25     11     12 1
    26     11     26 1
    27     11     27 1
    28     12     13 1
    29     12     28 1
    30     12     29 1
    31     14     30 1
    32     14     31 1
    33     32     33 2
    34     33     34 1
    35     34     35 ar
    36     34     39 ar
    37     35     36 ar
    38     35     48 1
    39     36     37 ar
    40     36     41 1
    41     37     38 ar
    42     37     49 1
    43     38     39 ar
    44     38     50 1
    45     39     40 1
    46     41     42 2
    47     41     43 2
    48     41     44 1
    49     44     45 1
    50     44     51 1
    51     44     52 1
    52     45     46 1
    53     45     53 1
    54     45     54 1
    55     46     47 3
    56     47     55 1
    57     13     33 am
@<TRIPOS>SUBSTRUCTURE
     1 BB1          13
     2 BB2          33
@<TRIPOS>MOLECULE
EN300-256216_i001_EN300-4287209_i001_14_3_1
  46   48   2   0   0
SMALL
USER_CHARGES
@<TRIPOS>ATOM
     1 C1        -0.5184   -20.2277    16.2317 C.3        1 BB1          0.0000
     2 C2         0.0530   -20.2874    14.8136 C.3        1 BB1          0.0000
     3 C3         0.8295   -21.5931    14.6313 C.3        1 BB1          0.0000
     4 C4        -1.0912   -20.2286    13.7997 C.3        1 BB1          0.0000
     5 O5         0.9446   -19.1608    14.6032 O.3        1 BB1          0.0000
     6 C6         0.3773   -17.9450    14.4909 C.2        1 BB1          0.0000
     7 O7        -0.6633   -17.7042    15.0702 O.2        1 BB1          0.0000
     8 N8         0.9636   -16.9949    13.7359 N.am       1 BB1          0.0000
     9 C9         0.6672   -15.5973    13.3765 C.3        1 BB1          0.0000
    10 C10        1.4745   -15.8199    12.1051 C.3        1 BB1          0.0000
    11 C11        2.2373   -14.6894    11.4183 C.3        1 BB1          0.0000
    12 C12        1.0962   -14.7000    10.3815 C.3        1 BB1          0.0000
    13 N13        0.8399   -16.0949    10.8124 N.am       1 BB1          0.0000
    14 C14        2.1837   -16.8994    12.9159 C.3        1 BB1          0.0000
    15 H15        0.2969   -20.2696    16.9540 H          1 BB1          0.0000
    16 H16       -1.0715   -19.2975    16.3616 H          1 BB1          0.0000
    17 H17       -1.1876   -21.0734    16.3896 H          1 BB1          0.0000
    18 H18        0.1603   -22.4388    14.7892 H          1 BB1          0.0000
    19 H19        1.2366   -21.6357    13.6211 H          1 BB1          0.0000
    20 H20        1.6447   -21.6349    15.3536 H          1 BB1          0.0000
    21 H21       -1.6444   -19.2984    13.9296 H          1 BB1          0.0000
    22 H22       -0.6841   -20.2712    12.7895 H          1 BB1          0.0000
    23 H23       -1.7604   -21.0744    13.9577 H          1 BB1          0.0000
    24 H24       -0.3909   -15.4104    13.1929 H          1 BB1          0.0000
    25 H25        1.1140   -14.8696    14.0539 H          1 BB1          0.0000
    26 H26        2.2892   -13.7730    12.0062 H          1 BB1          0.0000
    27 H27        3.2027   -14.9925    11.0133 H          1 BB1          0.0000
    28 H28        0.2838   -14.0124    10.6168 H          1 BB1          0.0000
    29 H29        1.4400   -14.6158     9.3507 H          1 BB1          0.0000
    30 H30        3.0524   -16.5326    13.4628 H          1 BB1          0.0000
    31 H31        2.3940   -17.8042    12.3457 H          1 BB1          0.0000
    32 O1         0.9022   -15.2848    11.2052 O.2        2 BB2          0.0000
    33 C2        -0.0043   -14.5201    11.5040 C.2        2 BB2          0.0000
    34 C4        -0.4017   -13.4480    10.5724 C.ar       2 BB2          0.0000
    35 C5        -1.5033   -12.6425    10.8617 C.ar       2 BB2          0.0000
    36 C6        -1.8709   -11.6325     9.9767 C.ar       2 BB2          0.0000
    37 C7        -3.0001   -10.8010    10.2667 C.1        2 BB2          0.0000
    38 C8        -3.9259   -10.1193    10.5044 C.1        2 BB2          0.0000
    39 C9        -1.1364   -11.4311     8.8058 C.ar       2 BB2          0.0000
    40 C10       -0.0472   -12.2308     8.5230 C.ar       2 BB2          0.0000
    41 C11        0.3287   -13.2319     9.3982 C.ar       2 BB2          0.0000
    42 Cl12       1.6998   -14.2324     9.0338 Cl         2 BB2          0.0000
    43 H13       -2.0687   -12.8018    11.7680 H          2 BB2          0.0000
    44 H14       -4.7538    -9.5095    10.7170 H          2 BB2          0.0000
    45 H15       -1.4217   -10.6476     8.1195 H          2 BB2          0.0000
    46 H16        0.5164   -12.0702     7.6158 H          2 BB2          0.0000
@<TRIPOS>BOND
     1      1      2 1
     2      1     15 1
     3      1     16 1
     4      1     17 1
     5      2      3 1
     6      2      4 1
     7      2      5 1
     8      3     18 1
     9      3     19 1
    10      3     20 1
    11      4     21 1
    12      4     22 1
    13      4     23 1
    14      5      6 1
    15      6      7 2
    16      6      8 am
    17      8      9 1
    18      8     14 1
    19      9     10 1
    20      9     24 1
    21      9     25 1
    22     10     11 1
    23     10     13 1
    24     10     14 1
    25     11     12 1
    26     11     26 1
    27     11     27 1
    28     12     13 1
    29     12     28 1
    30     12     29 1
    31     14     30 1
    32     14     31 1
    33     32     33 2
    34     33     34 1
    35     34     35 ar
    36     34     41 ar
    37     35     36 ar
    38     35     43 1
    39     36     37 1
    40     36     39 ar
    41     37     38 3
    42     38     44 1
    43     39     40 ar
    44     39     45 1
    45     40     41 ar
    46     40     46 1
    47     41     42 1
    48     13     33 am
@<TRIPOS>SUBSTRUCTURE
     1 BB1          13
     2 BB2          33
@<TRIPOS>MOLECULE
EN300-256216_i001_EN300-19857_i001_14_20_1
  44   46   2   0   0
SMALL
USER_CHARGES
@<TRIPOS>ATOM
     1 C1        -0.5184   -20.2277    16.2317 C.3        1 BB1          0.0000
     2 C2         0.0530   -20.2874    14.8136 C.3        1 BB1          0.0000
     3 C3         0.8295   -21.5931    14.6313 C.3        1 BB1          0.0000
     4 C4        -1.0912   -20.2286    13.7997 C.3        1 BB1          0.0000
     5 O5         0.9446   -19.1608    14.6032 O.3        1 BB1          0.0000
     6 C6         0.3773   -17.9450    14.4909 C.2        1 BB1          0.0000
     7 O7        -0.6633   -17.7042    15.0702 O.2        1 BB1          0.0000
     8 N8         0.9636   -16.9949    13.7359 N.am       1 BB1          0.0000
     9 C9         0.6672   -15.5973    13.3765 C.3        1 BB1          0.0000
    10 C10        1.4745   -15.8199    12.1051 C.3        1 BB1          0.0000
    11 C11        2.2373   -14.6894    11.4183 C.3        1 BB1          0.0000
    12 C12        1.0962   -14.7000    10.3815 C.3        1 BB1          0.0000
    13 N13        0.8399   -16.0949    10.8124 N.am       1 BB1          0.0000
    14 C14        2.1837   -16.8994    12.9159 C.3        1 BB1          0.0000
    15 H15        0.2969   -20.2696    16.9540 H          1 BB1          0.0000
    16 H16       -1.0715   -19.2975    16.3616 H          1 BB1          0.0000
    17 H17       -1.1876   -21.0734    16.3896 H          1 BB1          0.0000
    18 H18        0.1603   -22.4388    14.7892 H          1 BB1          0.0000
    19 H19        1.2366   -21.6357    13.6211 H          1 BB1          0.0000
    20 H20        1.6447   -21.6349    15.3536 H          1 BB1          0.0000
    21 H21       -1.6444   -19.2984    13.9296 H          1 BB1          0.0000
    22 H22       -0.6841   -20.2712    12.7895 H          1 BB1          0.0000
    23 H23       -1.7604   -21.0744    13.9577 H          1 BB1          0.0000
    24 H24       -0.3909   -15.4104    13.1929 H          1 BB1          0.0000
    25 H25        1.1140   -14.8696    14.0539 H          1 BB1          0.0000
    26 H26        2.2892   -13.7730    12.0062 H          1 BB1          0.0000
    27 H27        3.2027   -14.9925    11.0133 H          1 BB1          0.0000
    28 H28        0.2838   -14.0124    10.6168 H          1 BB1          0.0000
    29 H29        1.4400   -14.6158     9.3507 H          1 BB1          0.0000
    30 H30        3.0524   -16.5326    13.4628 H          1 BB1          0.0000
    31 H31        2.3940   -17.8042    12.3457 H          1 BB1          0.0000
    32 C2        -0.0612   -14.3703    11.2846 C.2        2 BB2          0.0000
    33 O3         0.9101   -15.0078    10.9027 O.2        2 BB2          0.0000
    34 C4        -0.4899   -13.1665    10.5471 C.ar       2 BB2          0.0000
    35 C5         0.2870   -12.6738     9.4958 C.ar       2 BB2          0.0000
    36 C6        -0.1195   -11.5478     8.8104 C.ar       2 BB2          0.0000
    37 C7        -1.2938   -10.9062     9.1618 C.ar       2 BB2          0.0000
    38 C8        -2.0692   -11.3882    10.2031 C.ar       2 BB2          0.0000
    39 Br9       -3.6723   -10.5028    10.6742 Br         2 BB2          0.0000
    40 C10       -1.6778   -12.5173    10.8933 C.ar       2 BB2          0.0000
    41 H11        1.2041   -13.1732     9.2205 H          2 BB2          0.0000
    42 H12        0.4805   -11.1659     7.9978 H          2 BB2          0.0000
    43 H13       -1.6071   -10.0250     8.6216 H          2 BB2          0.0000
    44 H14       -2.2830   -12.8926    11.7053 H          2 BB2          0.0000
@<TRIPOS>BOND
     1      1      2 1
     2      1     15 1
     3      1     16 1
     4      1     17 1
     5      2      3 1
     6      2      4 1
     7      2      5 1
     8      3     18 1
     9      3     19 1
    10      3     20 1
    11      4     21 1
    12      4     22 1
    13      4     23 1
    14      5      6 1
    15      6      7 2
    16      6      8 am
    17      8      9 1
    18      8     14 1
    19      9     10 1
    20      9     24 1
    21      9     25 1
    22     10     11 1
    23     10     13 1
    24     10     14 1
    25     11     12 1
    26     11     26 1
    27     11     27 1
    28     12     13 1
    29     12     28 1
    30     12     29 1
    31     14     30 1
    32     14     31 1
    33     32     33 2
    34     32     34 1
    35     34     35 ar
    36     34     40 ar
    37     35     36 ar
    38     35     41 1
    39     36     37 ar
    40     36     42 1
    41     37     38 ar
    42     37     43 1
    43     38     39 1
    44     38     40 ar
    45     40     44 1
    46     13     32 am
@<TRIPOS>SUBSTRUCTURE
     1 BB1          13
     2 BB2          32
@<TRIPOS>MOLECULE
EN300-256216_i001_EN300-222254_i002_14_2_1
  54   57   2   0   0
SMALL
USER_CHARGES
@<TRIPOS>ATOM
     1 C1        -0.5184   -20.2277    16.2317 C.3        1 BB1          0.0000
     2 C2         0.0530   -20.2874    14.8136 C.3        1 BB1          0.0000
     3 C3         0.8295   -21.5931    14.6313 C.3        1 BB1          0.0000
     4 C4        -1.0912   -20.2286    13.7997 C.3        1 BB1          0.0000
     5 O5         0.9446   -19.1608    14.6032 O.3        1 BB1          0.0000
     6 C6         0.3773   -17.9450    14.4909 C.2        1 BB1          0.0000
     7 O7        -0.6633   -17.7042    15.0702 O.2        1 BB1          0.0000
     8 N8         0.9636   -16.9949    13.7359 N.am       1 BB1          0.0000
     9 C9         0.6672   -15.5973    13.3765 C.3        1 BB1          0.0000
    10 C10        1.4745   -15.8199    12.1051 C.3        1 BB1          0.0000
    11 C11        2.2373   -14.6894    11.4183 C.3        1 BB1          0.0000
    12 C12        1.0962   -14.7000    10.3815 C.3        1 BB1          0.0000
    13 N13        0.8399   -16.0949    10.8124 N.am       1 BB1          0.0000
    14 C14        2.1837   -16.8994    12.9159 C.3        1 BB1          0.0000
    15 H15        0.2969   -20.2696    16.9540 H          1 BB1          0.0000
    16 H16       -1.0715   -19.2975    16.3616 H          1 BB1          0.0000
    17 H17       -1.1876   -21.0734    16.3896 H          1 BB1          0.0000
    18 H18        0.1603   -22.4388    14.7892 H          1 BB1          0.0000
    19 H19        1.2366   -21.6357    13.6211 H          1 BB1          0.0000
    20 H20        1.6447   -21.6349    15.3536 H          1 BB1          0.0000
    21 H21       -1.6444   -19.2984    13.9296 H          1 BB1          0.0000
    22 H22       -0.6841   -20.2712    12.7895 H          1 BB1          0.0000
    23 H23       -1.7604   -21.0744    13.9577 H          1 BB1          0.0000
    24 H24       -0.3909   -15.4104    13.1929 H          1 BB1          0.0000
    25 H25        1.1140   -14.8696    14.0539 H          1 BB1          0.0000
    26 H26        2.2892   -13.7730    12.0062 H          1 BB1          0.0000
    27 H27        3.2027   -14.9925    11.0133 H          1 BB1          0.0000
    28 H28        0.2838   -14.0124    10.6168 H          1 BB1          0.0000
    29 H29        1.4400   -14.6158     9.3507 H          1 BB1          0.0000
    30 H30        3.0524   -16.5326    13.4628 H          1 BB1          0.0000
    31 H31        2.3940   -17.8042    12.3457 H          1 BB1          0.0000
    32 C2         0.9056   -14.4125     9.5694 C.2        2 BB2          0.0000
    33 O3         0.2517   -15.1640    10.2725 O.2        2 BB2          0.0000
    34 C4         0.2107   -13.4978     8.5941 C.3        2 BB2          0.0000
    35 C5         1.0724   -13.1277     7.3753 C.3        2 BB2          0.0000
    36 C6         0.4992   -11.7063     7.5004 C.3        2 BB2          0.0000
    37 C7         0.2733   -12.0131     8.9902 C.3        2 BB2          0.0000
    38 C8        -1.0286   -11.4760     9.5265 C.ar       2 BB2          0.0000
    39 C9        -2.2281   -11.9528     9.0336 C.ar       2 BB2          0.0000
    40 C10       -3.4229   -11.4604     9.5246 C.ar       2 BB2          0.0000
    41 C11       -3.4190   -10.4900    10.5106 C.ar       2 BB2          0.0000
    42 Cl12      -4.9199    -9.8726    11.1270 Cl         2 BB2          0.0000
    43 C13       -2.2190   -10.0118    11.0056 C.ar       2 BB2          0.0000
    44 C14       -1.0228   -10.5087    10.5176 C.ar       2 BB2          0.0000
    45 F15        0.1498   -10.0429    11.0005 F          2 BB2          0.0000
    46 H16       -0.7908   -13.8395     8.3332 H          2 BB2          0.0000
    47 H17        2.1443   -13.1845     7.5649 H          2 BB2          0.0000
    48 H18        0.7759   -13.6390     6.4595 H          2 BB2          0.0000
    49 H19        1.2347   -10.9217     7.3228 H          2 BB2          0.0000
    50 H20       -0.4240   -11.5569     6.9405 H          2 BB2          0.0000
    51 H21        1.1267   -11.7652     9.6214 H          2 BB2          0.0000
    52 H22       -2.2323   -12.7105     8.2638 H          2 BB2          0.0000
    53 H23       -4.3600   -11.8332     9.1382 H          2 BB2          0.0000
    54 H24       -2.2155    -9.2542    11.7753 H          2 BB2          0.0000
@<TRIPOS>BOND
     1      1      2 1
     2      1     15 1
     3      1     16 1
     4      1     17 1
     5      2      3 1
     6      2      4 1
     7      2      5 1
     8      3     18 1
     9      3     19 1
    10      3     20 1
    11      4     21 1
    12      4     22 1
    13      4     23 1
    14      5      6 1
    15      6      7 2
    16      6      8 am
    17      8      9 1
    18      8     14 1
    19      9     10 1
    20      9     24 1
    21      9     25 1
    22     10     11 1
    23     10     13 1
    24     10     14 1
    25     11     12 1
    26     11     26 1
    27     11     27 1
    28     12     13 1
    29     12     28 1
    30     12     29 1
    31     14     30 1
    32     14     31 1
    33     32     33 2
    34     32     34 1
    35     34     35 1
    36     34     37 1
    37     34     46 1
    38     35     36 1
    39     35     47 1
    40     35     48 1
    41     36     37 1
    42     36     49 1
    43     36     50 1
    44     37     38 1
    45     37     51 1
    46     38     39 ar
    47     38     44 ar
    48     39     40 ar
    49     39     52 1
    50     40     41 ar
    51     40     53 1
    52     41     42 1
    53     41     43 ar
    54     43     44 ar
    55     43     54 1
    56     44     45 1
    57     13     32 am
@<TRIPOS>SUBSTRUCTURE
     1 BB1          13
     2 BB2          32
@<TRIPOS>MOLECULE
EN300-256216_i001_EN300-222254_i002_14_4_1
  54   57   2   0   0
SMALL
USER_CHARGES
@<TRIPOS>ATOM
     1 C1        -0.5184   -20.2277    16.2317 C.3        1 BB1          0.0000
     2 C2         0.0530   -20.2874    14.8136 C.3        1 BB1          0.0000
     3 C3         0.8295   -21.5931    14.6313 C.3        1 BB1          0.0000
     4 C4        -1.0912   -20.2286    13.7997 C.3        1 BB1          0.0000
     5 O5         0.9446   -19.1608    14.6032 O.3        1 BB1          0.0000
     6 C6         0.3773   -17.9450    14.4909 C.2        1 BB1          0.0000
     7 O7        -0.6633   -17.7042    15.0702 O.2        1 BB1          0.0000
     8 N8         0.9636   -16.9949    13.7359 N.am       1 BB1          0.0000
     9 C9         0.6672   -15.5973    13.3765 C.3        1 BB1          0.0000
    10 C10        1.4745   -15.8199    12.1051 C.3        1 BB1          0.0000
    11 C11        2.2373   -14.6894    11.4183 C.3        1 BB1          0.0000
    12 C12        1.0962   -14.7000    10.3815 C.3        1 BB1          0.0000
    13 N13        0.8399   -16.0949    10.8124 N.am       1 BB1          0.0000
    14 C14        2.1837   -16.8994    12.9159 C.3        1 BB1          0.0000
    15 H15        0.2969   -20.2696    16.9540 H          1 BB1          0.0000
    16 H16       -1.0715   -19.2975    16.3616 H          1 BB1          0.0000
    17 H17       -1.1876   -21.0734    16.3896 H          1 BB1          0.0000
    18 H18        0.1603   -22.4388    14.7892 H          1 BB1          0.0000
    19 H19        1.2366   -21.6357    13.6211 H          1 BB1          0.0000
    20 H20        1.6447   -21.6349    15.3536 H          1 BB1          0.0000
    21 H21       -1.6444   -19.2984    13.9296 H          1 BB1          0.0000
    22 H22       -0.6841   -20.2712    12.7895 H          1 BB1          0.0000
    23 H23       -1.7604   -21.0744    13.9577 H          1 BB1          0.0000
    24 H24       -0.3909   -15.4104    13.1929 H          1 BB1          0.0000
    25 H25        1.1140   -14.8696    14.0539 H          1 BB1          0.0000
    26 H26        2.2892   -13.7730    12.0062 H          1 BB1          0.0000
    27 H27        3.2027   -14.9925    11.0133 H          1 BB1          0.0000
    28 H28        0.2838   -14.0124    10.6168 H          1 BB1          0.0000
    29 H29        1.4400   -14.6158     9.3507 H          1 BB1          0.0000
    30 H30        3.0524   -16.5326    13.4628 H          1 BB1          0.0000
    31 H31        2.3940   -17.8042    12.3457 H          1 BB1          0.0000
    32 C2         0.8004   -14.8911    10.7774 C.2        2 BB2          0.0000
    33 O3         0.0117   -15.5813    11.4007 O.2        2 BB2          0.0000
    34 C4         0.3644   -14.2102     9.5059 C.3        2 BB2          0.0000
    35 C5         1.4242   -14.2481     8.3921 C.3        2 BB2          0.0000
    36 C6         1.0198   -12.8008     8.0660 C.3        2 BB2          0.0000
    37 C7         0.5555   -12.6843     9.5274 C.3        2 BB2          0.0000
    38 C8        -0.7309   -11.9171     9.6928 C.ar       2 BB2          0.0000
    39 C9        -1.9103   -12.4281     9.1855 C.ar       2 BB2          0.0000
    40 C10       -3.0908   -11.7247     9.3363 C.ar       2 BB2          0.0000
    41 C11       -3.0929   -10.5086     9.9959 C.ar       2 BB2          0.0000
    42 Cl12      -4.5761    -9.6265    10.1853 Cl         2 BB2          0.0000
    43 C13       -1.9132    -9.9958    10.5049 C.ar       2 BB2          0.0000
    44 C14       -0.7321   -10.7026    10.3583 C.ar       2 BB2          0.0000
    45 F15        0.4206   -10.2031    10.8554 F          2 BB2          0.0000
    46 H16       -0.6264   -14.5228     9.1765 H          2 BB2          0.0000
    47 H17        2.4446   -14.3433     8.7634 H          2 BB2          0.0000
    48 H18        1.1950   -14.9556     7.5952 H          2 BB2          0.0000
    49 H19        1.8642   -12.1556     7.8234 H          2 BB2          0.0000
    50 H20        0.2078   -12.7268     7.3427 H          2 BB2          0.0000
    51 H21        1.3384   -12.3520    10.2091 H          2 BB2          0.0000
    52 H22       -1.9097   -13.3774     8.6703 H          2 BB2          0.0000
    53 H23       -4.0119   -12.1247     8.9388 H          2 BB2          0.0000
    54 H24       -1.9145    -9.0466    11.0198 H          2 BB2          0.0000
@<TRIPOS>BOND
     1      1      2 1
     2      1     15 1
     3      1     16 1
     4      1     17 1
     5      2      3 1
     6      2      4 1
     7      2      5 1
     8      3     18 1
     9      3     19 1
    10      3     20 1
    11      4     21 1
    12      4     22 1
    13      4     23 1
    14      5      6 1
    15      6      7 2
    16      6      8 am
    17      8      9 1
    18      8     14 1
    19      9     10 1
    20      9     24 1
    21      9     25 1
    22     10     11 1
    23     10     13 1
    24     10     14 1
    25     11     12 1
    26     11     26 1
    27     11     27 1
    28     12     13 1
    29     12     28 1
    30     12     29 1
    31     14     30 1
    32     14     31 1
    33     32     33 2
    34     32     34 1
    35     34     35 1
    36     34     37 1
    37     34     46 1
    38     35     36 1
    39     35     47 1
    40     35     48 1
    41     36     37 1
    42     36     49 1
    43     36     50 1
    44     37     38 1
    45     37     51 1
    46     38     39 ar
    47     38     44 ar
    48     39     40 ar
    49     39     52 1
    50     40     41 ar
    51     40     53 1
    52     41     42 1
    53     41     43 ar
    54     43     44 ar
    55     43     54 1
    56     44     45 1
    57     13     32 am
@<TRIPOS>SUBSTRUCTURE
     1 BB1          13
     2 BB2          32
@<TRIPOS>MOLECULE
EN300-256216_i001_EN300-222254_i002_14_7_1
  54   57   2   0   0
SMALL
USER_CHARGES
@<TRIPOS>ATOM
     1 C1        -0.5184   -20.2277    16.2317 C.3        1 BB1          0.0000
     2 C2         0.0530   -20.2874    14.8136 C.3        1 BB1          0.0000
     3 C3         0.8295   -21.5931    14.6313 C.3        1 BB1          0.0000
     4 C4        -1.0912   -20.2286    13.7997 C.3        1 BB1          0.0000
     5 O5         0.9446   -19.1608    14.6032 O.3        1 BB1          0.0000
     6 C6         0.3773   -17.9450    14.4909 C.2        1 BB1          0.0000
     7 O7        -0.6633   -17.7042    15.0702 O.2        1 BB1          0.0000
     8 N8         0.9636   -16.9949    13.7359 N.am       1 BB1          0.0000
     9 C9         0.6672   -15.5973    13.3765 C.3        1 BB1          0.0000
    10 C10        1.4745   -15.8199    12.1051 C.3        1 BB1          0.0000
    11 C11        2.2373   -14.6894    11.4183 C.3        1 BB1          0.0000
    12 C12        1.0962   -14.7000    10.3815 C.3        1 BB1          0.0000
    13 N13        0.8399   -16.0949    10.8124 N.am       1 BB1          0.0000
    14 C14        2.1837   -16.8994    12.9159 C.3        1 BB1          0.0000
    15 H15        0.2969   -20.2696    16.9540 H          1 BB1          0.0000
    16 H16       -1.0715   -19.2975    16.3616 H          1 BB1          0.0000
    17 H17       -1.1876   -21.0734    16.3896 H          1 BB1          0.0000
    18 H18        0.1603   -22.4388    14.7892 H          1 BB1          0.0000
    19 H19        1.2366   -21.6357    13.6211 H          1 BB1          0.0000
    20 H20        1.6447   -21.6349    15.3536 H          1 BB1          0.0000
    21 H21       -1.6444   -19.2984    13.9296 H          1 BB1          0.0000
    22 H22       -0.6841   -20.2712    12.7895 H          1 BB1          0.0000
    23 H23       -1.7604   -21.0744    13.9577 H          1 BB1          0.0000
    24 H24       -0.3909   -15.4104    13.1929 H          1 BB1          0.0000
    25 H25        1.1140   -14.8696    14.0539 H          1 BB1          0.0000
    26 H26        2.2892   -13.7730    12.0062 H          1 BB1          0.0000
    27 H27        3.2027   -14.9925    11.0133 H          1 BB1          0.0000
    28 H28        0.2838   -14.0124    10.6168 H          1 BB1          0.0000
    29 H29        1.4400   -14.6158     9.3507 H          1 BB1          0.0000
    30 H30        3.0524   -16.5326    13.4628 H          1 BB1          0.0000
    31 H31        2.3940   -17.8042    12.3457 H          1 BB1          0.0000
    32 O1         1.0761   -15.2604    11.4874 O.2        2 BB2          0.0000
    33 C2         0.0691   -14.5794    11.3943 C.2        2 BB2          0.0000
    34 C4        -0.3286   -14.0010    10.0609 C.3        2 BB2          0.0000
    35 C5         0.7881   -14.0614     9.0053 C.3        2 BB2          0.0000
    36 C6         0.3404   -12.6575     8.5654 C.3        2 BB2          0.0000
    37 C7        -0.2035   -12.4698     9.9915 C.3        2 BB2          0.0000
    38 C8        -1.5280   -11.7529    10.0428 C.ar       2 BB2          0.0000
    39 C9        -2.6243   -12.2791     9.3866 C.ar       2 BB2          0.0000
    40 C10       -3.8397   -11.6218     9.4328 C.ar       2 BB2          0.0000
    41 C11       -3.9599   -10.4369    10.1366 C.ar       2 BB2          0.0000
    42 Cl12      -5.4867    -9.6127    10.1944 Cl         2 BB2          0.0000
    43 C13       -2.8635    -9.9090    10.7946 C.ar       2 BB2          0.0000
    44 C14       -1.6479   -10.5698    10.7526 C.ar       2 BB2          0.0000
    45 F15       -0.5765   -10.0555    11.3951 F          2 BB2          0.0000
    46 H16       -1.2870   -14.3786     9.7046 H          2 BB2          0.0000
    47 H17        1.7910   -14.0862     9.4316 H          2 BB2          0.0000
    48 H18        0.6306   -14.8277     8.2463 H          2 BB2          0.0000
    49 H19        1.1683   -11.9913     8.3226 H          2 BB2          0.0000
    50 H20       -0.4354   -12.6666     7.7998 H          2 BB2          0.0000
    51 H21        0.5283   -12.0595    10.6874 H          2 BB2          0.0000
    52 H22       -2.5316   -13.2041     8.8369 H          2 BB2          0.0000
    53 H23       -4.6958   -12.0336     8.9190 H          2 BB2          0.0000
    54 H24       -2.9569    -8.9840    11.3440 H          2 BB2          0.0000
@<TRIPOS>BOND
     1      1      2 1
     2      1     15 1
     3      1     16 1
     4      1     17 1
     5      2      3 1
     6      2      4 1
     7      2      5 1
     8      3     18 1
     9      3     19 1
    10      3     20 1
    11      4     21 1
    12      4     22 1
    13      4     23 1
    14      5      6 1
    15      6      7 2
    16      6      8 am
    17      8      9 1
    18      8     14 1
    19      9     10 1
    20      9     24 1
    21      9     25 1
    22     10     11 1
    23     10     13 1
    24     10     14 1
    25     11     12 1
    26     11     26 1
    27     11     27 1
    28     12     13 1
    29     12     28 1
    30     12     29 1
    31     14     30 1
    32     14     31 1
    33     32     33 2
    34     33     34 1
    35     34     35 1
    36     34     37 1
    37     34     46 1
    38     35     36 1
    39     35     47 1
    40     35     48 1
    41     36     37 1
    42     36     49 1
    43     36     50 1
    44     37     38 1
    45     37     51 1
    46     38     39 ar
    47     38     44 ar
    48     39     40 ar
    49     39     52 1
    50     40     41 ar
    51     40     53 1
    52     41     42 1
    53     41     43 ar
    54     43     44 ar
    55     43     54 1
    56     44     45 1
    57     13     33 am
@<TRIPOS>SUBSTRUCTURE
     1 BB1          13
     2 BB2          33
@<TRIPOS>MOLECULE
EN300-256216_i001_EN300-306118_i001_14_10_1
  53   56   2   0   0
SMALL
USER_CHARGES
@<TRIPOS>ATOM
     1 C1        -0.5184   -20.2277    16.2317 C.3        1 BB1          0.0000
     2 C2         0.0530   -20.2874    14.8136 C.3        1 BB1          0.0000
     3 C3         0.8295   -21.5931    14.6313 C.3        1 BB1          0.0000
     4 C4        -1.0912   -20.2286    13.7997 C.3        1 BB1          0.0000
     5 O5         0.9446   -19.1608    14.6032 O.3        1 BB1          0.0000
     6 C6         0.3773   -17.9450    14.4909 C.2        1 BB1          0.0000
     7 O7        -0.6633   -17.7042    15.0702 O.2        1 BB1          0.0000
     8 N8         0.9636   -16.9949    13.7359 N.am       1 BB1          0.0000
     9 C9         0.6672   -15.5973    13.3765 C.3        1 BB1          0.0000
    10 C10        1.4745   -15.8199    12.1051 C.3        1 BB1          0.0000
    11 C11        2.2373   -14.6894    11.4183 C.3        1 BB1          0.0000
    12 C12        1.0962   -14.7000    10.3815 C.3        1 BB1          0.0000
    13 N13        0.8399   -16.0949    10.8124 N.am       1 BB1          0.0000
    14 C14        2.1837   -16.8994    12.9159 C.3        1 BB1          0.0000
    15 H15        0.2969   -20.2696    16.9540 H          1 BB1          0.0000
    16 H16       -1.0715   -19.2975    16.3616 H          1 BB1          0.0000
    17 H17       -1.1876   -21.0734    16.3896 H          1 BB1          0.0000
    18 H18        0.1603   -22.4388    14.7892 H          1 BB1          0.0000
    19 H19        1.2366   -21.6357    13.6211 H          1 BB1          0.0000
    20 H20        1.6447   -21.6349    15.3536 H          1 BB1          0.0000
    21 H21       -1.6444   -19.2984    13.9296 H          1 BB1          0.0000
    22 H22       -0.6841   -20.2712    12.7895 H          1 BB1          0.0000
    23 H23       -1.7604   -21.0744    13.9577 H          1 BB1          0.0000
    24 H24       -0.3909   -15.4104    13.1929 H          1 BB1          0.0000
    25 H25        1.1140   -14.8696    14.0539 H          1 BB1          0.0000
    26 H26        2.2892   -13.7730    12.0062 H          1 BB1          0.0000
    27 H27        3.2027   -14.9925    11.0133 H          1 BB1          0.0000
    28 H28        0.2838   -14.0124    10.6168 H          1 BB1          0.0000
    29 H29        1.4400   -14.6158     9.3507 H          1 BB1          0.0000
    30 H30        3.0524   -16.5326    13.4628 H          1 BB1          0.0000
    31 H31        2.3940   -17.8042    12.3457 H          1 BB1          0.0000
    32 C2         0.1195   -14.4038    10.7566 C.2        2 BB2          0.0000
    33 O3         0.6856   -15.3919    11.2023 O.2        2 BB2          0.0000
    34 C4         0.4114   -13.9416     9.3863 C.ar       2 BB2          0.0000
    35 C5         0.5717   -14.8674     8.3525 C.ar       2 BB2          0.0000
    36 C6         0.8445   -14.4280     7.0737 C.ar       2 BB2          0.0000
    37 C7         0.9599   -13.0739     6.8139 C.ar       2 BB2          0.0000
    38 C8         0.8024   -12.1509     7.8331 C.ar       2 BB2          0.0000
    39 C9         0.5231   -12.5754     9.1151 C.ar       2 BB2          0.0000
    40 C10        0.3514   -11.5687    10.2234 C.3        2 BB2          0.0000
    41 N11       -1.0436   -11.1231    10.2665 N.pl3      2 BB2          0.0000
    42 C12       -1.4690    -9.8410    10.1885 C.2        2 BB2          0.0000
    43 C13       -2.8194    -9.8863    10.2682 C.2        2 BB2          0.0000
    44 N14       -3.1497   -11.1769    10.3896 N.2        2 BB2          0.0000
    45 N15       -2.0753   -11.8843    10.3797 N.2        2 BB2          0.0000
    46 H16        0.4826   -15.9247     8.5541 H          2 BB2          0.0000
    47 H17        0.9688   -15.1425     6.2735 H          2 BB2          0.0000
    48 H18        1.1744   -12.7356     5.8108 H          2 BB2          0.0000
    49 H19        0.8941   -11.0955     7.6231 H          2 BB2          0.0000
    50 H20        0.6156   -12.0283    11.1758 H          2 BB2          0.0000
    51 H21        1.0008   -10.7127    10.0405 H          2 BB2          0.0000
    52 H22       -0.8546    -8.9590    10.0839 H          2 BB2          0.0000
    53 H23       -3.4970    -9.0458    10.2398 H          2 BB2          0.0000
@<TRIPOS>BOND
     1      1      2 1
     2      1     15 1
     3      1     16 1
     4      1     17 1
     5      2      3 1
     6      2      4 1
     7      2      5 1
     8      3     18 1
     9      3     19 1
    10      3     20 1
    11      4     21 1
    12      4     22 1
    13      4     23 1
    14      5      6 1
    15      6      7 2
    16      6      8 am
    17      8      9 1
    18      8     14 1
    19      9     10 1
    20      9     24 1
    21      9     25 1
    22     10     11 1
    23     10     13 1
    24     10     14 1
    25     11     12 1
    26     11     26 1
    27     11     27 1
    28     12     13 1
    29     12     28 1
    30     12     29 1
    31     14     30 1
    32     14     31 1
    33     32     33 2
    34     32     34 1
    35     34     35 ar
    36     34     39 ar
    37     35     36 ar
    38     35     46 1
    39     36     37 ar
    40     36     47 1
    41     37     38 ar
    42     37     48 1
    43     38     39 ar
    44     38     49 1
    45     39     40 1
    46     40     41 1
    47     40     50 1
    48     40     51 1
    49     41     42 1
    50     41     45 1
    51     42     43 2
    52     42     52 1
    53     43     44 1
    54     43     53 1
    55     44     45 2
    56     13     32 am
@<TRIPOS>SUBSTRUCTURE
     1 BB1          13
     2 BB2          32
@<TRIPOS>MOLECULE
EN300-256216_i001_EN300-306118_i001_14_13_1
  53   56   2   0   0
SMALL
USER_CHARGES
@<TRIPOS>ATOM
     1 C1        -0.5184   -20.2277    16.2317 C.3        1 BB1          0.0000
     2 C2         0.0530   -20.2874    14.8136 C.3        1 BB1          0.0000
     3 C3         0.8295   -21.5931    14.6313 C.3        1 BB1          0.0000
     4 C4        -1.0912   -20.2286    13.7997 C.3        1 BB1          0.0000
     5 O5         0.9446   -19.1608    14.6032 O.3        1 BB1          0.0000
     6 C6         0.3773   -17.9450    14.4909 C.2        1 BB1          0.0000
     7 O7        -0.6633   -17.7042    15.0702 O.2        1 BB1          0.0000
     8 N8         0.9636   -16.9949    13.7359 N.am       1 BB1          0.0000
     9 C9         0.6672   -15.5973    13.3765 C.3        1 BB1          0.0000
    10 C10        1.4745   -15.8199    12.1051 C.3        1 BB1          0.0000
    11 C11        2.2373   -14.6894    11.4183 C.3        1 BB1          0.0000
    12 C12        1.0962   -14.7000    10.3815 C.3        1 BB1          0.0000
    13 N13        0.8399   -16.0949    10.8124 N.am       1 BB1          0.0000
    14 C14        2.1837   -16.8994    12.9159 C.3        1 BB1          0.0000
    15 H15        0.2969   -20.2696    16.9540 H          1 BB1          0.0000
    16 H16       -1.0715   -19.2975    16.3616 H          1 BB1          0.0000
    17 H17       -1.1876   -21.0734    16.3896 H          1 BB1          0.0000
    18 H18        0.1603   -22.4388    14.7892 H          1 BB1          0.0000
    19 H19        1.2366   -21.6357    13.6211 H          1 BB1          0.0000
    20 H20        1.6447   -21.6349    15.3536 H          1 BB1          0.0000
    21 H21       -1.6444   -19.2984    13.9296 H          1 BB1          0.0000
    22 H22       -0.6841   -20.2712    12.7895 H          1 BB1          0.0000
    23 H23       -1.7604   -21.0744    13.9577 H          1 BB1          0.0000
    24 H24       -0.3909   -15.4104    13.1929 H          1 BB1          0.0000
    25 H25        1.1140   -14.8696    14.0539 H          1 BB1          0.0000
    26 H26        2.2892   -13.7730    12.0062 H          1 BB1          0.0000
    27 H27        3.2027   -14.9925    11.0133 H          1 BB1          0.0000
    28 H28        0.2838   -14.0124    10.6168 H          1 BB1          0.0000
    29 H29        1.4400   -14.6158     9.3507 H          1 BB1          0.0000
    30 H30        3.0524   -16.5326    13.4628 H          1 BB1          0.0000
    31 H31        2.3940   -17.8042    12.3457 H          1 BB1          0.0000
    32 O1        -0.3061   -15.6175    10.8075 O.2        2 BB2          0.0000
    33 C2        -0.2542   -14.4147    11.0220 C.2        2 BB2          0.0000
    34 C4        -0.0888   -13.4717     9.8995 C.ar       2 BB2          0.0000
    35 C5         0.7755   -13.7793     8.8460 C.ar       2 BB2          0.0000
    36 C6         0.9252   -12.8927     7.7999 C.ar       2 BB2          0.0000
    37 C7         0.2221   -11.7011     7.7926 C.ar       2 BB2          0.0000
    38 C8        -0.6359   -11.3897     8.8329 C.ar       2 BB2          0.0000
    39 C9        -0.8003   -12.2692     9.8823 C.ar       2 BB2          0.0000
    40 C10       -1.7356   -11.9285    11.0138 C.3        2 BB2          0.0000
    41 N11       -2.8881   -11.1914    10.4898 N.pl3      2 BB2          0.0000
    42 C12       -3.9824   -11.7380     9.9113 C.2        2 BB2          0.0000
    43 C13       -4.7891   -10.7036     9.5780 C.2        2 BB2          0.0000
    44 N14       -4.1572    -9.5894     9.9637 N.2        2 BB2          0.0000
    45 N15       -3.0361    -9.9129    10.5053 N.2        2 BB2          0.0000
    46 H16        1.3254   -14.7088     8.8509 H          2 BB2          0.0000
    47 H17        1.5931   -13.1291     6.9848 H          2 BB2          0.0000
    48 H18        0.3438   -11.0104     6.9712 H          2 BB2          0.0000
    49 H19       -1.1813   -10.4576     8.8207 H          2 BB2          0.0000
    50 H20       -2.0780   -12.8466    11.4912 H          2 BB2          0.0000
    51 H21       -1.2121   -11.3124    11.7448 H          2 BB2          0.0000
    52 H22       -4.1735   -12.7883     9.7481 H          2 BB2          0.0000
    53 H23       -5.7532   -10.7654     9.0952 H          2 BB2          0.0000
@<TRIPOS>BOND
     1      1      2 1
     2      1     15 1
     3      1     16 1
     4      1     17 1
     5      2      3 1
     6      2      4 1
     7      2      5 1
     8      3     18 1
     9      3     19 1
    10      3     20 1
    11      4     21 1
    12      4     22 1
    13      4     23 1
    14      5      6 1
    15      6      7 2
    16      6      8 am
    17      8      9 1
    18      8     14 1
    19      9     10 1
    20      9     24 1
    21      9     25 1
    22     10     11 1
    23     10     13 1
    24     10     14 1
    25     11     12 1
    26     11     26 1
    27     11     27 1
    28     12     13 1
    29     12     28 1
    30     12     29 1
    31     14     30 1
    32     14     31 1
    33     32     33 2
    34     33     34 1
    35     34     35 ar
    36     34     39 ar
    37     35     36 ar
    38     35     46 1
    39     36     37 ar
    40     36     47 1
    41     37     38 ar
    42     37     48 1
    43     38     39 ar
    44     38     49 1
    45     39     40 1
    46     40     41 1
    47     40     50 1
    48     40     51 1
    49     41     42 1
    50     41     45 1
    51     42     43 2
    52     42     52 1
    53     43     44 1
    54     43     53 1
    55     44     45 2
    56     13     33 am
@<TRIPOS>SUBSTRUCTURE
     1 BB1          13
     2 BB2          33
@<TRIPOS>MOLECULE
EN300-256216_i001_EN300-306118_i001_14_2_1
  53   56   2   0   0
SMALL
USER_CHARGES
@<TRIPOS>ATOM
     1 C1        -0.5184   -20.2277    16.2317 C.3        1 BB1          0.0000
     2 C2         0.0530   -20.2874    14.8136 C.3        1 BB1          0.0000
     3 C3         0.8295   -21.5931    14.6313 C.3        1 BB1          0.0000
     4 C4        -1.0912   -20.2286    13.7997 C.3        1 BB1          0.0000
     5 O5         0.9446   -19.1608    14.6032 O.3        1 BB1          0.0000
     6 C6         0.3773   -17.9450    14.4909 C.2        1 BB1          0.0000
     7 O7        -0.6633   -17.7042    15.0702 O.2        1 BB1          0.0000
     8 N8         0.9636   -16.9949    13.7359 N.am       1 BB1          0.0000
     9 C9         0.6672   -15.5973    13.3765 C.3        1 BB1          0.0000
    10 C10        1.4745   -15.8199    12.1051 C.3        1 BB1          0.0000
    11 C11        2.2373   -14.6894    11.4183 C.3        1 BB1          0.0000
    12 C12        1.0962   -14.7000    10.3815 C.3        1 BB1          0.0000
    13 N13        0.8399   -16.0949    10.8124 N.am       1 BB1          0.0000
    14 C14        2.1837   -16.8994    12.9159 C.3        1 BB1          0.0000
    15 H15        0.2969   -20.2696    16.9540 H          1 BB1          0.0000
    16 H16       -1.0715   -19.2975    16.3616 H          1 BB1          0.0000
    17 H17       -1.1876   -21.0734    16.3896 H          1 BB1          0.0000
    18 H18        0.1603   -22.4388    14.7892 H          1 BB1          0.0000
    19 H19        1.2366   -21.6357    13.6211 H          1 BB1          0.0000
    20 H20        1.6447   -21.6349    15.3536 H          1 BB1          0.0000
    21 H21       -1.6444   -19.2984    13.9296 H          1 BB1          0.0000
    22 H22       -0.6841   -20.2712    12.7895 H          1 BB1          0.0000
    23 H23       -1.7604   -21.0744    13.9577 H          1 BB1          0.0000
    24 H24       -0.3909   -15.4104    13.1929 H          1 BB1          0.0000
    25 H25        1.1140   -14.8696    14.0539 H          1 BB1          0.0000
    26 H26        2.2892   -13.7730    12.0062 H          1 BB1          0.0000
    27 H27        3.2027   -14.9925    11.0133 H          1 BB1          0.0000
    28 H28        0.2838   -14.0124    10.6168 H          1 BB1          0.0000
    29 H29        1.4400   -14.6158     9.3507 H          1 BB1          0.0000
    30 H30        3.0524   -16.5326    13.4628 H          1 BB1          0.0000
    31 H31        2.3940   -17.8042    12.3457 H          1 BB1          0.0000
    32 C2         0.6326   -14.8679    11.1794 C.2        2 BB2          0.0000
    33 O3         1.7065   -15.2466    11.6254 O.2        2 BB2          0.0000
    34 C4         0.5817   -14.1401     9.8971 C.ar       2 BB2          0.0000
    35 C5         1.3893   -14.5408     8.8300 C.ar       2 BB2          0.0000
    36 C6         1.3364   -13.8555     7.6340 C.ar       2 BB2          0.0000
    37 C7         0.4864   -12.7733     7.4900 C.ar       2 BB2          0.0000
    38 C8        -0.3166   -12.3706     8.5429 C.ar       2 BB2          0.0000
    39 C9        -0.2789   -13.0501     9.7423 C.ar       2 BB2          0.0000
    40 C10       -1.1546   -12.6104    10.8873 C.3        2 BB2          0.0000
    41 N11       -2.0673   -11.5601    10.4288 N.pl3      2 BB2          0.0000
    42 C12       -1.7295   -10.2775    10.1613 C.2        2 BB2          0.0000
    43 C13       -2.8693    -9.6610     9.7705 C.2        2 BB2          0.0000
    44 N14       -3.8360   -10.5845     9.8175 N.2        2 BB2          0.0000
    45 N15       -3.3272   -11.7003    10.2060 N.2        2 BB2          0.0000
    46 H16        2.0538   -15.3849     8.9414 H          2 BB2          0.0000
    47 H17        1.9603   -14.1641     6.8083 H          2 BB2          0.0000
    48 H18        0.4497   -12.2400     6.5515 H          2 BB2          0.0000
    49 H19       -0.9775   -11.5248     8.4234 H          2 BB2          0.0000
    50 H20       -1.7320   -13.4605    11.2504 H          2 BB2          0.0000
    51 H21       -0.5313   -12.2235    11.6935 H          2 BB2          0.0000
    52 H22       -0.7479    -9.8347    10.2433 H          2 BB2          0.0000
    53 H23       -2.9773    -8.6269     9.4786 H          2 BB2          0.0000
@<TRIPOS>BOND
     1      1      2 1
     2      1     15 1
     3      1     16 1
     4      1     17 1
     5      2      3 1
     6      2      4 1
     7      2      5 1
     8      3     18 1
     9      3     19 1
    10      3     20 1
    11      4     21 1
    12      4     22 1
    13      4     23 1
    14      5      6 1
    15      6      7 2
    16      6      8 am
    17      8      9 1
    18      8     14 1
    19      9     10 1
    20      9     24 1
    21      9     25 1
    22     10     11 1
    23     10     13 1
    24     10     14 1
    25     11     12 1
    26     11     26 1
    27     11     27 1
    28     12     13 1
    29     12     28 1
    30     12     29 1
    31     14     30 1
    32     14     31 1
    33     32     33 2
    34     32     34 1
    35     34     35 ar
    36     34     39 ar
    37     35     36 ar
    38     35     46 1
    39     36     37 ar
    40     36     47 1
    41     37     38 ar
    42     37     48 1
    43     38     39 ar
    44     38     49 1
    45     39     40 1
    46     40     41 1
    47     40     50 1
    48     40     51 1
    49     41     42 1
    50     41     45 1
    51     42     43 2
    52     42     52 1
    53     43     44 1
    54     43     53 1
    55     44     45 2
    56     13     32 am
@<TRIPOS>SUBSTRUCTURE
     1 BB1          13
     2 BB2          32
@<TRIPOS>MOLECULE
EN300-256216_i001_EN300-306118_i001_14_4_1
  53   56   2   0   0
SMALL
USER_CHARGES
@<TRIPOS>ATOM
     1 C1        -0.5184   -20.2277    16.2317 C.3        1 BB1          0.0000
     2 C2         0.0530   -20.2874    14.8136 C.3        1 BB1          0.0000
     3 C3         0.8295   -21.5931    14.6313 C.3        1 BB1          0.0000
     4 C4        -1.0912   -20.2286    13.7997 C.3        1 BB1          0.0000
     5 O5         0.9446   -19.1608    14.6032 O.3        1 BB1          0.0000
     6 C6         0.3773   -17.9450    14.4909 C.2        1 BB1          0.0000
     7 O7        -0.6633   -17.7042    15.0702 O.2        1 BB1          0.0000
     8 N8         0.9636   -16.9949    13.7359 N.am       1 BB1          0.0000
     9 C9         0.6672   -15.5973    13.3765 C.3        1 BB1          0.0000
    10 C10        1.4745   -15.8199    12.1051 C.3        1 BB1          0.0000
    11 C11        2.2373   -14.6894    11.4183 C.3        1 BB1          0.0000
    12 C12        1.0962   -14.7000    10.3815 C.3        1 BB1          0.0000
    13 N13        0.8399   -16.0949    10.8124 N.am       1 BB1          0.0000
    14 C14        2.1837   -16.8994    12.9159 C.3        1 BB1          0.0000
    15 H15        0.2969   -20.2696    16.9540 H          1 BB1          0.0000
    16 H16       -1.0715   -19.2975    16.3616 H          1 BB1          0.0000
    17 H17       -1.1876   -21.0734    16.3896 H          1 BB1          0.0000
    18 H18        0.1603   -22.4388    14.7892 H          1 BB1          0.0000
    19 H19        1.2366   -21.6357    13.6211 H          1 BB1          0.0000
    20 H20        1.6447   -21.6349    15.3536 H          1 BB1          0.0000
    21 H21       -1.6444   -19.2984    13.9296 H          1 BB1          0.0000
    22 H22       -0.6841   -20.2712    12.7895 H          1 BB1          0.0000
    23 H23       -1.7604   -21.0744    13.9577 H          1 BB1          0.0000
    24 H24       -0.3909   -15.4104    13.1929 H          1 BB1          0.0000
    25 H25        1.1140   -14.8696    14.0539 H          1 BB1          0.0000
    26 H26        2.2892   -13.7730    12.0062 H          1 BB1          0.0000
    27 H27        3.2027   -14.9925    11.0133 H          1 BB1          0.0000
    28 H28        0.2838   -14.0124    10.6168 H          1 BB1          0.0000
    29 H29        1.4400   -14.6158     9.3507 H          1 BB1          0.0000
    30 H30        3.0524   -16.5326    13.4628 H          1 BB1          0.0000
    31 H31        2.3940   -17.8042    12.3457 H          1 BB1          0.0000
    32 C2         0.0232   -14.5029    10.8440 C.2        2 BB2          0.0000
    33 O3         0.5964   -15.4713    11.3227 O.2        2 BB2          0.0000
    34 C4         0.1943   -14.1761     9.4156 C.ar       2 BB2          0.0000
    35 C5         0.2000   -15.1937     8.4585 C.ar       2 BB2          0.0000
    36 C6         0.3606   -14.8807     7.1247 C.ar       2 BB2          0.0000
    37 C7         0.5162   -13.5625     6.7340 C.ar       2 BB2          0.0000
    38 C8         0.5116   -12.5491     7.6766 C.ar       2 BB2          0.0000
    39 C9         0.3458   -12.8466     9.0128 C.ar       2 BB2          0.0000
    40 C10        0.3405   -11.7416    10.0376 C.3        2 BB2          0.0000
    41 N11       -0.8775   -10.9417     9.8869 N.pl3      2 BB2          0.0000
    42 C12       -1.9601   -10.9853    10.6975 C.2        2 BB2          0.0000
    43 C13       -2.8435   -10.0913    10.1954 C.2        2 BB2          0.0000
    44 N14       -2.2659    -9.5516     9.1162 N.2        2 BB2          0.0000
    45 N15       -1.0997   -10.0726     8.9638 N.2        2 BB2          0.0000
    46 H16        0.0794   -16.2231     8.7623 H          2 BB2          0.0000
    47 H17        0.3653   -15.6663     6.3837 H          2 BB2          0.0000
    48 H18        0.6423   -13.3234     5.6883 H          2 BB2          0.0000
    49 H19        0.6339   -11.5225     7.3644 H          2 BB2          0.0000
    50 H20        0.3700   -12.1736    11.0379 H          2 BB2          0.0000
    51 H21        1.2134   -11.1056     9.8906 H          2 BB2          0.0000
    52 H22       -2.0926   -11.6083    11.5697 H          2 BB2          0.0000
    53 H23       -3.8224    -9.8595    10.5883 H          2 BB2          0.0000
@<TRIPOS>BOND
     1      1      2 1
     2      1     15 1
     3      1     16 1
     4      1     17 1
     5      2      3 1
     6      2      4 1
     7      2      5 1
     8      3     18 1
     9      3     19 1
    10      3     20 1
    11      4     21 1
    12      4     22 1
    13      4     23 1
    14      5      6 1
    15      6      7 2
    16      6      8 am
    17      8      9 1
    18      8     14 1
    19      9     10 1
    20      9     24 1
    21      9     25 1
    22     10     11 1
    23     10     13 1
    24     10     14 1
    25     11     12 1
    26     11     26 1
    27     11     27 1
    28     12     13 1
    29     12     28 1
    30     12     29 1
    31     14     30 1
    32     14     31 1
    33     32     33 2
    34     32     34 1
    35     34     35 ar
    36     34     39 ar
    37     35     36 ar
    38     35     46 1
    39     36     37 ar
    40     36     47 1
    41     37     38 ar
    42     37     48 1
    43     38     39 ar
    44     38     49 1
    45     39     40 1
    46     40     41 1
    47     40     50 1
    48     40     51 1
    49     41     42 1
    50     41     45 1
    51     42     43 2
    52     42     52 1
    53     43     44 1
    54     43     53 1
    55     44     45 2
    56     13     32 am
@<TRIPOS>SUBSTRUCTURE
     1 BB1          13
     2 BB2          32
@<TRIPOS>MOLECULE
EN300-256216_i001_EN300-306118_i001_14_6_1
  53   56   2   0   0
SMALL
USER_CHARGES
@<TRIPOS>ATOM
     1 C1        -0.5184   -20.2277    16.2317 C.3        1 BB1          0.0000
     2 C2         0.0530   -20.2874    14.8136 C.3        1 BB1          0.0000
     3 C3         0.8295   -21.5931    14.6313 C.3        1 BB1          0.0000
     4 C4        -1.0912   -20.2286    13.7997 C.3        1 BB1          0.0000
     5 O5         0.9446   -19.1608    14.6032 O.3        1 BB1          0.0000
     6 C6         0.3773   -17.9450    14.4909 C.2        1 BB1          0.0000
     7 O7        -0.6633   -17.7042    15.0702 O.2        1 BB1          0.0000
     8 N8         0.9636   -16.9949    13.7359 N.am       1 BB1          0.0000
     9 C9         0.6672   -15.5973    13.3765 C.3        1 BB1          0.0000
    10 C10        1.4745   -15.8199    12.1051 C.3        1 BB1          0.0000
    11 C11        2.2373   -14.6894    11.4183 C.3        1 BB1          0.0000
    12 C12        1.0962   -14.7000    10.3815 C.3        1 BB1          0.0000
    13 N13        0.8399   -16.0949    10.8124 N.am       1 BB1          0.0000
    14 C14        2.1837   -16.8994    12.9159 C.3        1 BB1          0.0000
    15 H15        0.2969   -20.2696    16.9540 H          1 BB1          0.0000
    16 H16       -1.0715   -19.2975    16.3616 H          1 BB1          0.0000
    17 H17       -1.1876   -21.0734    16.3896 H          1 BB1          0.0000
    18 H18        0.1603   -22.4388    14.7892 H          1 BB1          0.0000
    19 H19        1.2366   -21.6357    13.6211 H          1 BB1          0.0000
    20 H20        1.6447   -21.6349    15.3536 H          1 BB1          0.0000
    21 H21       -1.6444   -19.2984    13.9296 H          1 BB1          0.0000
    22 H22       -0.6841   -20.2712    12.7895 H          1 BB1          0.0000
    23 H23       -1.7604   -21.0744    13.9577 H          1 BB1          0.0000
    24 H24       -0.3909   -15.4104    13.1929 H          1 BB1          0.0000
    25 H25        1.1140   -14.8696    14.0539 H          1 BB1          0.0000
    26 H26        2.2892   -13.7730    12.0062 H          1 BB1          0.0000
    27 H27        3.2027   -14.9925    11.0133 H          1 BB1          0.0000
    28 H28        0.2838   -14.0124    10.6168 H          1 BB1          0.0000
    29 H29        1.4400   -14.6158     9.3507 H          1 BB1          0.0000
    30 H30        3.0524   -16.5326    13.4628 H          1 BB1          0.0000
    31 H31        2.3940   -17.8042    12.3457 H          1 BB1          0.0000
    32 C2        -0.3996   -13.7304    10.8133 C.2        2 BB2          0.0000
    33 O3         0.0088   -14.6778    11.4700 O.2        2 BB2          0.0000
    34 C4         0.1276   -13.4914     9.4563 C.ar       2 BB2          0.0000
    35 C5         0.3583   -14.5656     8.5936 C.ar       2 BB2          0.0000
    36 C6         0.8514   -14.3346     7.3262 C.ar       2 BB2          0.0000
    37 C7         1.1179   -13.0426     6.9090 C.ar       2 BB2          0.0000
    38 C8         0.8918   -11.9734     7.7582 C.ar       2 BB2          0.0000
    39 C9         0.3932   -12.1888     9.0257 C.ar       2 BB2          0.0000
    40 C10        0.1472   -11.0231     9.9488 C.3        2 BB2          0.0000
    41 N11       -1.2932   -10.7753    10.0492 N.pl3      2 BB2          0.0000
    42 C12       -2.2529   -11.3618     9.2971 C.2        2 BB2          0.0000
    43 C13       -3.4309   -10.8465     9.7198 C.2        2 BB2          0.0000
    44 N14       -3.1380    -9.9810    10.6969 N.2        2 BB2          0.0000
    45 N15       -1.8637    -9.9660    10.8717 N.2        2 BB2          0.0000
    46 H16        0.1514   -15.5747     8.9183 H          2 BB2          0.0000
    47 H17        1.0303   -15.1641     6.6582 H          2 BB2          0.0000
    48 H18        1.5046   -12.8676     5.9157 H          2 BB2          0.0000
    49 H19        1.1024   -10.9676     7.4259 H          2 BB2          0.0000
    50 H20        0.5463   -11.2516    10.9369 H          2 BB2          0.0000
    51 H21        0.6418   -10.1360     9.5534 H          2 BB2          0.0000
    52 H22       -2.1081   -12.0939     8.5164 H          2 BB2          0.0000
    53 H23       -4.4139   -11.0863     9.3423 H          2 BB2          0.0000
@<TRIPOS>BOND
     1      1      2 1
     2      1     15 1
     3      1     16 1
     4      1     17 1
     5      2      3 1
     6      2      4 1
     7      2      5 1
     8      3     18 1
     9      3     19 1
    10      3     20 1
    11      4     21 1
    12      4     22 1
    13      4     23 1
    14      5      6 1
    15      6      7 2
    16      6      8 am
    17      8      9 1
    18      8     14 1
    19      9     10 1
    20      9     24 1
    21      9     25 1
    22     10     11 1
    23     10     13 1
    24     10     14 1
    25     11     12 1
    26     11     26 1
    27     11     27 1
    28     12     13 1
    29     12     28 1
    30     12     29 1
    31     14     30 1
    32     14     31 1
    33     32     33 2
    34     32     34 1
    35     34     35 ar
    36     34     39 ar
    37     35     36 ar
    38     35     46 1
    39     36     37 ar
    40     36     47 1
    41     37     38 ar
    42     37     48 1
    43     38     39 ar
    44     38     49 1
    45     39     40 1
    46     40     41 1
    47     40     50 1
    48     40     51 1
    49     41     42 1
    50     41     45 1
    51     42     43 2
    52     42     52 1
    53     43     44 1
    54     43     53 1
    55     44     45 2
    56     13     32 am
@<TRIPOS>SUBSTRUCTURE
     1 BB1          13
     2 BB2          32
@<TRIPOS>MOLECULE
EN300-256216_i001_EN300-306118_i001_14_7_1
  53   56   2   0   0
SMALL
USER_CHARGES
@<TRIPOS>ATOM
     1 C1        -0.5184   -20.2277    16.2317 C.3        1 BB1          0.0000
     2 C2         0.0530   -20.2874    14.8136 C.3        1 BB1          0.0000
     3 C3         0.8295   -21.5931    14.6313 C.3        1 BB1          0.0000
     4 C4        -1.0912   -20.2286    13.7997 C.3        1 BB1          0.0000
     5 O5         0.9446   -19.1608    14.6032 O.3        1 BB1          0.0000
     6 C6         0.3773   -17.9450    14.4909 C.2        1 BB1          0.0000
     7 O7        -0.6633   -17.7042    15.0702 O.2        1 BB1          0.0000
     8 N8         0.9636   -16.9949    13.7359 N.am       1 BB1          0.0000
     9 C9         0.6672   -15.5973    13.3765 C.3        1 BB1          0.0000
    10 C10        1.4745   -15.8199    12.1051 C.3        1 BB1          0.0000
    11 C11        2.2373   -14.6894    11.4183 C.3        1 BB1          0.0000
    12 C12        1.0962   -14.7000    10.3815 C.3        1 BB1          0.0000
    13 N13        0.8399   -16.0949    10.8124 N.am       1 BB1          0.0000
    14 C14        2.1837   -16.8994    12.9159 C.3        1 BB1          0.0000
    15 H15        0.2969   -20.2696    16.9540 H          1 BB1          0.0000
    16 H16       -1.0715   -19.2975    16.3616 H          1 BB1          0.0000
    17 H17       -1.1876   -21.0734    16.3896 H          1 BB1          0.0000
    18 H18        0.1603   -22.4388    14.7892 H          1 BB1          0.0000
    19 H19        1.2366   -21.6357    13.6211 H          1 BB1          0.0000
    20 H20        1.6447   -21.6349    15.3536 H          1 BB1          0.0000
    21 H21       -1.6444   -19.2984    13.9296 H          1 BB1          0.0000
    22 H22       -0.6841   -20.2712    12.7895 H          1 BB1          0.0000
    23 H23       -1.7604   -21.0744    13.9577 H          1 BB1          0.0000
    24 H24       -0.3909   -15.4104    13.1929 H          1 BB1          0.0000
    25 H25        1.1140   -14.8696    14.0539 H          1 BB1          0.0000
    26 H26        2.2892   -13.7730    12.0062 H          1 BB1          0.0000
    27 H27        3.2027   -14.9925    11.0133 H          1 BB1          0.0000
    28 H28        0.2838   -14.0124    10.6168 H          1 BB1          0.0000
    29 H29        1.4400   -14.6158     9.3507 H          1 BB1          0.0000
    30 H30        3.0524   -16.5326    13.4628 H          1 BB1          0.0000
    31 H31        2.3940   -17.8042    12.3457 H          1 BB1          0.0000
    32 C2         0.3107   -14.7692    11.2595 C.2        2 BB2          0.0000
    33 O3         1.3333   -15.2930    11.6783 O.2        2 BB2          0.0000
    34 C4         0.2910   -14.1590     9.9165 C.ar       2 BB2          0.0000
    35 C5         0.9400   -14.7869     8.8506 C.ar       2 BB2          0.0000
    36 C6         0.9175   -14.2104     7.5976 C.ar       2 BB2          0.0000
    37 C7         0.2545   -13.0130     7.3953 C.ar       2 BB2          0.0000
    38 C8        -0.3907   -12.3851     8.4465 C.ar       2 BB2          0.0000
    39 C9        -0.3818   -12.9530     9.7032 C.ar       2 BB2          0.0000
    40 C10       -1.0854   -12.2680    10.8464 C.3        2 BB2          0.0000
    41 N11       -1.9001   -11.1660    10.3286 N.pl3      2 BB2          0.0000
    42 C12       -3.2480   -11.0736    10.4030 C.2        2 BB2          0.0000
    43 C13       -3.5794    -9.9055     9.8051 C.2        2 BB2          0.0000
    44 N14       -2.4331    -9.3478     9.3992 N.2        2 BB2          0.0000
    45 N15       -1.4563   -10.1169     9.7294 N.2        2 BB2          0.0000
    46 H16        1.4585   -15.7213     9.0074 H          2 BB2          0.0000
    47 H17        1.4188   -14.6947     6.7727 H          2 BB2          0.0000
    48 H18        0.2408   -12.5658     6.4122 H          2 BB2          0.0000
    49 H19       -0.9059   -11.4505     8.2813 H          2 BB2          0.0000
    50 H20       -1.7270   -12.9843    11.3596 H          2 BB2          0.0000
    51 H21       -0.3465   -11.8763    11.5454 H          2 BB2          0.0000
    52 H22       -3.9235   -11.7882    10.8496 H          2 BB2          0.0000
    53 H23       -4.5737    -9.5029     9.6797 H          2 BB2          0.0000
@<TRIPOS>BOND
     1      1      2 1
     2      1     15 1
     3      1     16 1
     4      1     17 1
     5      2      3 1
     6      2      4 1
     7      2      5 1
     8      3     18 1
     9      3     19 1
    10      3     20 1
    11      4     21 1
    12      4     22 1
    13      4     23 1
    14      5      6 1
    15      6      7 2
    16      6      8 am
    17      8      9 1
    18      8     14 1
    19      9     10 1
    20      9     24 1
    21      9     25 1
    22     10     11 1
    23     10     13 1
    24     10     14 1
    25     11     12 1
    26     11     26 1
    27     11     27 1
    28     12     13 1
    29     12     28 1
    30     12     29 1
    31     14     30 1
    32     14     31 1
    33     32     33 2
    34     32     34 1
    35     34     35 ar
    36     34     39 ar
    37     35     36 ar
    38     35     46 1
    39     36     37 ar
    40     36     47 1
    41     37     38 ar
    42     37     48 1
    43     38     39 ar
    44     38     49 1
    45     39     40 1
    46     40     41 1
    47     40     50 1
    48     40     51 1
    49     41     42 1
    50     41     45 1
    51     42     43 2
    52     42     52 1
    53     43     44 1
    54     43     53 1
    55     44     45 2
    56     13     32 am
@<TRIPOS>SUBSTRUCTURE
     1 BB1          13
     2 BB2          32
@<TRIPOS>MOLECULE
EN300-256216_i001_EN300-223795_i001_14_13_1
  44   46   2   0   0
SMALL
USER_CHARGES
@<TRIPOS>ATOM
     1 C1        -0.5184   -20.2277    16.2317 C.3        1 BB1          0.0000
     2 C2         0.0530   -20.2874    14.8136 C.3        1 BB1          0.0000
     3 C3         0.8295   -21.5931    14.6313 C.3        1 BB1          0.0000
     4 C4        -1.0912   -20.2286    13.7997 C.3        1 BB1          0.0000
     5 O5         0.9446   -19.1608    14.6032 O.3        1 BB1          0.0000
     6 C6         0.3773   -17.9450    14.4909 C.2        1 BB1          0.0000
     7 O7        -0.6633   -17.7042    15.0702 O.2        1 BB1          0.0000
     8 N8         0.9636   -16.9949    13.7359 N.am       1 BB1          0.0000
     9 C9         0.6672   -15.5973    13.3765 C.3        1 BB1          0.0000
    10 C10        1.4745   -15.8199    12.1051 C.3        1 BB1          0.0000
    11 C11        2.2373   -14.6894    11.4183 C.3        1 BB1          0.0000
    12 C12        1.0962   -14.7000    10.3815 C.3        1 BB1          0.0000
    13 N13        0.8399   -16.0949    10.8124 N.am       1 BB1          0.0000
    14 C14        2.1837   -16.8994    12.9159 C.3        1 BB1          0.0000
    15 H15        0.2969   -20.2696    16.9540 H          1 BB1          0.0000
    16 H16       -1.0715   -19.2975    16.3616 H          1 BB1          0.0000
    17 H17       -1.1876   -21.0734    16.3896 H          1 BB1          0.0000
    18 H18        0.1603   -22.4388    14.7892 H          1 BB1          0.0000
    19 H19        1.2366   -21.6357    13.6211 H          1 BB1          0.0000
    20 H20        1.6447   -21.6349    15.3536 H          1 BB1          0.0000
    21 H21       -1.6444   -19.2984    13.9296 H          1 BB1          0.0000
    22 H22       -0.6841   -20.2712    12.7895 H          1 BB1          0.0000
    23 H23       -1.7604   -21.0744    13.9577 H          1 BB1          0.0000
    24 H24       -0.3909   -15.4104    13.1929 H          1 BB1          0.0000
    25 H25        1.1140   -14.8696    14.0539 H          1 BB1          0.0000
    26 H26        2.2892   -13.7730    12.0062 H          1 BB1          0.0000
    27 H27        3.2027   -14.9925    11.0133 H          1 BB1          0.0000
    28 H28        0.2838   -14.0124    10.6168 H          1 BB1          0.0000
    29 H29        1.4400   -14.6158     9.3507 H          1 BB1          0.0000
    30 H30        3.0524   -16.5326    13.4628 H          1 BB1          0.0000
    31 H31        2.3940   -17.8042    12.3457 H          1 BB1          0.0000
    32 O1         0.1998   -15.5767    10.2835 O.2        2 BB2          0.0000
    33 C2        -0.1214   -14.6741    11.0454 C.2        2 BB2          0.0000
    34 C4        -0.5198   -13.3679    10.5087 C.2        2 BB2          0.0000
    35 C5        -1.2337   -12.3734    11.2774 C.2        2 BB2          0.0000
    36 C6        -1.4890   -11.2682    10.5893 C.2        2 BB2          0.0000
    37 S7        -0.8614   -11.3974     8.9556 S.3        2 BB2          0.0000
    38 C8        -0.2501   -12.9637     9.2351 C.2        2 BB2          0.0000
    39 C9         0.4817   -13.7924     8.2110 C.3        2 BB2          0.0000
    40 F10        0.6752   -13.0353     7.0506 F          2 BB2          0.0000
    41 F11        1.7227   -14.1815     8.7264 F          2 BB2          0.0000
    42 F12       -0.2737   -14.9296     7.9053 F          2 BB2          0.0000
    43 H13       -1.5292   -12.5156    12.3063 H          2 BB2          0.0000
    44 H14       -2.0113   -10.4077    10.9806 H          2 BB2          0.0000
@<TRIPOS>BOND
     1      1      2 1
     2      1     15 1
     3      1     16 1
     4      1     17 1
     5      2      3 1
     6      2      4 1
     7      2      5 1
     8      3     18 1
     9      3     19 1
    10      3     20 1
    11      4     21 1
    12      4     22 1
    13      4     23 1
    14      5      6 1
    15      6      7 2
    16      6      8 am
    17      8      9 1
    18      8     14 1
    19      9     10 1
    20      9     24 1
    21      9     25 1
    22     10     11 1
    23     10     13 1
    24     10     14 1
    25     11     12 1
    26     11     26 1
    27     11     27 1
    28     12     13 1
    29     12     28 1
    30     12     29 1
    31     14     30 1
    32     14     31 1
    33     32     33 2
    34     33     34 1
    35     34     35 1
    36     34     38 2
    37     35     36 2
    38     35     43 1
    39     36     37 1
    40     36     44 1
    41     37     38 1
    42     38     39 1
    43     39     40 1
    44     39     41 1
    45     39     42 1
    46     13     33 am
@<TRIPOS>SUBSTRUCTURE
     1 BB1          13
     2 BB2          33
@<TRIPOS>MOLECULE
EN300-256216_i001_EN300-344045_i001_14_2_1
  60   63   2   0   0
SMALL
USER_CHARGES
@<TRIPOS>ATOM
     1 C1        -0.5184   -20.2277    16.2317 C.3        1 BB1          0.0000
     2 C2         0.0530   -20.2874    14.8136 C.3        1 BB1          0.0000
     3 C3         0.8295   -21.5931    14.6313 C.3        1 BB1          0.0000
     4 C4        -1.0912   -20.2286    13.7997 C.3        1 BB1          0.0000
     5 O5         0.9446   -19.1608    14.6032 O.3        1 BB1          0.0000
     6 C6         0.3773   -17.9450    14.4909 C.2        1 BB1          0.0000
     7 O7        -0.6633   -17.7042    15.0702 O.2        1 BB1          0.0000
     8 N8         0.9636   -16.9949    13.7359 N.am       1 BB1          0.0000
     9 C9         0.6672   -15.5973    13.3765 C.3        1 BB1          0.0000
    10 C10        1.4745   -15.8199    12.1051 C.3        1 BB1          0.0000
    11 C11        2.2373   -14.6894    11.4183 C.3        1 BB1          0.0000
    12 C12        1.0962   -14.7000    10.3815 C.3        1 BB1          0.0000
    13 N13        0.8399   -16.0949    10.8124 N.am       1 BB1          0.0000
    14 C14        2.1837   -16.8994    12.9159 C.3        1 BB1          0.0000
    15 H15        0.2969   -20.2696    16.9540 H          1 BB1          0.0000
    16 H16       -1.0715   -19.2975    16.3616 H          1 BB1          0.0000
    17 H17       -1.1876   -21.0734    16.3896 H          1 BB1          0.0000
    18 H18        0.1603   -22.4388    14.7892 H          1 BB1          0.0000
    19 H19        1.2366   -21.6357    13.6211 H          1 BB1          0.0000
    20 H20        1.6447   -21.6349    15.3536 H          1 BB1          0.0000
    21 H21       -1.6444   -19.2984    13.9296 H          1 BB1          0.0000
    22 H22       -0.6841   -20.2712    12.7895 H          1 BB1          0.0000
    23 H23       -1.7604   -21.0744    13.9577 H          1 BB1          0.0000
    24 H24       -0.3909   -15.4104    13.1929 H          1 BB1          0.0000
    25 H25        1.1140   -14.8696    14.0539 H          1 BB1          0.0000
    26 H26        2.2892   -13.7730    12.0062 H          1 BB1          0.0000
    27 H27        3.2027   -14.9925    11.0133 H          1 BB1          0.0000
    28 H28        0.2838   -14.0124    10.6168 H          1 BB1          0.0000
    29 H29        1.4400   -14.6158     9.3507 H          1 BB1          0.0000
    30 H30        3.0524   -16.5326    13.4628 H          1 BB1          0.0000
    31 H31        2.3940   -17.8042    12.3457 H          1 BB1          0.0000
    32 O1         0.5661   -15.7707    10.9576 O.2        2 BB2          0.0000
    33 C2         0.2489   -14.5943    11.0019 C.2        2 BB2          0.0000
    34 C4         0.9922   -13.5817    10.1694 C.3        2 BB2          0.0000
    35 C5         0.0568   -13.0163     9.0988 C.3        2 BB2          0.0000
    36 C6         0.8768   -12.3025     8.0042 C.3        2 BB2          0.0000
    37 C7         1.0511   -13.3749     6.9002 C.3        2 BB2          0.0000
    38 C8        -0.3163   -14.1023     6.9114 C.3        2 BB2          0.0000
    39 C9        -0.7017   -14.1605     8.4040 C.3        2 BB2          0.0000
    40 C10       -0.9194   -12.0528     9.7233 C.ar       2 BB2          0.0000
    41 C11       -0.7018   -11.5818    11.0046 C.ar       2 BB2          0.0000
    42 C12       -1.5972   -10.6981    11.5774 C.ar       2 BB2          0.0000
    43 C13       -2.7099   -10.2850    10.8687 C.ar       2 BB2          0.0000
    44 C14       -2.9270   -10.7553     9.5871 C.ar       2 BB2          0.0000
    45 C15       -2.0292   -11.6357     9.0126 C.ar       2 BB2          0.0000
    46 H16        1.3431   -12.7722    10.8096 H          2 BB2          0.0000
    47 H17        1.8455   -14.0614     9.6898 H          2 BB2          0.0000
    48 H18        0.3298   -11.4425     7.6177 H          2 BB2          0.0000
    49 H19        1.8472   -11.9949     8.3939 H          2 BB2          0.0000
    50 H20        1.2319   -12.9071     5.9324 H          2 BB2          0.0000
    51 H21        1.8570   -14.0634     7.1543 H          2 BB2          0.0000
    52 H22       -1.0559   -13.5330     6.3483 H          2 BB2          0.0000
    53 H23       -0.2166   -15.1082     6.5036 H          2 BB2          0.0000
    54 H24       -0.4034   -15.1187     8.8294 H          2 BB2          0.0000
    55 H25       -1.7765   -14.0194     8.5179 H          2 BB2          0.0000
    56 H26        0.1674   -11.9045    11.5583 H          2 BB2          0.0000
    57 H27       -1.4278   -10.3307    12.5787 H          2 BB2          0.0000
    58 H28       -3.4099    -9.5951    11.3165 H          2 BB2          0.0000
    59 H29       -3.7964   -10.4328     9.0334 H          2 BB2          0.0000
    60 H30       -2.1987   -12.0032     8.0113 H          2 BB2          0.0000
@<TRIPOS>BOND
     1      1      2 1
     2      1     15 1
     3      1     16 1
     4      1     17 1
     5      2      3 1
     6      2      4 1
     7      2      5 1
     8      3     18 1
     9      3     19 1
    10      3     20 1
    11      4     21 1
    12      4     22 1
    13      4     23 1
    14      5      6 1
    15      6      7 2
    16      6      8 am
    17      8      9 1
    18      8     14 1
    19      9     10 1
    20      9     24 1
    21      9     25 1
    22     10     11 1
    23     10     13 1
    24     10     14 1
    25     11     12 1
    26     11     26 1
    27     11     27 1
    28     12     13 1
    29     12     28 1
    30     12     29 1
    31     14     30 1
    32     14     31 1
    33     32     33 2
    34     33     34 1
    35     34     35 1
    36     34     46 1
    37     34     47 1
    38     35     36 1
    39     35     39 1
    40     35     40 1
    41     36     37 1
    42     36     48 1
    43     36     49 1
    44     37     38 1
    45     37     50 1
    46     37     51 1
    47     38     39 1
    48     38     52 1
    49     38     53 1
    50     39     54 1
    51     39     55 1
    52     40     41 ar
    53     40     45 ar
    54     41     42 ar
    55     41     56 1
    56     42     43 ar
    57     42     57 1
    58     43     44 ar
    59     43     58 1
    60     44     45 ar
    61     44     59 1
    62     45     60 1
    63     13     33 am
@<TRIPOS>SUBSTRUCTURE
     1 BB1          13
     2 BB2          33
@<TRIPOS>MOLECULE
EN300-256216_i001_EN300-344045_i001_14_3_1
  60   63   2   0   0
SMALL
USER_CHARGES
@<TRIPOS>ATOM
     1 C1        -0.5184   -20.2277    16.2317 C.3        1 BB1          0.0000
     2 C2         0.0530   -20.2874    14.8136 C.3        1 BB1          0.0000
     3 C3         0.8295   -21.5931    14.6313 C.3        1 BB1          0.0000
     4 C4        -1.0912   -20.2286    13.7997 C.3        1 BB1          0.0000
     5 O5         0.9446   -19.1608    14.6032 O.3        1 BB1          0.0000
     6 C6         0.3773   -17.9450    14.4909 C.2        1 BB1          0.0000
     7 O7        -0.6633   -17.7042    15.0702 O.2        1 BB1          0.0000
     8 N8         0.9636   -16.9949    13.7359 N.am       1 BB1          0.0000
     9 C9         0.6672   -15.5973    13.3765 C.3        1 BB1          0.0000
    10 C10        1.4745   -15.8199    12.1051 C.3        1 BB1          0.0000
    11 C11        2.2373   -14.6894    11.4183 C.3        1 BB1          0.0000
    12 C12        1.0962   -14.7000    10.3815 C.3        1 BB1          0.0000
    13 N13        0.8399   -16.0949    10.8124 N.am       1 BB1          0.0000
    14 C14        2.1837   -16.8994    12.9159 C.3        1 BB1          0.0000
    15 H15        0.2969   -20.2696    16.9540 H          1 BB1          0.0000
    16 H16       -1.0715   -19.2975    16.3616 H          1 BB1          0.0000
    17 H17       -1.1876   -21.0734    16.3896 H          1 BB1          0.0000
    18 H18        0.1603   -22.4388    14.7892 H          1 BB1          0.0000
    19 H19        1.2366   -21.6357    13.6211 H          1 BB1          0.0000
    20 H20        1.6447   -21.6349    15.3536 H          1 BB1          0.0000
    21 H21       -1.6444   -19.2984    13.9296 H          1 BB1          0.0000
    22 H22       -0.6841   -20.2712    12.7895 H          1 BB1          0.0000
    23 H23       -1.7604   -21.0744    13.9577 H          1 BB1          0.0000
    24 H24       -0.3909   -15.4104    13.1929 H          1 BB1          0.0000
    25 H25        1.1140   -14.8696    14.0539 H          1 BB1          0.0000
    26 H26        2.2892   -13.7730    12.0062 H          1 BB1          0.0000
    27 H27        3.2027   -14.9925    11.0133 H          1 BB1          0.0000
    28 H28        0.2838   -14.0124    10.6168 H          1 BB1          0.0000
    29 H29        1.4400   -14.6158     9.3507 H          1 BB1          0.0000
    30 H30        3.0524   -16.5326    13.4628 H          1 BB1          0.0000
    31 H31        2.3940   -17.8042    12.3457 H          1 BB1          0.0000
    32 C2         0.5459   -14.5453    10.1019 C.2        2 BB2          0.0000
    33 O3         0.1752   -15.4776     9.4091 O.2        2 BB2          0.0000
    34 C4        -0.4230   -13.4540    10.4780 C.3        2 BB2          0.0000
    35 C5        -0.6345   -12.5251     9.2809 C.3        2 BB2          0.0000
    36 C6         0.6374   -11.6890     9.0294 C.3        2 BB2          0.0000
    37 C7         1.4011   -12.4785     7.9373 C.3        2 BB2          0.0000
    38 C8         0.2593   -12.9923     7.0255 C.3        2 BB2          0.0000
    39 C9        -0.8749   -13.3536     8.0068 C.3        2 BB2          0.0000
    40 C10       -1.8085   -11.6149     9.5352 C.ar       2 BB2          0.0000
    41 C11       -3.0826   -12.1418     9.6348 C.ar       2 BB2          0.0000
    42 C12       -4.1594   -11.3070     9.8680 C.ar       2 BB2          0.0000
    43 C13       -3.9620    -9.9453    10.0023 C.ar       2 BB2          0.0000
    44 C14       -2.6878    -9.4186     9.9036 C.ar       2 BB2          0.0000
    45 C15       -1.6104   -10.2540     9.6747 C.ar       2 BB2          0.0000
    46 H16       -1.3759   -13.8977    10.7665 H          2 BB2          0.0000
    47 H17       -0.0201   -12.8827    11.3144 H          2 BB2          0.0000
    48 H18        0.3751   -10.6947     8.6682 H          2 BB2          0.0000
    49 H19        1.2348   -11.6204     9.9386 H          2 BB2          0.0000
    50 H20        2.0718   -11.8214     7.3835 H          2 BB2          0.0000
    51 H21        1.9500   -13.3119     8.3758 H          2 BB2          0.0000
    52 H22       -0.0641   -12.2083     6.3407 H          2 BB2          0.0000
    53 H23        0.5807   -13.8747     6.4723 H          2 BB2          0.0000
    54 H24       -0.8408   -14.4175     8.2413 H          2 BB2          0.0000
    55 H25       -1.8409   -13.0975     7.5716 H          2 BB2          0.0000
    56 H26       -3.2369   -13.2055     9.5299 H          2 BB2          0.0000
    57 H27       -5.1549   -11.7185     9.9450 H          2 BB2          0.0000
    58 H28       -4.8033    -9.2931    10.1838 H          2 BB2          0.0000
    59 H29       -2.5335    -8.3548    10.0082 H          2 BB2          0.0000
    60 H30       -0.6148    -9.8425     9.5976 H          2 BB2          0.0000
@<TRIPOS>BOND
     1      1      2 1
     2      1     15 1
     3      1     16 1
     4      1     17 1
     5      2      3 1
     6      2      4 1
     7      2      5 1
     8      3     18 1
     9      3     19 1
    10      3     20 1
    11      4     21 1
    12      4     22 1
    13      4     23 1
    14      5      6 1
    15      6      7 2
    16      6      8 am
    17      8      9 1
    18      8     14 1
    19      9     10 1
    20      9     24 1
    21      9     25 1
    22     10     11 1
    23     10     13 1
    24     10     14 1
    25     11     12 1
    26     11     26 1
    27     11     27 1
    28     12     13 1
    29     12     28 1
    30     12     29 1
    31     14     30 1
    32     14     31 1
    33     32     33 2
    34     32     34 1
    35     34     35 1
    36     34     46 1
    37     34     47 1
    38     35     36 1
    39     35     39 1
    40     35     40 1
    41     36     37 1
    42     36     48 1
    43     36     49 1
    44     37     38 1
    45     37     50 1
    46     37     51 1
    47     38     39 1
    48     38     52 1
    49     38     53 1
    50     39     54 1
    51     39     55 1
    52     40     41 ar
    53     40     45 ar
    54     41     42 ar
    55     41     56 1
    56     42     43 ar
    57     42     57 1
    58     43     44 ar
    59     43     58 1
    60     44     45 ar
    61     44     59 1
    62     45     60 1
    63     13     32 am
@<TRIPOS>SUBSTRUCTURE
     1 BB1          13
     2 BB2          32
@<TRIPOS>MOLECULE
EN300-256216_i001_EN300-222254_i002_15_16_1
  54   57   2   0   0
SMALL
USER_CHARGES
@<TRIPOS>ATOM
     1 C1        -0.4474   -19.8899    13.7996 C.3        1 BB1          0.0000
     2 C2         0.5079   -19.3554    14.8685 C.3        1 BB1          0.0000
     3 C3        -0.2431   -19.2014    16.1926 C.3        1 BB1          0.0000
     4 C4         1.6685   -20.3354    15.0514 C.3        1 BB1          0.0000
     5 O5         1.0257   -18.0640    14.4529 O.3        1 BB1          0.0000
     6 C6         0.1271   -17.1458    14.0504 C.2        1 BB1          0.0000
     7 O7        -0.9949   -17.1486    14.5169 O.2        1 BB1          0.0000
     8 N8         0.4719   -16.2236    13.1301 N.am       1 BB1          0.0000
     9 C9        -0.1995   -15.0974    12.4584 C.3        1 BB1          0.0000
    10 C10        0.7737   -15.2890    11.3035 C.3        1 BB1          0.0000
    11 C11        1.2218   -14.1291    10.4174 C.3        1 BB1          0.0000
    12 C12        0.2631   -14.7129     9.3604 C.3        1 BB1          0.0000
    13 N13        0.4036   -16.0026    10.0774 N.am       1 BB1          0.0000
    14 C14        1.6863   -15.8984    12.3625 C.3        1 BB1          0.0000
    15 H15       -1.2742   -19.1916    13.6693 H          1 BB1          0.0000
    16 H16        0.0876   -19.9995    12.8562 H          1 BB1          0.0000
    17 H17       -0.8361   -20.8592    14.1115 H          1 BB1          0.0000
    18 H18       -0.6318   -20.1707    16.5046 H          1 BB1          0.0000
    19 H19        0.4374   -18.8206    16.9542 H          1 BB1          0.0000
    20 H20       -1.0700   -18.5032    16.0623 H          1 BB1          0.0000
    21 H21        2.2035   -20.4451    14.1081 H          1 BB1          0.0000
    22 H22        2.3490   -19.9546    15.8129 H          1 BB1          0.0000
    23 H23        1.2797   -21.3047    15.3634 H          1 BB1          0.0000
    24 H24       -1.2362   -15.3048    12.1928 H          1 BB1          0.0000
    25 H25       -0.0779   -14.1464    12.9768 H          1 BB1          0.0000
    26 H26        0.9223   -13.1495    10.7899 H          1 BB1          0.0000
    27 H27        2.2726   -14.1744    10.1312 H          1 BB1          0.0000
    28 H28       -0.7428   -14.2952     9.4029 H          1 BB1          0.0000
    29 H29        0.6770   -14.7246     8.3522 H          1 BB1          0.0000
    30 H30        2.3326   -15.1694    12.8516 H          1 BB1          0.0000
    31 H31        2.2281   -16.7784    12.0158 H          1 BB1          0.0000
    32 C2         0.7784   -14.4710     8.2649 C.2        2 BB2          0.0000
    33 O3         0.2780   -15.5440     7.9733 O.2        2 BB2          0.0000
    34 C4         0.2585   -13.2024     7.6397 C.3        2 BB2          0.0000
    35 C5         1.2379   -12.5605     6.6429 C.3        2 BB2          0.0000
    36 C6         0.8192   -11.2012     7.2275 C.3        2 BB2          0.0000
    37 C7         0.4584   -11.9558     8.5179 C.3        2 BB2          0.0000
    38 C8        -0.8094   -11.4665     9.1691 C.ar       2 BB2          0.0000
    39 C9        -1.4548   -10.3502     8.6725 C.ar       2 BB2          0.0000
    40 C10       -2.6177    -9.9002     9.2695 C.ar       2 BB2          0.0000
    41 C11       -3.1369   -10.5674    10.3645 C.ar       2 BB2          0.0000
    42 Cl12      -4.5976   -10.0019    11.1131 Cl         2 BB2          0.0000
    43 C13       -2.4924   -11.6855    10.8627 C.ar       2 BB2          0.0000
    44 C14       -1.3308   -12.1389    10.2617 C.ar       2 BB2          0.0000
    45 F15       -0.7006   -13.2310    10.7470 F          2 BB2          0.0000
    46 H16       -0.7545   -13.3063     7.2510 H          2 BB2          0.0000
    47 H17        2.2812   -12.8140     6.8310 H          2 BB2          0.0000
    48 H18        0.9501   -12.6945     5.6001 H          2 BB2          0.0000
    49 H19        1.6479   -10.5033     7.3470 H          2 BB2          0.0000
    50 H20       -0.0409   -10.7567     6.7267 H          2 BB2          0.0000
    51 H21        1.2886   -12.0441     9.2187 H          2 BB2          0.0000
    52 H22       -1.0503    -9.8285     7.8176 H          2 BB2          0.0000
    53 H23       -3.1211    -9.0272     8.8810 H          2 BB2          0.0000
    54 H24       -2.8973   -12.2065    11.7176 H          2 BB2          0.0000
@<TRIPOS>BOND
     1      1      2 1
     2      1     15 1
     3      1     16 1
     4      1     17 1
     5      2      3 1
     6      2      4 1
     7      2      5 1
     8      3     18 1
     9      3     19 1
    10      3     20 1
    11      4     21 1
    12      4     22 1
    13      4     23 1
    14      5      6 1
    15      6      7 2
    16      6      8 am
    17      8      9 1
    18      8     14 1
    19      9     10 1
    20      9     24 1
    21      9     25 1
    22     10     11 1
    23     10     13 1
    24     10     14 1
    25     11     12 1
    26     11     26 1
    27     11     27 1
    28     12     13 1
    29     12     28 1
    30     12     29 1
    31     14     30 1
    32     14     31 1
    33     32     33 2
    34     32     34 1
    35     34     35 1
    36     34     37 1
    37     34     46 1
    38     35     36 1
    39     35     47 1
    40     35     48 1
    41     36     37 1
    42     36     49 1
    43     36     50 1
    44     37     38 1
    45     37     51 1
    46     38     39 ar
    47     38     44 ar
    48     39     40 ar
    49     39     52 1
    50     40     41 ar
    51     40     53 1
    52     41     42 1
    53     41     43 ar
    54     43     44 ar
    55     43     54 1
    56     44     45 1
    57     13     32 am
@<TRIPOS>SUBSTRUCTURE
     1 BB1          13
     2 BB2          32
@<TRIPOS>MOLECULE
EN300-256216_i001_EN300-222254_i002_15_2_1
  54   57   2   0   0
SMALL
USER_CHARGES
@<TRIPOS>ATOM
     1 C1        -0.4474   -19.8899    13.7996 C.3        1 BB1          0.0000
     2 C2         0.5079   -19.3554    14.8685 C.3        1 BB1          0.0000
     3 C3        -0.2431   -19.2014    16.1926 C.3        1 BB1          0.0000
     4 C4         1.6685   -20.3354    15.0514 C.3        1 BB1          0.0000
     5 O5         1.0257   -18.0640    14.4529 O.3        1 BB1          0.0000
     6 C6         0.1271   -17.1458    14.0504 C.2        1 BB1          0.0000
     7 O7        -0.9949   -17.1486    14.5169 O.2        1 BB1          0.0000
     8 N8         0.4719   -16.2236    13.1301 N.am       1 BB1          0.0000
     9 C9        -0.1995   -15.0974    12.4584 C.3        1 BB1          0.0000
    10 C10        0.7737   -15.2890    11.3035 C.3        1 BB1          0.0000
    11 C11        1.2218   -14.1291    10.4174 C.3        1 BB1          0.0000
    12 C12        0.2631   -14.7129     9.3604 C.3        1 BB1          0.0000
    13 N13        0.4036   -16.0026    10.0774 N.am       1 BB1          0.0000
    14 C14        1.6863   -15.8984    12.3625 C.3        1 BB1          0.0000
    15 H15       -1.2742   -19.1916    13.6693 H          1 BB1          0.0000
    16 H16        0.0876   -19.9995    12.8562 H          1 BB1          0.0000
    17 H17       -0.8361   -20.8592    14.1115 H          1 BB1          0.0000
    18 H18       -0.6318   -20.1707    16.5046 H          1 BB1          0.0000
    19 H19        0.4374   -18.8206    16.9542 H          1 BB1          0.0000
    20 H20       -1.0700   -18.5032    16.0623 H          1 BB1          0.0000
    21 H21        2.2035   -20.4451    14.1081 H          1 BB1          0.0000
    22 H22        2.3490   -19.9546    15.8129 H          1 BB1          0.0000
    23 H23        1.2797   -21.3047    15.3634 H          1 BB1          0.0000
    24 H24       -1.2362   -15.3048    12.1928 H          1 BB1          0.0000
    25 H25       -0.0779   -14.1464    12.9768 H          1 BB1          0.0000
    26 H26        0.9223   -13.1495    10.7899 H          1 BB1          0.0000
    27 H27        2.2726   -14.1744    10.1312 H          1 BB1          0.0000
    28 H28       -0.7428   -14.2952     9.4029 H          1 BB1          0.0000
    29 H29        0.6770   -14.7246     8.3522 H          1 BB1          0.0000
    30 H30        2.3326   -15.1694    12.8516 H          1 BB1          0.0000
    31 H31        2.2281   -16.7784    12.0158 H          1 BB1          0.0000
    32 C2         0.9056   -14.4125     9.5694 C.2        2 BB2          0.0000
    33 O3         0.2517   -15.1640    10.2725 O.2        2 BB2          0.0000
    34 C4         0.2107   -13.4978     8.5941 C.3        2 BB2          0.0000
    35 C5         1.0724   -13.1277     7.3753 C.3        2 BB2          0.0000
    36 C6         0.4992   -11.7063     7.5004 C.3        2 BB2          0.0000
    37 C7         0.2733   -12.0131     8.9902 C.3        2 BB2          0.0000
    38 C8        -1.0286   -11.4760     9.5265 C.ar       2 BB2          0.0000
    39 C9        -2.2281   -11.9528     9.0336 C.ar       2 BB2          0.0000
    40 C10       -3.4229   -11.4604     9.5246 C.ar       2 BB2          0.0000
    41 C11       -3.4190   -10.4900    10.5106 C.ar       2 BB2          0.0000
    42 Cl12      -4.9199    -9.8726    11.1270 Cl         2 BB2          0.0000
    43 C13       -2.2190   -10.0118    11.0056 C.ar       2 BB2          0.0000
    44 C14       -1.0228   -10.5087    10.5176 C.ar       2 BB2          0.0000
    45 F15        0.1498   -10.0429    11.0005 F          2 BB2          0.0000
    46 H16       -0.7908   -13.8395     8.3332 H          2 BB2          0.0000
    47 H17        2.1443   -13.1845     7.5649 H          2 BB2          0.0000
    48 H18        0.7759   -13.6390     6.4595 H          2 BB2          0.0000
    49 H19        1.2347   -10.9217     7.3228 H          2 BB2          0.0000
    50 H20       -0.4240   -11.5569     6.9405 H          2 BB2          0.0000
    51 H21        1.1267   -11.7652     9.6214 H          2 BB2          0.0000
    52 H22       -2.2323   -12.7105     8.2638 H          2 BB2          0.0000
    53 H23       -4.3600   -11.8332     9.1382 H          2 BB2          0.0000
    54 H24       -2.2155    -9.2542    11.7753 H          2 BB2          0.0000
@<TRIPOS>BOND
     1      1      2 1
     2      1     15 1
     3      1     16 1
     4      1     17 1
     5      2      3 1
     6      2      4 1
     7      2      5 1
     8      3     18 1
     9      3     19 1
    10      3     20 1
    11      4     21 1
    12      4     22 1
    13      4     23 1
    14      5      6 1
    15      6      7 2
    16      6      8 am
    17      8      9 1
    18      8     14 1
    19      9     10 1
    20      9     24 1
    21      9     25 1
    22     10     11 1
    23     10     13 1
    24     10     14 1
    25     11     12 1
    26     11     26 1
    27     11     27 1
    28     12     13 1
    29     12     28 1
    30     12     29 1
    31     14     30 1
    32     14     31 1
    33     32     33 2
    34     32     34 1
    35     34     35 1
    36     34     37 1
    37     34     46 1
    38     35     36 1
    39     35     47 1
    40     35     48 1
    41     36     37 1
    42     36     49 1
    43     36     50 1
    44     37     38 1
    45     37     51 1
    46     38     39 ar
    47     38     44 ar
    48     39     40 ar
    49     39     52 1
    50     40     41 ar
    51     40     53 1
    52     41     42 1
    53     41     43 ar
    54     43     44 ar
    55     43     54 1
    56     44     45 1
    57     13     32 am
@<TRIPOS>SUBSTRUCTURE
     1 BB1          13
     2 BB2          32
@<TRIPOS>MOLECULE
EN300-256216_i001_EN300-307464_i001_15_13_1
  48   50   2   0   0
SMALL
USER_CHARGES
@<TRIPOS>ATOM
     1 C1        -0.4474   -19.8899    13.7996 C.3        1 BB1          0.0000
     2 C2         0.5079   -19.3554    14.8685 C.3        1 BB1          0.0000
     3 C3        -0.2431   -19.2014    16.1926 C.3        1 BB1          0.0000
     4 C4         1.6685   -20.3354    15.0514 C.3        1 BB1          0.0000
     5 O5         1.0257   -18.0640    14.4529 O.3        1 BB1          0.0000
     6 C6         0.1271   -17.1458    14.0504 C.2        1 BB1          0.0000
     7 O7        -0.9949   -17.1486    14.5169 O.2        1 BB1          0.0000
     8 N8         0.4719   -16.2236    13.1301 N.am       1 BB1          0.0000
     9 C9        -0.1995   -15.0974    12.4584 C.3        1 BB1          0.0000
    10 C10        0.7737   -15.2890    11.3035 C.3        1 BB1          0.0000
    11 C11        1.2218   -14.1291    10.4174 C.3        1 BB1          0.0000
    12 C12        0.2631   -14.7129     9.3604 C.3        1 BB1          0.0000
    13 N13        0.4036   -16.0026    10.0774 N.am       1 BB1          0.0000
    14 C14        1.6863   -15.8984    12.3625 C.3        1 BB1          0.0000
    15 H15       -1.2742   -19.1916    13.6693 H          1 BB1          0.0000
    16 H16        0.0876   -19.9995    12.8562 H          1 BB1          0.0000
    17 H17       -0.8361   -20.8592    14.1115 H          1 BB1          0.0000
    18 H18       -0.6318   -20.1707    16.5046 H          1 BB1          0.0000
    19 H19        0.4374   -18.8206    16.9542 H          1 BB1          0.0000
    20 H20       -1.0700   -18.5032    16.0623 H          1 BB1          0.0000
    21 H21        2.2035   -20.4451    14.1081 H          1 BB1          0.0000
    22 H22        2.3490   -19.9546    15.8129 H          1 BB1          0.0000
    23 H23        1.2797   -21.3047    15.3634 H          1 BB1          0.0000
    24 H24       -1.2362   -15.3048    12.1928 H          1 BB1          0.0000
    25 H25       -0.0779   -14.1464    12.9768 H          1 BB1          0.0000
    26 H26        0.9223   -13.1495    10.7899 H          1 BB1          0.0000
    27 H27        2.2726   -14.1744    10.1312 H          1 BB1          0.0000
    28 H28       -0.7428   -14.2952     9.4029 H          1 BB1          0.0000
    29 H29        0.6770   -14.7246     8.3522 H          1 BB1          0.0000
    30 H30        2.3326   -15.1694    12.8516 H          1 BB1          0.0000
    31 H31        2.2281   -16.7784    12.0158 H          1 BB1          0.0000
    32 C2        -0.3993   -13.5023    10.5493 C.2        2 BB2          0.0000
    33 O3         0.2983   -14.1479     9.7785 O.2        2 BB2          0.0000
    34 C4        -0.9088   -12.1859    10.1499 C.2        2 BB2          0.0000
    35 C5        -0.6910   -11.7335     8.9156 C.2        2 BB2          0.0000
    36 C6        -1.6786   -11.3451    11.1356 C.3        2 BB2          0.0000
    37 N7        -2.9047   -10.8515    10.5037 N.pl3      2 BB2          0.0000
    38 C8        -4.0165   -11.5902    10.2008 C.2        2 BB2          0.0000
    39 C9        -4.9014   -10.7480     9.6340 C.2        2 BB2          0.0000
    40 N10       -4.3450    -9.5283     9.5919 N.2        2 BB2          0.0000
    41 C11       -3.1512    -9.5815    10.1165 C.2        2 BB2          0.0000
    42 H12       -1.0661   -10.7644     8.6216 H          2 BB2          0.0000
    43 H13       -0.1393   -12.3361     8.2092 H          2 BB2          0.0000
    44 H14       -1.9360   -11.9494    12.0054 H          2 BB2          0.0000
    45 H15       -1.0657   -10.4999    11.4489 H          2 BB2          0.0000
    46 H16       -4.1569   -12.6458    10.3811 H          2 BB2          0.0000
    47 H17       -5.8863   -11.0089     9.2761 H          2 BB2          0.0000
    48 H18       -2.4704    -8.7492    10.2173 H          2 BB2          0.0000
@<TRIPOS>BOND
     1      1      2 1
     2      1     15 1
     3      1     16 1
     4      1     17 1
     5      2      3 1
     6      2      4 1
     7      2      5 1
     8      3     18 1
     9      3     19 1
    10      3     20 1
    11      4     21 1
    12      4     22 1
    13      4     23 1
    14      5      6 1
    15      6      7 2
    16      6      8 am
    17      8      9 1
    18      8     14 1
    19      9     10 1
    20      9     24 1
    21      9     25 1
    22     10     11 1
    23     10     13 1
    24     10     14 1
    25     11     12 1
    26     11     26 1
    27     11     27 1
    28     12     13 1
    29     12     28 1
    30     12     29 1
    31     14     30 1
    32     14     31 1
    33     32     33 2
    34     32     34 1
    35     34     35 2
    36     34     36 1
    37     35     42 1
    38     35     43 1
    39     36     37 1
    40     36     44 1
    41     36     45 1
    42     37     38 1
    43     37     41 1
    44     38     39 2
    45     38     46 1
    46     39     40 1
    47     39     47 1
    48     40     41 2
    49     41     48 1
    50     13     32 am
@<TRIPOS>SUBSTRUCTURE
     1 BB1          13
     2 BB2          32
@<TRIPOS>MOLECULE
EN300-256216_i001_EN300-307464_i001_15_18_1
  48   50   2   0   0
SMALL
USER_CHARGES
@<TRIPOS>ATOM
     1 C1        -0.4474   -19.8899    13.7996 C.3        1 BB1          0.0000
     2 C2         0.5079   -19.3554    14.8685 C.3        1 BB1          0.0000
     3 C3        -0.2431   -19.2014    16.1926 C.3        1 BB1          0.0000
     4 C4         1.6685   -20.3354    15.0514 C.3        1 BB1          0.0000
     5 O5         1.0257   -18.0640    14.4529 O.3        1 BB1          0.0000
     6 C6         0.1271   -17.1458    14.0504 C.2        1 BB1          0.0000
     7 O7        -0.9949   -17.1486    14.5169 O.2        1 BB1          0.0000
     8 N8         0.4719   -16.2236    13.1301 N.am       1 BB1          0.0000
     9 C9        -0.1995   -15.0974    12.4584 C.3        1 BB1          0.0000
    10 C10        0.7737   -15.2890    11.3035 C.3        1 BB1          0.0000
    11 C11        1.2218   -14.1291    10.4174 C.3        1 BB1          0.0000
    12 C12        0.2631   -14.7129     9.3604 C.3        1 BB1          0.0000
    13 N13        0.4036   -16.0026    10.0774 N.am       1 BB1          0.0000
    14 C14        1.6863   -15.8984    12.3625 C.3        1 BB1          0.0000
    15 H15       -1.2742   -19.1916    13.6693 H          1 BB1          0.0000
    16 H16        0.0876   -19.9995    12.8562 H          1 BB1          0.0000
    17 H17       -0.8361   -20.8592    14.1115 H          1 BB1          0.0000
    18 H18       -0.6318   -20.1707    16.5046 H          1 BB1          0.0000
    19 H19        0.4374   -18.8206    16.9542 H          1 BB1          0.0000
    20 H20       -1.0700   -18.5032    16.0623 H          1 BB1          0.0000
    21 H21        2.2035   -20.4451    14.1081 H          1 BB1          0.0000
    22 H22        2.3490   -19.9546    15.8129 H          1 BB1          0.0000
    23 H23        1.2797   -21.3047    15.3634 H          1 BB1          0.0000
    24 H24       -1.2362   -15.3048    12.1928 H          1 BB1          0.0000
    25 H25       -0.0779   -14.1464    12.9768 H          1 BB1          0.0000
    26 H26        0.9223   -13.1495    10.7899 H          1 BB1          0.0000
    27 H27        2.2726   -14.1744    10.1312 H          1 BB1          0.0000
    28 H28       -0.7428   -14.2952     9.4029 H          1 BB1          0.0000
    29 H29        0.6770   -14.7246     8.3522 H          1 BB1          0.0000
    30 H30        2.3326   -15.1694    12.8516 H          1 BB1          0.0000
    31 H31        2.2281   -16.7784    12.0158 H          1 BB1          0.0000
    32 C2         0.1635   -14.0940     8.0858 C.2        2 BB2          0.0000
    33 O3        -0.0976   -15.1463     8.6532 O.2        2 BB2          0.0000
    34 C4         0.0253   -12.8209     8.8015 C.2        2 BB2          0.0000
    35 C5         0.5233   -11.7029     8.2744 C.2        2 BB2          0.0000
    36 C6        -0.6798   -12.7774    10.1325 C.3        2 BB2          0.0000
    37 N7        -1.7033   -11.7294    10.1090 N.pl3      2 BB2          0.0000
    38 C8        -1.7077   -10.5815    10.8546 C.2        2 BB2          0.0000
    39 C9        -2.8248    -9.9061    10.5235 C.2        2 BB2          0.0000
    40 N10       -3.4844   -10.6222     9.6009 N.2        2 BB2          0.0000
    41 C11       -2.8156   -11.7127     9.3434 C.2        2 BB2          0.0000
    42 H12        0.4216   -10.7656     8.8013 H          2 BB2          0.0000
    43 H13        1.0287   -11.7340     7.3205 H          2 BB2          0.0000
    44 H14       -1.1510   -13.7411    10.3257 H          2 BB2          0.0000
    45 H15        0.0428   -12.5619    10.9197 H          2 BB2          0.0000
    46 H16       -0.9595   -10.2764    11.5712 H          2 BB2          0.0000
    47 H17       -3.1350    -8.9547    10.9296 H          2 BB2          0.0000
    48 H18       -3.1072   -12.4786     8.6400 H          2 BB2          0.0000
@<TRIPOS>BOND
     1      1      2 1
     2      1     15 1
     3      1     16 1
     4      1     17 1
     5      2      3 1
     6      2      4 1
     7      2      5 1
     8      3     18 1
     9      3     19 1
    10      3     20 1
    11      4     21 1
    12      4     22 1
    13      4     23 1
    14      5      6 1
    15      6      7 2
    16      6      8 am
    17      8      9 1
    18      8     14 1
    19      9     10 1
    20      9     24 1
    21      9     25 1
    22     10     11 1
    23     10     13 1
    24     10     14 1
    25     11     12 1
    26     11     26 1
    27     11     27 1
    28     12     13 1
    29     12     28 1
    30     12     29 1
    31     14     30 1
    32     14     31 1
    33     32     33 2
    34     32     34 1
    35     34     35 2
    36     34     36 1
    37     35     42 1
    38     35     43 1
    39     36     37 1
    40     36     44 1
    41     36     45 1
    42     37     38 1
    43     37     41 1
    44     38     39 2
    45     38     46 1
    46     39     40 1
    47     39     47 1
    48     40     41 2
    49     41     48 1
    50     13     32 am
@<TRIPOS>SUBSTRUCTURE
     1 BB1          13
     2 BB2          32
@<TRIPOS>MOLECULE
EN300-256216_i001_EN300-307464_i001_15_20_1
  48   50   2   0   0
SMALL
USER_CHARGES
@<TRIPOS>ATOM
     1 C1        -0.4474   -19.8899    13.7996 C.3        1 BB1          0.0000
     2 C2         0.5079   -19.3554    14.8685 C.3        1 BB1          0.0000
     3 C3        -0.2431   -19.2014    16.1926 C.3        1 BB1          0.0000
     4 C4         1.6685   -20.3354    15.0514 C.3        1 BB1          0.0000
     5 O5         1.0257   -18.0640    14.4529 O.3        1 BB1          0.0000
     6 C6         0.1271   -17.1458    14.0504 C.2        1 BB1          0.0000
     7 O7        -0.9949   -17.1486    14.5169 O.2        1 BB1          0.0000
     8 N8         0.4719   -16.2236    13.1301 N.am       1 BB1          0.0000
     9 C9        -0.1995   -15.0974    12.4584 C.3        1 BB1          0.0000
    10 C10        0.7737   -15.2890    11.3035 C.3        1 BB1          0.0000
    11 C11        1.2218   -14.1291    10.4174 C.3        1 BB1          0.0000
    12 C12        0.2631   -14.7129     9.3604 C.3        1 BB1          0.0000
    13 N13        0.4036   -16.0026    10.0774 N.am       1 BB1          0.0000
    14 C14        1.6863   -15.8984    12.3625 C.3        1 BB1          0.0000
    15 H15       -1.2742   -19.1916    13.6693 H          1 BB1          0.0000
    16 H16        0.0876   -19.9995    12.8562 H          1 BB1          0.0000
    17 H17       -0.8361   -20.8592    14.1115 H          1 BB1          0.0000
    18 H18       -0.6318   -20.1707    16.5046 H          1 BB1          0.0000
    19 H19        0.4374   -18.8206    16.9542 H          1 BB1          0.0000
    20 H20       -1.0700   -18.5032    16.0623 H          1 BB1          0.0000
    21 H21        2.2035   -20.4451    14.1081 H          1 BB1          0.0000
    22 H22        2.3490   -19.9546    15.8129 H          1 BB1          0.0000
    23 H23        1.2797   -21.3047    15.3634 H          1 BB1          0.0000
    24 H24       -1.2362   -15.3048    12.1928 H          1 BB1          0.0000
    25 H25       -0.0779   -14.1464    12.9768 H          1 BB1          0.0000
    26 H26        0.9223   -13.1495    10.7899 H          1 BB1          0.0000
    27 H27        2.2726   -14.1744    10.1312 H          1 BB1          0.0000
    28 H28       -0.7428   -14.2952     9.4029 H          1 BB1          0.0000
    29 H29        0.6770   -14.7246     8.3522 H          1 BB1          0.0000
    30 H30        2.3326   -15.1694    12.8516 H          1 BB1          0.0000
    31 H31        2.2281   -16.7784    12.0158 H          1 BB1          0.0000
    32 C2        -0.0378   -14.1177     7.8454 C.2        2 BB2          0.0000
    33 O3        -0.0941   -15.1364     8.5211 O.2        2 BB2          0.0000
    34 C4         0.0826   -12.8098     8.4989 C.2        2 BB2          0.0000
    35 C5         0.5071   -11.7546     7.8046 C.2        2 BB2          0.0000
    36 C6        -0.2738   -12.6596     9.9554 C.3        2 BB2          0.0000
    37 N7        -1.1738   -11.5157    10.1224 N.pl3      2 BB2          0.0000
    38 C8        -2.4332   -11.3902     9.6009 C.2        2 BB2          0.0000
    39 C9        -2.9011   -10.1911     9.9970 C.2        2 BB2          0.0000
    40 N10       -1.9534    -9.6007    10.7401 N.2        2 BB2          0.0000
    41 C11       -0.9182   -10.3909    10.8244 C.2        2 BB2          0.0000
    42 H12        0.5957   -10.7918     8.2857 H          2 BB2          0.0000
    43 H13        0.7626   -11.8623     6.7607 H          2 BB2          0.0000
    44 H14       -0.7695   -13.5658    10.3034 H          2 BB2          0.0000
    45 H15        0.6337   -12.4957    10.5365 H          2 BB2          0.0000
    46 H16       -2.9516   -12.1134     8.9887 H          2 BB2          0.0000
    47 H17       -3.8698    -9.7775     9.7583 H          2 BB2          0.0000
    48 H18       -0.0054   -10.1772    11.3605 H          2 BB2          0.0000
@<TRIPOS>BOND
     1      1      2 1
     2      1     15 1
     3      1     16 1
     4      1     17 1
     5      2      3 1
     6      2      4 1
     7      2      5 1
     8      3     18 1
     9      3     19 1
    10      3     20 1
    11      4     21 1
    12      4     22 1
    13      4     23 1
    14      5      6 1
    15      6      7 2
    16      6      8 am
    17      8      9 1
    18      8     14 1
    19      9     10 1
    20      9     24 1
    21      9     25 1
    22     10     11 1
    23     10     13 1
    24     10     14 1
    25     11     12 1
    26     11     26 1
    27     11     27 1
    28     12     13 1
    29     12     28 1
    30     12     29 1
    31     14     30 1
    32     14     31 1
    33     32     33 2
    34     32     34 1
    35     34     35 2
    36     34     36 1
    37     35     42 1
    38     35     43 1
    39     36     37 1
    40     36     44 1
    41     36     45 1
    42     37     38 1
    43     37     41 1
    44     38     39 2
    45     38     46 1
    46     39     40 1
    47     39     47 1
    48     40     41 2
    49     41     48 1
    50     13     32 am
@<TRIPOS>SUBSTRUCTURE
     1 BB1          13
     2 BB2          32
@<TRIPOS>MOLECULE
EN300-256216_i001_EN300-307464_i001_15_4_1
  48   50   2   0   0
SMALL
USER_CHARGES
@<TRIPOS>ATOM
     1 C1        -0.4474   -19.8899    13.7996 C.3        1 BB1          0.0000
     2 C2         0.5079   -19.3554    14.8685 C.3        1 BB1          0.0000
     3 C3        -0.2431   -19.2014    16.1926 C.3        1 BB1          0.0000
     4 C4         1.6685   -20.3354    15.0514 C.3        1 BB1          0.0000
     5 O5         1.0257   -18.0640    14.4529 O.3        1 BB1          0.0000
     6 C6         0.1271   -17.1458    14.0504 C.2        1 BB1          0.0000
     7 O7        -0.9949   -17.1486    14.5169 O.2        1 BB1          0.0000
     8 N8         0.4719   -16.2236    13.1301 N.am       1 BB1          0.0000
     9 C9        -0.1995   -15.0974    12.4584 C.3        1 BB1          0.0000
    10 C10        0.7737   -15.2890    11.3035 C.3        1 BB1          0.0000
    11 C11        1.2218   -14.1291    10.4174 C.3        1 BB1          0.0000
    12 C12        0.2631   -14.7129     9.3604 C.3        1 BB1          0.0000
    13 N13        0.4036   -16.0026    10.0774 N.am       1 BB1          0.0000
    14 C14        1.6863   -15.8984    12.3625 C.3        1 BB1          0.0000
    15 H15       -1.2742   -19.1916    13.6693 H          1 BB1          0.0000
    16 H16        0.0876   -19.9995    12.8562 H          1 BB1          0.0000
    17 H17       -0.8361   -20.8592    14.1115 H          1 BB1          0.0000
    18 H18       -0.6318   -20.1707    16.5046 H          1 BB1          0.0000
    19 H19        0.4374   -18.8206    16.9542 H          1 BB1          0.0000
    20 H20       -1.0700   -18.5032    16.0623 H          1 BB1          0.0000
    21 H21        2.2035   -20.4451    14.1081 H          1 BB1          0.0000
    22 H22        2.3490   -19.9546    15.8129 H          1 BB1          0.0000
    23 H23        1.2797   -21.3047    15.3634 H          1 BB1          0.0000
    24 H24       -1.2362   -15.3048    12.1928 H          1 BB1          0.0000
    25 H25       -0.0779   -14.1464    12.9768 H          1 BB1          0.0000
    26 H26        0.9223   -13.1495    10.7899 H          1 BB1          0.0000
    27 H27        2.2726   -14.1744    10.1312 H          1 BB1          0.0000
    28 H28       -0.7428   -14.2952     9.4029 H          1 BB1          0.0000
    29 H29        0.6770   -14.7246     8.3522 H          1 BB1          0.0000
    30 H30        2.3326   -15.1694    12.8516 H          1 BB1          0.0000
    31 H31        2.2281   -16.7784    12.0158 H          1 BB1          0.0000
    32 C2         0.1537   -14.5388     7.9466 C.2        2 BB2          0.0000
    33 O3        -0.0151   -15.4470     8.7491 O.2        2 BB2          0.0000
    34 C4         0.3068   -13.1593     8.4217 C.2        2 BB2          0.0000
    35 C5         0.5055   -12.1722     7.5489 C.2        2 BB2          0.0000
    36 C6         0.2394   -12.8585     9.8968 C.3        2 BB2          0.0000
    37 N7        -0.7743   -11.8289    10.1394 N.pl3      2 BB2          0.0000
    38 C8        -0.7177   -10.5223     9.7356 C.2        2 BB2          0.0000
    39 C9        -1.8491    -9.9321    10.1663 C.2        2 BB2          0.0000
    40 N10       -2.5765   -10.8532    10.8153 N.2        2 BB2          0.0000
    41 C11       -1.9416   -11.9933    10.7981 C.2        2 BB2          0.0000
    42 H12        0.6183   -11.1567     7.8986 H          2 BB2          0.0000
    43 H13        0.5539   -12.3878     6.4917 H          2 BB2          0.0000
    44 H14       -0.0260   -13.7650    10.4407 H          2 BB2          0.0000
    45 H15        1.2102   -12.5003    10.2394 H          2 BB2          0.0000
    46 H16        0.0810   -10.0544     9.1791 H          2 BB2          0.0000
    47 H17       -2.1226    -8.8983    10.0154 H          2 BB2          0.0000
    48 H18       -2.2889   -12.9138    11.2435 H          2 BB2          0.0000
@<TRIPOS>BOND
     1      1      2 1
     2      1     15 1
     3      1     16 1
     4      1     17 1
     5      2      3 1
     6      2      4 1
     7      2      5 1
     8      3     18 1
     9      3     19 1
    10      3     20 1
    11      4     21 1
    12      4     22 1
    13      4     23 1
    14      5      6 1
    15      6      7 2
    16      6      8 am
    17      8      9 1
    18      8     14 1
    19      9     10 1
    20      9     24 1
    21      9     25 1
    22     10     11 1
    23     10     13 1
    24     10     14 1
    25     11     12 1
    26     11     26 1
    27     11     27 1
    28     12     13 1
    29     12     28 1
    30     12     29 1
    31     14     30 1
    32     14     31 1
    33     32     33 2
    34     32     34 1
    35     34     35 2
    36     34     36 1
    37     35     42 1
    38     35     43 1
    39     36     37 1
    40     36     44 1
    41     36     45 1
    42     37     38 1
    43     37     41 1
    44     38     39 2
    45     38     46 1
    46     39     40 1
    47     39     47 1
    48     40     41 2
    49     41     48 1
    50     13     32 am
@<TRIPOS>SUBSTRUCTURE
     1 BB1          13
     2 BB2          32
@<TRIPOS>MOLECULE
EN300-256216_i001_EN300-206926_i001_15_10_1
  46   47   2   0   0
SMALL
USER_CHARGES
@<TRIPOS>ATOM
     1 C1        -0.4474   -19.8899    13.7996 C.3        1 BB1          0.0000
     2 C2         0.5079   -19.3554    14.8685 C.3        1 BB1          0.0000
     3 C3        -0.2431   -19.2014    16.1926 C.3        1 BB1          0.0000
     4 C4         1.6685   -20.3354    15.0514 C.3        1 BB1          0.0000
     5 O5         1.0257   -18.0640    14.4529 O.3        1 BB1          0.0000
     6 C6         0.1271   -17.1458    14.0504 C.2        1 BB1          0.0000
     7 O7        -0.9949   -17.1486    14.5169 O.2        1 BB1          0.0000
     8 N8         0.4719   -16.2236    13.1301 N.am       1 BB1          0.0000
     9 C9        -0.1995   -15.0974    12.4584 C.3        1 BB1          0.0000
    10 C10        0.7737   -15.2890    11.3035 C.3        1 BB1          0.0000
    11 C11        1.2218   -14.1291    10.4174 C.3        1 BB1          0.0000
    12 C12        0.2631   -14.7129     9.3604 C.3        1 BB1          0.0000
    13 N13        0.4036   -16.0026    10.0774 N.am       1 BB1          0.0000
    14 C14        1.6863   -15.8984    12.3625 C.3        1 BB1          0.0000
    15 H15       -1.2742   -19.1916    13.6693 H          1 BB1          0.0000
    16 H16        0.0876   -19.9995    12.8562 H          1 BB1          0.0000
    17 H17       -0.8361   -20.8592    14.1115 H          1 BB1          0.0000
    18 H18       -0.6318   -20.1707    16.5046 H          1 BB1          0.0000
    19 H19        0.4374   -18.8206    16.9542 H          1 BB1          0.0000
    20 H20       -1.0700   -18.5032    16.0623 H          1 BB1          0.0000
    21 H21        2.2035   -20.4451    14.1081 H          1 BB1          0.0000
    22 H22        2.3490   -19.9546    15.8129 H          1 BB1          0.0000
    23 H23        1.2797   -21.3047    15.3634 H          1 BB1          0.0000
    24 H24       -1.2362   -15.3048    12.1928 H          1 BB1          0.0000
    25 H25       -0.0779   -14.1464    12.9768 H          1 BB1          0.0000
    26 H26        0.9223   -13.1495    10.7899 H          1 BB1          0.0000
    27 H27        2.2726   -14.1744    10.1312 H          1 BB1          0.0000
    28 H28       -0.7428   -14.2952     9.4029 H          1 BB1          0.0000
    29 H29        0.6770   -14.7246     8.3522 H          1 BB1          0.0000
    30 H30        2.3326   -15.1694    12.8516 H          1 BB1          0.0000
    31 H31        2.2281   -16.7784    12.0158 H          1 BB1          0.0000
    32 C1        -3.8725   -10.9951     9.9128 C.3        2 BB2          0.0000
    33 C2        -2.3918   -10.7328    10.0115 C.2        2 BB2          0.0000
    34 O3        -1.9847    -9.5986    10.1525 O.2        2 BB2          0.0000
    35 S4        -1.2841   -12.0353     9.9250 S.3        2 BB2          0.0000
    36 C5        -0.4033   -11.5985     8.4053 C.3        2 BB2          0.0000
    37 C6         0.7726   -12.5564     8.2042 C.3        2 BB2          0.0000
    38 C7         0.2498   -13.9450     7.9401 C.2        2 BB2          0.0000
    39 O8         0.4180   -14.8269     8.7650 O.2        2 BB2          0.0000
    40 H10       -4.1807   -10.9491     8.8683 H          2 BB2          0.0000
    41 H11       -4.0939   -11.9843    10.3137 H          2 BB2          0.0000
    42 H12       -4.4139   -10.2417    10.4849 H          2 BB2          0.0000
    43 H13       -1.0832   -11.6746     7.5567 H          2 BB2          0.0000
    44 H14       -0.0309   -10.5771     8.4821 H          2 BB2          0.0000
    45 H15        1.3698   -12.2254     7.3546 H          2 BB2          0.0000
    46 H16        1.3912   -12.5657     9.1016 H          2 BB2          0.0000
@<TRIPOS>BOND
     1      1      2 1
     2      1     15 1
     3      1     16 1
     4      1     17 1
     5      2      3 1
     6      2      4 1
     7      2      5 1
     8      3     18 1
     9      3     19 1
    10      3     20 1
    11      4     21 1
    12      4     22 1
    13      4     23 1
    14      5      6 1
    15      6      7 2
    16      6      8 am
    17      8      9 1
    18      8     14 1
    19      9     10 1
    20      9     24 1
    21      9     25 1
    22     10     11 1
    23     10     13 1
    24     10     14 1
    25     11     12 1
    26     11     26 1
    27     11     27 1
    28     12     13 1
    29     12     28 1
    30     12     29 1
    31     14     30 1
    32     14     31 1
    33     32     33 1
    34     32     40 1
    35     32     41 1
    36     32     42 1
    37     33     34 2
    38     33     35 1
    39     35     36 1
    40     36     37 1
    41     36     43 1
    42     36     44 1
    43     37     38 1
    44     37     45 1
    45     37     46 1
    46     38     39 2
    47     13     38 am
@<TRIPOS>SUBSTRUCTURE
     1 BB1          13
     2 BB2          38
@<TRIPOS>MOLECULE
EN300-256216_i001_EN300-1231025_i001_16_10_1
  46   47   2   0   0
SMALL
USER_CHARGES
@<TRIPOS>ATOM
     1 C1         0.3665   -17.4482    14.9745 C.3        1 BB1          0.0000
     2 C2         1.1489   -17.8546    13.7240 C.3        1 BB1          0.0000
     3 C3         2.5334   -17.2040    13.7549 C.3        1 BB1          0.0000
     4 C4         1.3012   -19.3765    13.6898 C.3        1 BB1          0.0000
     5 O5         0.4330   -17.4130    12.5404 O.3        1 BB1          0.0000
     6 C6         0.3824   -16.0865    12.3159 C.2        1 BB1          0.0000
     7 O7         0.6014   -15.3080    13.2228 O.2        1 BB1          0.0000
     8 N8         0.0888   -15.6219    11.0853 N.am       1 BB1          0.0000
     9 C9        -0.2263   -16.2202     9.7764 C.3        1 BB1          0.0000
    10 C10        0.3084   -14.9463     9.1369 C.3        1 BB1          0.0000
    11 C11       -0.2180   -14.4241     7.8021 C.3        1 BB1          0.0000
    12 C12        1.0952   -14.9637     7.2007 C.3        1 BB1          0.0000
    13 N13        1.6572   -14.8616     8.5685 N.am       1 BB1          0.0000
    14 C14       -0.0636   -14.2948    10.4646 C.3        1 BB1          0.0000
    15 H15        0.2580   -16.3639    14.9988 H          1 BB1          0.0000
    16 H16       -0.6199   -17.9116    14.9524 H          1 BB1          0.0000
    17 H17        0.9038   -17.7796    15.8629 H          1 BB1          0.0000
    18 H18        3.0707   -17.5354    14.6434 H          1 BB1          0.0000
    19 H19        3.0908   -17.4934    12.8641 H          1 BB1          0.0000
    20 H20        2.4248   -16.1196    13.7793 H          1 BB1          0.0000
    21 H21        0.3149   -19.8400    13.6678 H          1 BB1          0.0000
    22 H22        1.8586   -19.6660    12.7990 H          1 BB1          0.0000
    23 H23        1.8385   -19.7079    14.5783 H          1 BB1          0.0000
    24 H24        0.3685   -17.1045     9.5478 H          1 BB1          0.0000
    25 H25       -1.2930   -16.3742     9.6138 H          1 BB1          0.0000
    26 H26       -1.1095   -14.9416     7.4479 H          1 BB1          0.0000
    27 H27       -0.3085   -13.3388     7.7589 H          1 BB1          0.0000
    28 H28        1.0208   -15.9870     6.8327 H          1 BB1          0.0000
    29 H29        1.5599   -14.2864     6.4843 H          1 BB1          0.0000
    30 H30       -1.0842   -13.9126    10.4908 H          1 BB1          0.0000
    31 H31        0.6695   -13.5671    10.8128 H          1 BB1          0.0000
    32 O1        -0.0108   -13.0788    10.2028 O.3        2 BB2          0.0000
    33 C2        -0.1427   -12.1356     9.1376 C.3        2 BB2          0.0000
    34 C3        -1.6029   -11.6929     9.0262 C.3        2 BB2          0.0000
    35 C4        -2.0558   -11.0892    10.3571 C.3        2 BB2          0.0000
    36 C5        -3.4878   -10.7565    10.2829 C.1        2 BB2          0.0000
    37 C6        -4.6299   -10.4911    10.2236 C.1        2 BB2          0.0000
    38 C7         0.2883   -12.7760     7.8433 C.2        2 BB2          0.0000
    39 O8        -0.2674   -13.7870     7.4487 O.2        2 BB2          0.0000
    40 H10        0.4855   -11.2681     9.3406 H          2 BB2          0.0000
    41 H11       -1.6970   -10.9462     8.2377 H          2 BB2          0.0000
    42 H12       -2.2265   -12.5543     8.7870 H          2 BB2          0.0000
    43 H13       -1.8914   -11.8102    11.1577 H          2 BB2          0.0000
    44 H14       -1.4826   -10.1844    10.5595 H          2 BB2          0.0000
    45 H15       -5.6514   -10.2538    10.1706 H          2 BB2          0.0000
    46 H16        0.6940   -13.7272    10.0691 H          2 BB2          0.0000
@<TRIPOS>BOND
     1      1      2 1
     2      1     15 1
     3      1     16 1
     4      1     17 1
     5      2      3 1
     6      2      4 1
     7      2      5 1
     8      3     18 1
     9      3     19 1
    10      3     20 1
    11      4     21 1
    12      4     22 1
    13      4     23 1
    14      5      6 1
    15      6      7 2
    16      6      8 am
    17      8      9 1
    18      8     14 1
    19      9     10 1
    20      9     24 1
    21      9     25 1
    22     10     11 1
    23     10     13 1
    24     10     14 1
    25     11     12 1
    26     11     26 1
    27     11     27 1
    28     12     13 1
    29     12     28 1
    30     12     29 1
    31     14     30 1
    32     14     31 1
    33     32     33 1
    34     32     46 1
    35     33     34 1
    36     33     38 1
    37     33     40 1
    38     34     35 1
    39     34     41 1
    40     34     42 1
    41     35     36 1
    42     35     43 1
    43     35     44 1
    44     36     37 3
    45     37     45 1
    46     38     39 2
    47     13     38 am
@<TRIPOS>SUBSTRUCTURE
     1 BB1          13
     2 BB2          38
@<TRIPOS>MOLECULE
EN300-256216_i001_EN300-1231025_i001_16_14_1
  46   47   2   0   0
SMALL
USER_CHARGES
@<TRIPOS>ATOM
     1 C1         0.3665   -17.4482    14.9745 C.3        1 BB1          0.0000
     2 C2         1.1489   -17.8546    13.7240 C.3        1 BB1          0.0000
     3 C3         2.5334   -17.2040    13.7549 C.3        1 BB1          0.0000
     4 C4         1.3012   -19.3765    13.6898 C.3        1 BB1          0.0000
     5 O5         0.4330   -17.4130    12.5404 O.3        1 BB1          0.0000
     6 C6         0.3824   -16.0865    12.3159 C.2        1 BB1          0.0000
     7 O7         0.6014   -15.3080    13.2228 O.2        1 BB1          0.0000
     8 N8         0.0888   -15.6219    11.0853 N.am       1 BB1          0.0000
     9 C9        -0.2263   -16.2202     9.7764 C.3        1 BB1          0.0000
    10 C10        0.3084   -14.9463     9.1369 C.3        1 BB1          0.0000
    11 C11       -0.2180   -14.4241     7.8021 C.3        1 BB1          0.0000
    12 C12        1.0952   -14.9637     7.2007 C.3        1 BB1          0.0000
    13 N13        1.6572   -14.8616     8.5685 N.am       1 BB1          0.0000
    14 C14       -0.0636   -14.2948    10.4646 C.3        1 BB1          0.0000
    15 H15        0.2580   -16.3639    14.9988 H          1 BB1          0.0000
    16 H16       -0.6199   -17.9116    14.9524 H          1 BB1          0.0000
    17 H17        0.9038   -17.7796    15.8629 H          1 BB1          0.0000
    18 H18        3.0707   -17.5354    14.6434 H          1 BB1          0.0000
    19 H19        3.0908   -17.4934    12.8641 H          1 BB1          0.0000
    20 H20        2.4248   -16.1196    13.7793 H          1 BB1          0.0000
    21 H21        0.3149   -19.8400    13.6678 H          1 BB1          0.0000
    22 H22        1.8586   -19.6660    12.7990 H          1 BB1          0.0000
    23 H23        1.8385   -19.7079    14.5783 H          1 BB1          0.0000
    24 H24        0.3685   -17.1045     9.5478 H          1 BB1          0.0000
    25 H25       -1.2930   -16.3742     9.6138 H          1 BB1          0.0000
    26 H26       -1.1095   -14.9416     7.4479 H          1 BB1          0.0000
    27 H27       -0.3085   -13.3388     7.7589 H          1 BB1          0.0000
    28 H28        1.0208   -15.9870     6.8327 H          1 BB1          0.0000
    29 H29        1.5599   -14.2864     6.4843 H          1 BB1          0.0000
    30 H30       -1.0842   -13.9126    10.4908 H          1 BB1          0.0000
    31 H31        0.6695   -13.5671    10.8128 H          1 BB1          0.0000
    32 O1         0.9036   -10.8023     9.1865 O.3        2 BB2          0.0000
    33 C2        -0.1020   -11.5979     8.5560 C.3        2 BB2          0.0000
    34 C3        -0.7021   -12.5653     9.5781 C.3        2 BB2          0.0000
    35 C4        -1.3462   -11.7704    10.7157 C.3        2 BB2          0.0000
    36 C5        -2.4822   -10.9954    10.1908 C.1        2 BB2          0.0000
    37 C6        -3.3882   -10.3771     9.7722 C.1        2 BB2          0.0000
    38 C7         0.5130   -12.3805     7.4244 C.2        2 BB2          0.0000
    39 O8         0.4222   -13.5962     7.4040 O.2        2 BB2          0.0000
    40 H10       -0.8863   -10.9496     8.1652 H          2 BB2          0.0000
    41 H11       -1.4579   -13.1833     9.0933 H          2 BB2          0.0000
    42 H12        0.0850   -13.2030     9.9806 H          2 BB2          0.0000
    43 H13       -1.6996   -12.4576    11.4844 H          2 BB2          0.0000
    44 H14       -0.6106   -11.0909    11.1461 H          2 BB2          0.0000
    45 H15       -4.1986    -9.8242     9.3977 H          2 BB2          0.0000
    46 H16        0.9750    -9.9053     8.8323 H          2 BB2          0.0000
@<TRIPOS>BOND
     1      1      2 1
     2      1     15 1
     3      1     16 1
     4      1     17 1
     5      2      3 1
     6      2      4 1
     7      2      5 1
     8      3     18 1
     9      3     19 1
    10      3     20 1
    11      4     21 1
    12      4     22 1
    13      4     23 1
    14      5      6 1
    15      6      7 2
    16      6      8 am
    17      8      9 1
    18      8     14 1
    19      9     10 1
    20      9     24 1
    21      9     25 1
    22     10     11 1
    23     10     13 1
    24     10     14 1
    25     11     12 1
    26     11     26 1
    27     11     27 1
    28     12     13 1
    29     12     28 1
    30     12     29 1
    31     14     30 1
    32     14     31 1
    33     32     33 1
    34     32     46 1
    35     33     34 1
    36     33     38 1
    37     33     40 1
    38     34     35 1
    39     34     41 1
    40     34     42 1
    41     35     36 1
    42     35     43 1
    43     35     44 1
    44     36     37 3
    45     37     45 1
    46     38     39 2
    47     13     38 am
@<TRIPOS>SUBSTRUCTURE
     1 BB1          13
     2 BB2          38
@<TRIPOS>MOLECULE
EN300-256216_i001_EN300-1231025_i001_16_7_1
  46   47   2   0   0
SMALL
USER_CHARGES
@<TRIPOS>ATOM
     1 C1         0.3665   -17.4482    14.9745 C.3        1 BB1          0.0000
     2 C2         1.1489   -17.8546    13.7240 C.3        1 BB1          0.0000
     3 C3         2.5334   -17.2040    13.7549 C.3        1 BB1          0.0000
     4 C4         1.3012   -19.3765    13.6898 C.3        1 BB1          0.0000
     5 O5         0.4330   -17.4130    12.5404 O.3        1 BB1          0.0000
     6 C6         0.3824   -16.0865    12.3159 C.2        1 BB1          0.0000
     7 O7         0.6014   -15.3080    13.2228 O.2        1 BB1          0.0000
     8 N8         0.0888   -15.6219    11.0853 N.am       1 BB1          0.0000
     9 C9        -0.2263   -16.2202     9.7764 C.3        1 BB1          0.0000
    10 C10        0.3084   -14.9463     9.1369 C.3        1 BB1          0.0000
    11 C11       -0.2180   -14.4241     7.8021 C.3        1 BB1          0.0000
    12 C12        1.0952   -14.9637     7.2007 C.3        1 BB1          0.0000
    13 N13        1.6572   -14.8616     8.5685 N.am       1 BB1          0.0000
    14 C14       -0.0636   -14.2948    10.4646 C.3        1 BB1          0.0000
    15 H15        0.2580   -16.3639    14.9988 H          1 BB1          0.0000
    16 H16       -0.6199   -17.9116    14.9524 H          1 BB1          0.0000
    17 H17        0.9038   -17.7796    15.8629 H          1 BB1          0.0000
    18 H18        3.0707   -17.5354    14.6434 H          1 BB1          0.0000
    19 H19        3.0908   -17.4934    12.8641 H          1 BB1          0.0000
    20 H20        2.4248   -16.1196    13.7793 H          1 BB1          0.0000
    21 H21        0.3149   -19.8400    13.6678 H          1 BB1          0.0000
    22 H22        1.8586   -19.6660    12.7990 H          1 BB1          0.0000
    23 H23        1.8385   -19.7079    14.5783 H          1 BB1          0.0000
    24 H24        0.3685   -17.1045     9.5478 H          1 BB1          0.0000
    25 H25       -1.2930   -16.3742     9.6138 H          1 BB1          0.0000
    26 H26       -1.1095   -14.9416     7.4479 H          1 BB1          0.0000
    27 H27       -0.3085   -13.3388     7.7589 H          1 BB1          0.0000
    28 H28        1.0208   -15.9870     6.8327 H          1 BB1          0.0000
    29 H29        1.5599   -14.2864     6.4843 H          1 BB1          0.0000
    30 H30       -1.0842   -13.9126    10.4908 H          1 BB1          0.0000
    31 H31        0.6695   -13.5671    10.8128 H          1 BB1          0.0000
    32 O1         0.9936   -10.8074     9.6862 O.3        2 BB2          0.0000
    33 C2        -0.0092   -11.6993     9.1956 C.3        2 BB2          0.0000
    34 C3        -0.8010   -12.2733    10.3721 C.3        2 BB2          0.0000
    35 C4        -1.4824   -11.1339    11.1326 C.3        2 BB2          0.0000
    36 C5        -2.7640   -10.8095    10.4854 C.1        2 BB2          0.0000
    37 C6        -3.7863   -10.5508     9.9692 C.1        2 BB2          0.0000
    38 C7         0.6465   -12.8232     8.4353 C.2        2 BB2          0.0000
    39 O8         1.2731   -13.6805     9.0346 O.2        2 BB2          0.0000
    40 H10       -0.6843   -11.1578     8.5329 H          2 BB2          0.0000
    41 H11       -1.5570   -12.9641     9.9988 H          2 BB2          0.0000
    42 H12       -0.1237   -12.8032    11.0419 H          2 BB2          0.0000
    43 H13       -1.6631   -11.4415    12.1625 H          2 BB2          0.0000
    44 H14       -0.8381   -10.2547    11.1237 H          2 BB2          0.0000
    45 H15       -4.7005   -10.3194     9.5075 H          2 BB2          0.0000
    46 H16        1.1930   -10.0731     9.0894 H          2 BB2          0.0000
@<TRIPOS>BOND
     1      1      2 1
     2      1     15 1
     3      1     16 1
     4      1     17 1
     5      2      3 1
     6      2      4 1
     7      2      5 1
     8      3     18 1
     9      3     19 1
    10      3     20 1
    11      4     21 1
    12      4     22 1
    13      4     23 1
    14      5      6 1
    15      6      7 2
    16      6      8 am
    17      8      9 1
    18      8     14 1
    19      9     10 1
    20      9     24 1
    21      9     25 1
    22     10     11 1
    23     10     13 1
    24     10     14 1
    25     11     12 1
    26     11     26 1
    27     11     27 1
    28     12     13 1
    29     12     28 1
    30     12     29 1
    31     14     30 1
    32     14     31 1
    33     32     33 1
    34     32     46 1
    35     33     34 1
    36     33     38 1
    37     33     40 1
    38     34     35 1
    39     34     41 1
    40     34     42 1
    41     35     36 1
    42     35     43 1
    43     35     44 1
    44     36     37 3
    45     37     45 1
    46     38     39 2
    47     13     38 am
@<TRIPOS>SUBSTRUCTURE
     1 BB1          13
     2 BB2          38
@<TRIPOS>MOLECULE
EN300-256216_i001_EN300-1231025_i001_16_8_1
  46   47   2   0   0
SMALL
USER_CHARGES
@<TRIPOS>ATOM
     1 C1         0.3665   -17.4482    14.9745 C.3        1 BB1          0.0000
     2 C2         1.1489   -17.8546    13.7240 C.3        1 BB1          0.0000
     3 C3         2.5334   -17.2040    13.7549 C.3        1 BB1          0.0000
     4 C4         1.3012   -19.3765    13.6898 C.3        1 BB1          0.0000
     5 O5         0.4330   -17.4130    12.5404 O.3        1 BB1          0.0000
     6 C6         0.3824   -16.0865    12.3159 C.2        1 BB1          0.0000
     7 O7         0.6014   -15.3080    13.2228 O.2        1 BB1          0.0000
     8 N8         0.0888   -15.6219    11.0853 N.am       1 BB1          0.0000
     9 C9        -0.2263   -16.2202     9.7764 C.3        1 BB1          0.0000
    10 C10        0.3084   -14.9463     9.1369 C.3        1 BB1          0.0000
    11 C11       -0.2180   -14.4241     7.8021 C.3        1 BB1          0.0000
    12 C12        1.0952   -14.9637     7.2007 C.3        1 BB1          0.0000
    13 N13        1.6572   -14.8616     8.5685 N.am       1 BB1          0.0000
    14 C14       -0.0636   -14.2948    10.4646 C.3        1 BB1          0.0000
    15 H15        0.2580   -16.3639    14.9988 H          1 BB1          0.0000
    16 H16       -0.6199   -17.9116    14.9524 H          1 BB1          0.0000
    17 H17        0.9038   -17.7796    15.8629 H          1 BB1          0.0000
    18 H18        3.0707   -17.5354    14.6434 H          1 BB1          0.0000
    19 H19        3.0908   -17.4934    12.8641 H          1 BB1          0.0000
    20 H20        2.4248   -16.1196    13.7793 H          1 BB1          0.0000
    21 H21        0.3149   -19.8400    13.6678 H          1 BB1          0.0000
    22 H22        1.8586   -19.6660    12.7990 H          1 BB1          0.0000
    23 H23        1.8385   -19.7079    14.5783 H          1 BB1          0.0000
    24 H24        0.3685   -17.1045     9.5478 H          1 BB1          0.0000
    25 H25       -1.2930   -16.3742     9.6138 H          1 BB1          0.0000
    26 H26       -1.1095   -14.9416     7.4479 H          1 BB1          0.0000
    27 H27       -0.3085   -13.3388     7.7589 H          1 BB1          0.0000
    28 H28        1.0208   -15.9870     6.8327 H          1 BB1          0.0000
    29 H29        1.5599   -14.2864     6.4843 H          1 BB1          0.0000
    30 H30       -1.0842   -13.9126    10.4908 H          1 BB1          0.0000
    31 H31        0.6695   -13.5671    10.8128 H          1 BB1          0.0000
    32 O1         1.0592   -11.3854     8.4899 O.3        2 BB2          0.0000
    33 C2        -0.0593   -12.0366     7.8843 C.3        2 BB2          0.0000
    34 C3        -1.2395   -12.0340     8.8579 C.3        2 BB2          0.0000
    35 C4        -1.4915   -10.6075     9.3502 C.3        2 BB2          0.0000
    36 C5        -2.8536   -10.5116     9.8999 C.1        2 BB2          0.0000
    37 C6        -3.9400   -10.4350    10.3383 C.1        2 BB2          0.0000
    38 C7         0.3097   -13.4580     7.5459 C.2        2 BB2          0.0000
    39 O9         1.4698   -13.8234     7.6305 O.2        2 BB2          0.0000
    40 H10       -0.3386   -11.5071     6.9734 H          2 BB2          0.0000
    41 H11       -2.1298   -12.4059     8.3506 H          2 BB2          0.0000
    42 H12       -1.0106   -12.6767     9.7080 H          2 BB2          0.0000
    43 H13       -0.7681   -10.3579    10.1263 H          2 BB2          0.0000
    44 H14       -1.3858    -9.9118     8.5177 H          2 BB2          0.0000
    45 H15       -4.9116   -10.3666    10.7304 H          2 BB2          0.0000
    46 H16        1.1362   -10.4475     8.2674 H          2 BB2          0.0000
@<TRIPOS>BOND
     1      1      2 1
     2      1     15 1
     3      1     16 1
     4      1     17 1
     5      2      3 1
     6      2      4 1
     7      2      5 1
     8      3     18 1
     9      3     19 1
    10      3     20 1
    11      4     21 1
    12      4     22 1
    13      4     23 1
    14      5      6 1
    15      6      7 2
    16      6      8 am
    17      8      9 1
    18      8     14 1
    19      9     10 1
    20      9     24 1
    21      9     25 1
    22     10     11 1
    23     10     13 1
    24     10     14 1
    25     11     12 1
    26     11     26 1
    27     11     27 1
    28     12     13 1
    29     12     28 1
    30     12     29 1
    31     14     30 1
    32     14     31 1
    33     32     33 1
    34     32     46 1
    35     33     34 1
    36     33     38 1
    37     33     40 1
    38     34     35 1
    39     34     41 1
    40     34     42 1
    41     35     36 1
    42     35     43 1
    43     35     44 1
    44     36     37 3
    45     37     45 1
    46     38     39 2
    47     13     38 am
@<TRIPOS>SUBSTRUCTURE
     1 BB1          13
     2 BB2          38
@<TRIPOS>MOLECULE
EN300-256216_i001_EN300-206926_i001_16_10_1
  46   47   2   0   0
SMALL
USER_CHARGES
@<TRIPOS>ATOM
     1 C1         0.3665   -17.4482    14.9745 C.3        1 BB1          0.0000
     2 C2         1.1489   -17.8546    13.7240 C.3        1 BB1          0.0000
     3 C3         2.5334   -17.2040    13.7549 C.3        1 BB1          0.0000
     4 C4         1.3012   -19.3765    13.6898 C.3        1 BB1          0.0000
     5 O5         0.4330   -17.4130    12.5404 O.3        1 BB1          0.0000
     6 C6         0.3824   -16.0865    12.3159 C.2        1 BB1          0.0000
     7 O7         0.6014   -15.3080    13.2228 O.2        1 BB1          0.0000
     8 N8         0.0888   -15.6219    11.0853 N.am       1 BB1          0.0000
     9 C9        -0.2263   -16.2202     9.7764 C.3        1 BB1          0.0000
    10 C10        0.3084   -14.9463     9.1369 C.3        1 BB1          0.0000
    11 C11       -0.2180   -14.4241     7.8021 C.3        1 BB1          0.0000
    12 C12        1.0952   -14.9637     7.2007 C.3        1 BB1          0.0000
    13 N13        1.6572   -14.8616     8.5685 N.am       1 BB1          0.0000
    14 C14       -0.0636   -14.2948    10.4646 C.3        1 BB1          0.0000
    15 H15        0.2580   -16.3639    14.9988 H          1 BB1          0.0000
    16 H16       -0.6199   -17.9116    14.9524 H          1 BB1          0.0000
    17 H17        0.9038   -17.7796    15.8629 H          1 BB1          0.0000
    18 H18        3.0707   -17.5354    14.6434 H          1 BB1          0.0000
    19 H19        3.0908   -17.4934    12.8641 H          1 BB1          0.0000
    20 H20        2.4248   -16.1196    13.7793 H          1 BB1          0.0000
    21 H21        0.3149   -19.8400    13.6678 H          1 BB1          0.0000
    22 H22        1.8586   -19.6660    12.7990 H          1 BB1          0.0000
    23 H23        1.8385   -19.7079    14.5783 H          1 BB1          0.0000
    24 H24        0.3685   -17.1045     9.5478 H          1 BB1          0.0000
    25 H25       -1.2930   -16.3742     9.6138 H          1 BB1          0.0000
    26 H26       -1.1095   -14.9416     7.4479 H          1 BB1          0.0000
    27 H27       -0.3085   -13.3388     7.7589 H          1 BB1          0.0000
    28 H28        1.0208   -15.9870     6.8327 H          1 BB1          0.0000
    29 H29        1.5599   -14.2864     6.4843 H          1 BB1          0.0000
    30 H30       -1.0842   -13.9126    10.4908 H          1 BB1          0.0000
    31 H31        0.6695   -13.5671    10.8128 H          1 BB1          0.0000
    32 C1        -3.8725   -10.9951     9.9128 C.3        2 BB2          0.0000
    33 C2        -2.3918   -10.7328    10.0115 C.2        2 BB2          0.0000
    34 O3        -1.9847    -9.5986    10.1525 O.2        2 BB2          0.0000
    35 S4        -1.2841   -12.0353     9.9250 S.3        2 BB2          0.0000
    36 C5        -0.4033   -11.5985     8.4053 C.3        2 BB2          0.0000
    37 C6         0.7726   -12.5564     8.2042 C.3        2 BB2          0.0000
    38 C7         0.2498   -13.9450     7.9401 C.2        2 BB2          0.0000
    39 O8         0.4180   -14.8269     8.7650 O.2        2 BB2          0.0000
    40 H10       -4.1807   -10.9491     8.8683 H          2 BB2          0.0000
    41 H11       -4.0939   -11.9843    10.3137 H          2 BB2          0.0000
    42 H12       -4.4139   -10.2417    10.4849 H          2 BB2          0.0000
    43 H13       -1.0832   -11.6746     7.5567 H          2 BB2          0.0000
    44 H14       -0.0309   -10.5771     8.4821 H          2 BB2          0.0000
    45 H15        1.3698   -12.2254     7.3546 H          2 BB2          0.0000
    46 H16        1.3912   -12.5657     9.1016 H          2 BB2          0.0000
@<TRIPOS>BOND
     1      1      2 1
     2      1     15 1
     3      1     16 1
     4      1     17 1
     5      2      3 1
     6      2      4 1
     7      2      5 1
     8      3     18 1
     9      3     19 1
    10      3     20 1
    11      4     21 1
    12      4     22 1
    13      4     23 1
    14      5      6 1
    15      6      7 2
    16      6      8 am
    17      8      9 1
    18      8     14 1
    19      9     10 1
    20      9     24 1
    21      9     25 1
    22     10     11 1
    23     10     13 1
    24     10     14 1
    25     11     12 1
    26     11     26 1
    27     11     27 1
    28     12     13 1
    29     12     28 1
    30     12     29 1
    31     14     30 1
    32     14     31 1
    33     32     33 1
    34     32     40 1
    35     32     41 1
    36     32     42 1
    37     33     34 2
    38     33     35 1
    39     35     36 1
    40     36     37 1
    41     36     43 1
    42     36     44 1
    43     37     38 1
    44     37     45 1
    45     37     46 1
    46     38     39 2
    47     13     38 am
@<TRIPOS>SUBSTRUCTURE
     1 BB1          13
     2 BB2          38
@<TRIPOS>MOLECULE
EN300-256216_i001_EN300-206926_i001_16_4_1
  46   47   2   0   0
SMALL
USER_CHARGES
@<TRIPOS>ATOM
     1 C1         0.3665   -17.4482    14.9745 C.3        1 BB1          0.0000
     2 C2         1.1489   -17.8546    13.7240 C.3        1 BB1          0.0000
     3 C3         2.5334   -17.2040    13.7549 C.3        1 BB1          0.0000
     4 C4         1.3012   -19.3765    13.6898 C.3        1 BB1          0.0000
     5 O5         0.4330   -17.4130    12.5404 O.3        1 BB1          0.0000
     6 C6         0.3824   -16.0865    12.3159 C.2        1 BB1          0.0000
     7 O7         0.6014   -15.3080    13.2228 O.2        1 BB1          0.0000
     8 N8         0.0888   -15.6219    11.0853 N.am       1 BB1          0.0000
     9 C9        -0.2263   -16.2202     9.7764 C.3        1 BB1          0.0000
    10 C10        0.3084   -14.9463     9.1369 C.3        1 BB1          0.0000
    11 C11       -0.2180   -14.4241     7.8021 C.3        1 BB1          0.0000
    12 C12        1.0952   -14.9637     7.2007 C.3        1 BB1          0.0000
    13 N13        1.6572   -14.8616     8.5685 N.am       1 BB1          0.0000
    14 C14       -0.0636   -14.2948    10.4646 C.3        1 BB1          0.0000
    15 H15        0.2580   -16.3639    14.9988 H          1 BB1          0.0000
    16 H16       -0.6199   -17.9116    14.9524 H          1 BB1          0.0000
    17 H17        0.9038   -17.7796    15.8629 H          1 BB1          0.0000
    18 H18        3.0707   -17.5354    14.6434 H          1 BB1          0.0000
    19 H19        3.0908   -17.4934    12.8641 H          1 BB1          0.0000
    20 H20        2.4248   -16.1196    13.7793 H          1 BB1          0.0000
    21 H21        0.3149   -19.8400    13.6678 H          1 BB1          0.0000
    22 H22        1.8586   -19.6660    12.7990 H          1 BB1          0.0000
    23 H23        1.8385   -19.7079    14.5783 H          1 BB1          0.0000
    24 H24        0.3685   -17.1045     9.5478 H          1 BB1          0.0000
    25 H25       -1.2930   -16.3742     9.6138 H          1 BB1          0.0000
    26 H26       -1.1095   -14.9416     7.4479 H          1 BB1          0.0000
    27 H27       -0.3085   -13.3388     7.7589 H          1 BB1          0.0000
    28 H28        1.0208   -15.9870     6.8327 H          1 BB1          0.0000
    29 H29        1.5599   -14.2864     6.4843 H          1 BB1          0.0000
    30 H30       -1.0842   -13.9126    10.4908 H          1 BB1          0.0000
    31 H31        0.6695   -13.5671    10.8128 H          1 BB1          0.0000
    32 C1        -3.6142   -10.8109     9.8915 C.3        2 BB2          0.0000
    33 C2        -2.1980   -10.8880    10.4009 C.2        2 BB2          0.0000
    34 O3        -1.4671    -9.9239    10.3096 O.2        2 BB2          0.0000
    35 S4        -1.6206   -12.3359    11.1088 S.3        2 BB2          0.0000
    36 C5        -0.1628   -12.6306    10.0772 C.3        2 BB2          0.0000
    37 C6        -0.5903   -12.7520     8.6131 C.3        2 BB2          0.0000
    38 C7         0.5065   -12.2245     7.7243 C.2        2 BB2          0.0000
    39 O9         1.0180   -12.9520     6.8902 O.2        2 BB2          0.0000
    40 H10       -3.6414   -11.1181     8.8460 H          2 BB2          0.0000
    41 H11       -4.2490   -11.4724    10.4811 H          2 BB2          0.0000
    42 H12       -3.9765    -9.7866     9.9787 H          2 BB2          0.0000
    43 H13        0.5327   -11.7983    10.1849 H          2 BB2          0.0000
    44 H14        0.3239   -13.5539    10.3913 H          2 BB2          0.0000
    45 H15       -0.7789   -13.7987     8.3752 H          2 BB2          0.0000
    46 H16       -1.4994   -12.1729     8.4509 H          2 BB2          0.0000
@<TRIPOS>BOND
     1      1      2 1
     2      1     15 1
     3      1     16 1
     4      1     17 1
     5      2      3 1
     6      2      4 1
     7      2      5 1
     8      3     18 1
     9      3     19 1
    10      3     20 1
    11      4     21 1
    12      4     22 1
    13      4     23 1
    14      5      6 1
    15      6      7 2
    16      6      8 am
    17      8      9 1
    18      8     14 1
    19      9     10 1
    20      9     24 1
    21      9     25 1
    22     10     11 1
    23     10     13 1
    24     10     14 1
    25     11     12 1
    26     11     26 1
    27     11     27 1
    28     12     13 1
    29     12     28 1
    30     12     29 1
    31     14     30 1
    32     14     31 1
    33     32     33 1
    34     32     40 1
    35     32     41 1
    36     32     42 1
    37     33     34 2
    38     33     35 1
    39     35     36 1
    40     36     37 1
    41     36     43 1
    42     36     44 1
    43     37     38 1
    44     37     45 1
    45     37     46 1
    46     38     39 2
    47     13     38 am
@<TRIPOS>SUBSTRUCTURE
     1 BB1          13
     2 BB2          38
@<TRIPOS>MOLECULE
EN300-256216_i001_EN300-206926_i001_16_5_1
  46   47   2   0   0
SMALL
USER_CHARGES
@<TRIPOS>ATOM
     1 C1         0.3665   -17.4482    14.9745 C.3        1 BB1          0.0000
     2 C2         1.1489   -17.8546    13.7240 C.3        1 BB1          0.0000
     3 C3         2.5334   -17.2040    13.7549 C.3        1 BB1          0.0000
     4 C4         1.3012   -19.3765    13.6898 C.3        1 BB1          0.0000
     5 O5         0.4330   -17.4130    12.5404 O.3        1 BB1          0.0000
     6 C6         0.3824   -16.0865    12.3159 C.2        1 BB1          0.0000
     7 O7         0.6014   -15.3080    13.2228 O.2        1 BB1          0.0000
     8 N8         0.0888   -15.6219    11.0853 N.am       1 BB1          0.0000
     9 C9        -0.2263   -16.2202     9.7764 C.3        1 BB1          0.0000
    10 C10        0.3084   -14.9463     9.1369 C.3        1 BB1          0.0000
    11 C11       -0.2180   -14.4241     7.8021 C.3        1 BB1          0.0000
    12 C12        1.0952   -14.9637     7.2007 C.3        1 BB1          0.0000
    13 N13        1.6572   -14.8616     8.5685 N.am       1 BB1          0.0000
    14 C14       -0.0636   -14.2948    10.4646 C.3        1 BB1          0.0000
    15 H15        0.2580   -16.3639    14.9988 H          1 BB1          0.0000
    16 H16       -0.6199   -17.9116    14.9524 H          1 BB1          0.0000
    17 H17        0.9038   -17.7796    15.8629 H          1 BB1          0.0000
    18 H18        3.0707   -17.5354    14.6434 H          1 BB1          0.0000
    19 H19        3.0908   -17.4934    12.8641 H          1 BB1          0.0000
    20 H20        2.4248   -16.1196    13.7793 H          1 BB1          0.0000
    21 H21        0.3149   -19.8400    13.6678 H          1 BB1          0.0000
    22 H22        1.8586   -19.6660    12.7990 H          1 BB1          0.0000
    23 H23        1.8385   -19.7079    14.5783 H          1 BB1          0.0000
    24 H24        0.3685   -17.1045     9.5478 H          1 BB1          0.0000
    25 H25       -1.2930   -16.3742     9.6138 H          1 BB1          0.0000
    26 H26       -1.1095   -14.9416     7.4479 H          1 BB1          0.0000
    27 H27       -0.3085   -13.3388     7.7589 H          1 BB1          0.0000
    28 H28        1.0208   -15.9870     6.8327 H          1 BB1          0.0000
    29 H29        1.5599   -14.2864     6.4843 H          1 BB1          0.0000
    30 H30       -1.0842   -13.9126    10.4908 H          1 BB1          0.0000
    31 H31        0.6695   -13.5671    10.8128 H          1 BB1          0.0000
    32 C1        -4.3941    -9.5734    10.1940 C.3        2 BB2          0.0000
    33 C2        -3.8187   -10.9551    10.0188 C.2        2 BB2          0.0000
    34 O3        -4.4824   -11.8272     9.4984 O.2        2 BB2          0.0000
    35 S4        -2.2282   -11.2941    10.5541 S.3        2 BB2          0.0000
    36 C5        -1.4766   -11.8195     8.9935 C.3        2 BB2          0.0000
    37 C6        -0.0199   -12.2184     9.2379 C.3        2 BB2          0.0000
    38 C7         0.7456   -12.1433     7.9419 C.2        2 BB2          0.0000
    39 O9         1.3237   -13.1292     7.5174 O.2        2 BB2          0.0000
    40 H10       -4.9004    -9.5101    11.1572 H          2 BB2          0.0000
    41 H11       -3.5907    -8.8376    10.1568 H          2 BB2          0.0000
    42 H12       -5.1076    -9.3730     9.3947 H          2 BB2          0.0000
    43 H13       -2.0252   -12.6731     8.5954 H          2 BB2          0.0000
    44 H14       -1.5133   -10.9981     8.2780 H          2 BB2          0.0000
    45 H15        0.4263   -11.5382     9.9633 H          2 BB2          0.0000
    46 H16        0.0180   -13.2370     9.6238 H          2 BB2          0.0000
@<TRIPOS>BOND
     1      1      2 1
     2      1     15 1
     3      1     16 1
     4      1     17 1
     5      2      3 1
     6      2      4 1
     7      2      5 1
     8      3     18 1
     9      3     19 1
    10      3     20 1
    11      4     21 1
    12      4     22 1
    13      4     23 1
    14      5      6 1
    15      6      7 2
    16      6      8 am
    17      8      9 1
    18      8     14 1
    19      9     10 1
    20      9     24 1
    21      9     25 1
    22     10     11 1
    23     10     13 1
    24     10     14 1
    25     11     12 1
    26     11     26 1
    27     11     27 1
    28     12     13 1
    29     12     28 1
    30     12     29 1
    31     14     30 1
    32     14     31 1
    33     32     33 1
    34     32     40 1
    35     32     41 1
    36     32     42 1
    37     33     34 2
    38     33     35 1
    39     35     36 1
    40     36     37 1
    41     36     43 1
    42     36     44 1
    43     37     38 1
    44     37     45 1
    45     37     46 1
    46     38     39 2
    47     13     38 am
@<TRIPOS>SUBSTRUCTURE
     1 BB1          13
     2 BB2          38
@<TRIPOS>MOLECULE
EN300-256216_i001_EN300-206926_i001_16_9_1
  46   47   2   0   0
SMALL
USER_CHARGES
@<TRIPOS>ATOM
     1 C1         0.3665   -17.4482    14.9745 C.3        1 BB1          0.0000
     2 C2         1.1489   -17.8546    13.7240 C.3        1 BB1          0.0000
     3 C3         2.5334   -17.2040    13.7549 C.3        1 BB1          0.0000
     4 C4         1.3012   -19.3765    13.6898 C.3        1 BB1          0.0000
     5 O5         0.4330   -17.4130    12.5404 O.3        1 BB1          0.0000
     6 C6         0.3824   -16.0865    12.3159 C.2        1 BB1          0.0000
     7 O7         0.6014   -15.3080    13.2228 O.2        1 BB1          0.0000
     8 N8         0.0888   -15.6219    11.0853 N.am       1 BB1          0.0000
     9 C9        -0.2263   -16.2202     9.7764 C.3        1 BB1          0.0000
    10 C10        0.3084   -14.9463     9.1369 C.3        1 BB1          0.0000
    11 C11       -0.2180   -14.4241     7.8021 C.3        1 BB1          0.0000
    12 C12        1.0952   -14.9637     7.2007 C.3        1 BB1          0.0000
    13 N13        1.6572   -14.8616     8.5685 N.am       1 BB1          0.0000
    14 C14       -0.0636   -14.2948    10.4646 C.3        1 BB1          0.0000
    15 H15        0.2580   -16.3639    14.9988 H          1 BB1          0.0000
    16 H16       -0.6199   -17.9116    14.9524 H          1 BB1          0.0000
    17 H17        0.9038   -17.7796    15.8629 H          1 BB1          0.0000
    18 H18        3.0707   -17.5354    14.6434 H          1 BB1          0.0000
    19 H19        3.0908   -17.4934    12.8641 H          1 BB1          0.0000
    20 H20        2.4248   -16.1196    13.7793 H          1 BB1          0.0000
    21 H21        0.3149   -19.8400    13.6678 H          1 BB1          0.0000
    22 H22        1.8586   -19.6660    12.7990 H          1 BB1          0.0000
    23 H23        1.8385   -19.7079    14.5783 H          1 BB1          0.0000
    24 H24        0.3685   -17.1045     9.5478 H          1 BB1          0.0000
    25 H25       -1.2930   -16.3742     9.6138 H          1 BB1          0.0000
    26 H26       -1.1095   -14.9416     7.4479 H          1 BB1          0.0000
    27 H27       -0.3085   -13.3388     7.7589 H          1 BB1          0.0000
    28 H28        1.0208   -15.9870     6.8327 H          1 BB1          0.0000
    29 H29        1.5599   -14.2864     6.4843 H          1 BB1          0.0000
    30 H30       -1.0842   -13.9126    10.4908 H          1 BB1          0.0000
    31 H31        0.6695   -13.5671    10.8128 H          1 BB1          0.0000
    32 C1        -4.4235   -10.4520    10.0654 C.3        2 BB2          0.0000
    33 C2        -2.9377   -10.2731     9.8882 C.2        2 BB2          0.0000
    34 O3        -2.5093    -9.3009     9.3022 O.2        2 BB2          0.0000
    35 S4        -1.8542   -11.4417    10.5139 S.3        2 BB2          0.0000
    36 C5        -1.0846   -12.0111     8.9778 C.3        2 BB2          0.0000
    37 C6         0.3153   -12.5505     9.2783 C.3        2 BB2          0.0000
    38 C7         0.8842   -13.1897     8.0377 C.2        2 BB2          0.0000
    39 O9         1.1697   -14.3750     8.0388 O.2        2 BB2          0.0000
    40 H10       -4.8255   -11.0110     9.2203 H          2 BB2          0.0000
    41 H11       -4.6162   -10.9997    10.9879 H          2 BB2          0.0000
    42 H12       -4.9037    -9.4748    10.1159 H          2 BB2          0.0000
    43 H13       -1.6923   -12.8021     8.5384 H          2 BB2          0.0000
    44 H14       -1.0107   -11.1785     8.2782 H          2 BB2          0.0000
    45 H15        0.9608   -11.7307     9.5932 H          2 BB2          0.0000
    46 H16        0.2555   -13.2924    10.0745 H          2 BB2          0.0000
@<TRIPOS>BOND
     1      1      2 1
     2      1     15 1
     3      1     16 1
     4      1     17 1
     5      2      3 1
     6      2      4 1
     7      2      5 1
     8      3     18 1
     9      3     19 1
    10      3     20 1
    11      4     21 1
    12      4     22 1
    13      4     23 1
    14      5      6 1
    15      6      7 2
    16      6      8 am
    17      8      9 1
    18      8     14 1
    19      9     10 1
    20      9     24 1
    21      9     25 1
    22     10     11 1
    23     10     13 1
    24     10     14 1
    25     11     12 1
    26     11     26 1
    27     11     27 1
    28     12     13 1
    29     12     28 1
    30     12     29 1
    31     14     30 1
    32     14     31 1
    33     32     33 1
    34     32     40 1
    35     32     41 1
    36     32     42 1
    37     33     34 2
    38     33     35 1
    39     35     36 1
    40     36     37 1
    41     36     43 1
    42     36     44 1
    43     37     38 1
    44     37     45 1
    45     37     46 1
    46     38     39 2
    47     13     38 am
@<TRIPOS>SUBSTRUCTURE
     1 BB1          13
     2 BB2          38
@<TRIPOS>MOLECULE
EN300-256216_i001_EN300-1087079_i001_17_4_1
  57   59   2   0   0
SMALL
USER_CHARGES
@<TRIPOS>ATOM
     1 C1        -0.5938   -21.7600    15.9121 C.3        1 BB1          0.0000
     2 C2         0.1272   -21.5449    14.5799 C.3        1 BB1          0.0000
     3 C3         1.1176   -22.6875    14.3457 C.3        1 BB1          0.0000
     4 C4        -0.8974   -21.5173    13.4440 C.3        1 BB1          0.0000
     5 O5         0.8442   -20.2828    14.6158 O.3        1 BB1          0.0000
     6 C6         0.1035   -19.1586    14.6127 C.2        1 BB1          0.0000
     7 O7        -1.0048   -19.1599    15.1109 O.2        1 BB1          0.0000
     8 N8         0.5911   -18.0317    14.0571 N.am       1 BB1          0.0000
     9 C9         0.1078   -16.6537    13.8627 C.3        1 BB1          0.0000
    10 C10        1.0386   -16.5646    12.6612 C.3        1 BB1          0.0000
    11 C11        1.6661   -15.2460    12.2151 C.3        1 BB1          0.0000
    12 C12        0.6270   -15.2659    11.0762 C.3        1 BB1          0.0000
    13 N13        0.5600   -16.7318    11.2855 N.am       1 BB1          0.0000
    14 C14        1.8421   -17.6395    13.3855 C.3        1 BB1          0.0000
    15 H15        0.1362   -21.7797    16.7213 H          1 BB1          0.0000
    16 H16       -1.2993   -20.9460    16.0789 H          1 BB1          0.0000
    17 H17       -1.1320   -22.7074    15.8851 H          1 BB1          0.0000
    18 H18        0.5794   -23.6349    14.3188 H          1 BB1          0.0000
    19 H19        1.6313   -22.5343    13.3967 H          1 BB1          0.0000
    20 H20        1.8476   -22.7071    15.1550 H          1 BB1          0.0000
    21 H21       -1.6029   -20.7034    13.6108 H          1 BB1          0.0000
    22 H22       -0.3836   -21.3641    12.4949 H          1 BB1          0.0000
    23 H23       -1.4355   -22.4648    13.4171 H          1 BB1          0.0000
    24 H24       -0.9485   -16.5961    13.5999 H          1 BB1          0.0000
    25 H25        0.3792   -15.9787    14.6743 H          1 BB1          0.0000
    26 H26        1.5262   -14.4301    12.9242 H          1 BB1          0.0000
    27 H27        2.6963   -15.3425    11.8726 H          1 BB1          0.0000
    28 H28       -0.2996   -14.7458    11.3193 H          1 BB1          0.0000
    29 H29        1.0341   -14.9797    10.1066 H          1 BB1          0.0000
    30 H30        2.5960   -17.2372    14.0623 H          1 BB1          0.0000
    31 H31        2.2369   -18.4089    12.7219 H          1 BB1          0.0000
    32 C1         0.5107   -16.0504     7.4434 C.3        2 BB2          0.0000
    33 C2         1.1905   -14.6798     7.4534 C.3        2 BB2          0.0000
    34 C3         0.1492   -13.5961     7.7405 C.3        2 BB2          0.0000
    35 C4         0.8083   -12.1917     7.7560 C.3        2 BB2          0.0000
    36 C5        -0.1535   -11.4070     8.6827 C.3        2 BB2          0.0000
    37 N6        -0.5565   -12.3771     9.7170 N.am       2 BB2          0.0000
    38 C7        -0.4021   -13.7352     9.1752 C.3        2 BB2          0.0000
    39 C8         0.5670   -14.5181    10.0231 C.2        2 BB2          0.0000
    40 O10        0.1863   -15.5037    10.6315 O.2        2 BB2          0.0000
    41 C11       -0.9933   -12.0700    10.9545 C.2        2 BB2          0.0000
    42 O12       -1.2986   -12.9542    11.7265 O.2        2 BB2          0.0000
    43 C13       -1.1025   -10.6282    11.3788 C.3        2 BB2          0.0000
    44 H14        1.2525   -16.8223     7.2388 H          2 BB2          0.0000
    45 H15        0.0520   -16.2355     8.4147 H          2 BB2          0.0000
    46 H16       -0.2567   -16.0697     6.6695 H          2 BB2          0.0000
    47 H17        1.9579   -14.6604     8.2271 H          2 BB2          0.0000
    48 H18        1.6492   -14.4945     6.4821 H          2 BB2          0.0000
    49 H19       -0.6578   -13.6353     7.0089 H          2 BB2          0.0000
    50 H20        1.8112   -12.2354     8.1810 H          2 BB2          0.0000
    51 H21        0.8280   -11.7582     6.7561 H          2 BB2          0.0000
    52 H22        0.3629   -10.5611     9.1366 H          2 BB2          0.0000
    53 H23       -1.0244   -11.0651     8.1234 H          2 BB2          0.0000
    54 H24       -1.3690   -14.2378     9.1537 H          2 BB2          0.0000
    55 H25       -0.7871    -9.9832    10.5586 H          2 BB2          0.0000
    56 H26       -2.1365   -10.4037    11.6406 H          2 BB2          0.0000
    57 H27       -0.4627   -10.4547    12.2442 H          2 BB2          0.0000
@<TRIPOS>BOND
     1      1      2 1
     2      1     15 1
     3      1     16 1
     4      1     17 1
     5      2      3 1
     6      2      4 1
     7      2      5 1
     8      3     18 1
     9      3     19 1
    10      3     20 1
    11      4     21 1
    12      4     22 1
    13      4     23 1
    14      5      6 1
    15      6      7 2
    16      6      8 am
    17      8      9 1
    18      8     14 1
    19      9     10 1
    20      9     24 1
    21      9     25 1
    22     10     11 1
    23     10     13 1
    24     10     14 1
    25     11     12 1
    26     11     26 1
    27     11     27 1
    28     12     13 1
    29     12     28 1
    30     12     29 1
    31     14     30 1
    32     14     31 1
    33     32     33 1
    34     32     44 1
    35     32     45 1
    36     32     46 1
    37     33     34 1
    38     33     47 1
    39     33     48 1
    40     34     35 1
    41     34     38 1
    42     34     49 1
    43     35     36 1
    44     35     50 1
    45     35     51 1
    46     36     37 1
    47     36     52 1
    48     36     53 1
    49     37     38 1
    50     37     41 am
    51     38     39 1
    52     38     54 1
    53     39     40 2
    54     41     42 2
    55     41     43 1
    56     43     55 1
    57     43     56 1
    58     43     57 1
    59     13     39 am
@<TRIPOS>SUBSTRUCTURE
     1 BB1          13
     2 BB2          39
@<TRIPOS>MOLECULE
EN300-256216_i001_EN300-4287209_i001_17_3_1
  46   48   2   0   0
SMALL
USER_CHARGES
@<TRIPOS>ATOM
     1 C1        -0.5938   -21.7600    15.9121 C.3        1 BB1          0.0000
     2 C2         0.1272   -21.5449    14.5799 C.3        1 BB1          0.0000
     3 C3         1.1176   -22.6875    14.3457 C.3        1 BB1          0.0000
     4 C4        -0.8974   -21.5173    13.4440 C.3        1 BB1          0.0000
     5 O5         0.8442   -20.2828    14.6158 O.3        1 BB1          0.0000
     6 C6         0.1035   -19.1586    14.6127 C.2        1 BB1          0.0000
     7 O7        -1.0048   -19.1599    15.1109 O.2        1 BB1          0.0000
     8 N8         0.5911   -18.0317    14.0571 N.am       1 BB1          0.0000
     9 C9         0.1078   -16.6537    13.8627 C.3        1 BB1          0.0000
    10 C10        1.0386   -16.5646    12.6612 C.3        1 BB1          0.0000
    11 C11        1.6661   -15.2460    12.2151 C.3        1 BB1          0.0000
    12 C12        0.6270   -15.2659    11.0762 C.3        1 BB1          0.0000
    13 N13        0.5600   -16.7318    11.2855 N.am       1 BB1          0.0000
    14 C14        1.8421   -17.6395    13.3855 C.3        1 BB1          0.0000
    15 H15        0.1362   -21.7797    16.7213 H          1 BB1          0.0000
    16 H16       -1.2993   -20.9460    16.0789 H          1 BB1          0.0000
    17 H17       -1.1320   -22.7074    15.8851 H          1 BB1          0.0000
    18 H18        0.5794   -23.6349    14.3188 H          1 BB1          0.0000
    19 H19        1.6313   -22.5343    13.3967 H          1 BB1          0.0000
    20 H20        1.8476   -22.7071    15.1550 H          1 BB1          0.0000
    21 H21       -1.6029   -20.7034    13.6108 H          1 BB1          0.0000
    22 H22       -0.3836   -21.3641    12.4949 H          1 BB1          0.0000
    23 H23       -1.4355   -22.4648    13.4171 H          1 BB1          0.0000
    24 H24       -0.9485   -16.5961    13.5999 H          1 BB1          0.0000
    25 H25        0.3792   -15.9787    14.6743 H          1 BB1          0.0000
    26 H26        1.5262   -14.4301    12.9242 H          1 BB1          0.0000
    27 H27        2.6963   -15.3425    11.8726 H          1 BB1          0.0000
    28 H28       -0.2996   -14.7458    11.3193 H          1 BB1          0.0000
    29 H29        1.0341   -14.9797    10.1066 H          1 BB1          0.0000
    30 H30        2.5960   -17.2372    14.0623 H          1 BB1          0.0000
    31 H31        2.2369   -18.4089    12.7219 H          1 BB1          0.0000
    32 O1         0.9022   -15.2848    11.2052 O.2        2 BB2          0.0000
    33 C2        -0.0043   -14.5201    11.5040 C.2        2 BB2          0.0000
    34 C4        -0.4017   -13.4480    10.5724 C.ar       2 BB2          0.0000
    35 C5        -1.5033   -12.6425    10.8617 C.ar       2 BB2          0.0000
    36 C6        -1.8709   -11.6325     9.9767 C.ar       2 BB2          0.0000
    37 C7        -3.0001   -10.8010    10.2667 C.1        2 BB2          0.0000
    38 C8        -3.9259   -10.1193    10.5044 C.1        2 BB2          0.0000
    39 C9        -1.1364   -11.4311     8.8058 C.ar       2 BB2          0.0000
    40 C10       -0.0472   -12.2308     8.5230 C.ar       2 BB2          0.0000
    41 C11        0.3287   -13.2319     9.3982 C.ar       2 BB2          0.0000
    42 Cl12       1.6998   -14.2324     9.0338 Cl         2 BB2          0.0000
    43 H13       -2.0687   -12.8018    11.7680 H          2 BB2          0.0000
    44 H14       -4.7538    -9.5095    10.7170 H          2 BB2          0.0000
    45 H15       -1.4217   -10.6476     8.1195 H          2 BB2          0.0000
    46 H16        0.5164   -12.0702     7.6158 H          2 BB2          0.0000
@<TRIPOS>BOND
     1      1      2 1
     2      1     15 1
     3      1     16 1
     4      1     17 1
     5      2      3 1
     6      2      4 1
     7      2      5 1
     8      3     18 1
     9      3     19 1
    10      3     20 1
    11      4     21 1
    12      4     22 1
    13      4     23 1
    14      5      6 1
    15      6      7 2
    16      6      8 am
    17      8      9 1
    18      8     14 1
    19      9     10 1
    20      9     24 1
    21      9     25 1
    22     10     11 1
    23     10     13 1
    24     10     14 1
    25     11     12 1
    26     11     26 1
    27     11     27 1
    28     12     13 1
    29     12     28 1
    30     12     29 1
    31     14     30 1
    32     14     31 1
    33     32     33 2
    34     33     34 1
    35     34     35 ar
    36     34     41 ar
    37     35     36 ar
    38     35     43 1
    39     36     37 1
    40     36     39 ar
    41     37     38 3
    42     38     44 1
    43     39     40 ar
    44     39     45 1
    45     40     41 ar
    46     40     46 1
    47     41     42 1
    48     13     33 am
@<TRIPOS>SUBSTRUCTURE
     1 BB1          13
     2 BB2          33
@<TRIPOS>MOLECULE
EN300-256216_i001_EN300-19857_i001_17_19_1
  44   46   2   0   0
SMALL
USER_CHARGES
@<TRIPOS>ATOM
     1 C1        -0.5938   -21.7600    15.9121 C.3        1 BB1          0.0000
     2 C2         0.1272   -21.5449    14.5799 C.3        1 BB1          0.0000
     3 C3         1.1176   -22.6875    14.3457 C.3        1 BB1          0.0000
     4 C4        -0.8974   -21.5173    13.4440 C.3        1 BB1          0.0000
     5 O5         0.8442   -20.2828    14.6158 O.3        1 BB1          0.0000
     6 C6         0.1035   -19.1586    14.6127 C.2        1 BB1          0.0000
     7 O7        -1.0048   -19.1599    15.1109 O.2        1 BB1          0.0000
     8 N8         0.5911   -18.0317    14.0571 N.am       1 BB1          0.0000
     9 C9         0.1078   -16.6537    13.8627 C.3        1 BB1          0.0000
    10 C10        1.0386   -16.5646    12.6612 C.3        1 BB1          0.0000
    11 C11        1.6661   -15.2460    12.2151 C.3        1 BB1          0.0000
    12 C12        0.6270   -15.2659    11.0762 C.3        1 BB1          0.0000
    13 N13        0.5600   -16.7318    11.2855 N.am       1 BB1          0.0000
    14 C14        1.8421   -17.6395    13.3855 C.3        1 BB1          0.0000
    15 H15        0.1362   -21.7797    16.7213 H          1 BB1          0.0000
    16 H16       -1.2993   -20.9460    16.0789 H          1 BB1          0.0000
    17 H17       -1.1320   -22.7074    15.8851 H          1 BB1          0.0000
    18 H18        0.5794   -23.6349    14.3188 H          1 BB1          0.0000
    19 H19        1.6313   -22.5343    13.3967 H          1 BB1          0.0000
    20 H20        1.8476   -22.7071    15.1550 H          1 BB1          0.0000
    21 H21       -1.6029   -20.7034    13.6108 H          1 BB1          0.0000
    22 H22       -0.3836   -21.3641    12.4949 H          1 BB1          0.0000
    23 H23       -1.4355   -22.4648    13.4171 H          1 BB1          0.0000
    24 H24       -0.9485   -16.5961    13.5999 H          1 BB1          0.0000
    25 H25        0.3792   -15.9787    14.6743 H          1 BB1          0.0000
    26 H26        1.5262   -14.4301    12.9242 H          1 BB1          0.0000
    27 H27        2.6963   -15.3425    11.8726 H          1 BB1          0.0000
    28 H28       -0.2996   -14.7458    11.3193 H          1 BB1          0.0000
    29 H29        1.0341   -14.9797    10.1066 H          1 BB1          0.0000
    30 H30        2.5960   -17.2372    14.0623 H          1 BB1          0.0000
    31 H31        2.2369   -18.4089    12.7219 H          1 BB1          0.0000
    32 O1         0.4960   -16.3601    11.6857 O.2        2 BB2          0.0000
    33 C2         0.1084   -15.2492    12.0190 C.2        2 BB2          0.0000
    34 C4        -0.1003   -14.2039    10.9989 C.ar       2 BB2          0.0000
    35 C5         0.6067   -14.2472     9.7949 C.ar       2 BB2          0.0000
    36 C6         0.4070   -13.2666     8.8454 C.ar       2 BB2          0.0000
    37 C7        -0.4913   -12.2416     9.0830 C.ar       2 BB2          0.0000
    38 C8        -1.1956   -12.1914    10.2743 C.ar       2 BB2          0.0000
    39 Br9       -2.4207   -10.7854    10.5877 Br         2 BB2          0.0000
    40 C10       -1.0103   -13.1691    11.2304 C.ar       2 BB2          0.0000
    41 H11        1.3085   -15.0465     9.6080 H          2 BB2          0.0000
    42 H12        0.9533   -13.2990     7.9144 H          2 BB2          0.0000
    43 H13       -0.6436   -11.4766     8.3360 H          2 BB2          0.0000
    44 H14       -1.5600   -13.1293    12.1592 H          2 BB2          0.0000
@<TRIPOS>BOND
     1      1      2 1
     2      1     15 1
     3      1     16 1
     4      1     17 1
     5      2      3 1
     6      2      4 1
     7      2      5 1
     8      3     18 1
     9      3     19 1
    10      3     20 1
    11      4     21 1
    12      4     22 1
    13      4     23 1
    14      5      6 1
    15      6      7 2
    16      6      8 am
    17      8      9 1
    18      8     14 1
    19      9     10 1
    20      9     24 1
    21      9     25 1
    22     10     11 1
    23     10     13 1
    24     10     14 1
    25     11     12 1
    26     11     26 1
    27     11     27 1
    28     12     13 1
    29     12     28 1
    30     12     29 1
    31     14     30 1
    32     14     31 1
    33     32     33 2
    34     33     34 1
    35     34     35 ar
    36     34     40 ar
    37     35     36 ar
    38     35     41 1
    39     36     37 ar
    40     36     42 1
    41     37     38 ar
    42     37     43 1
    43     38     39 1
    44     38     40 ar
    45     40     44 1
    46     13     33 am
@<TRIPOS>SUBSTRUCTURE
     1 BB1          13
     2 BB2          33
@<TRIPOS>MOLECULE
EN300-256216_i001_EN300-19857_i001_17_20_1
  44   46   2   0   0
SMALL
USER_CHARGES
@<TRIPOS>ATOM
     1 C1        -0.5938   -21.7600    15.9121 C.3        1 BB1          0.0000
     2 C2         0.1272   -21.5449    14.5799 C.3        1 BB1          0.0000
     3 C3         1.1176   -22.6875    14.3457 C.3        1 BB1          0.0000
     4 C4        -0.8974   -21.5173    13.4440 C.3        1 BB1          0.0000
     5 O5         0.8442   -20.2828    14.6158 O.3        1 BB1          0.0000
     6 C6         0.1035   -19.1586    14.6127 C.2        1 BB1          0.0000
     7 O7        -1.0048   -19.1599    15.1109 O.2        1 BB1          0.0000
     8 N8         0.5911   -18.0317    14.0571 N.am       1 BB1          0.0000
     9 C9         0.1078   -16.6537    13.8627 C.3        1 BB1          0.0000
    10 C10        1.0386   -16.5646    12.6612 C.3        1 BB1          0.0000
    11 C11        1.6661   -15.2460    12.2151 C.3        1 BB1          0.0000
    12 C12        0.6270   -15.2659    11.0762 C.3        1 BB1          0.0000
    13 N13        0.5600   -16.7318    11.2855 N.am       1 BB1          0.0000
    14 C14        1.8421   -17.6395    13.3855 C.3        1 BB1          0.0000
    15 H15        0.1362   -21.7797    16.7213 H          1 BB1          0.0000
    16 H16       -1.2993   -20.9460    16.0789 H          1 BB1          0.0000
    17 H17       -1.1320   -22.7074    15.8851 H          1 BB1          0.0000
    18 H18        0.5794   -23.6349    14.3188 H          1 BB1          0.0000
    19 H19        1.6313   -22.5343    13.3967 H          1 BB1          0.0000
    20 H20        1.8476   -22.7071    15.1550 H          1 BB1          0.0000
    21 H21       -1.6029   -20.7034    13.6108 H          1 BB1          0.0000
    22 H22       -0.3836   -21.3641    12.4949 H          1 BB1          0.0000
    23 H23       -1.4355   -22.4648    13.4171 H          1 BB1          0.0000
    24 H24       -0.9485   -16.5961    13.5999 H          1 BB1          0.0000
    25 H25        0.3792   -15.9787    14.6743 H          1 BB1          0.0000
    26 H26        1.5262   -14.4301    12.9242 H          1 BB1          0.0000
    27 H27        2.6963   -15.3425    11.8726 H          1 BB1          0.0000
    28 H28       -0.2996   -14.7458    11.3193 H          1 BB1          0.0000
    29 H29        1.0341   -14.9797    10.1066 H          1 BB1          0.0000
    30 H30        2.5960   -17.2372    14.0623 H          1 BB1          0.0000
    31 H31        2.2369   -18.4089    12.7219 H          1 BB1          0.0000
    32 C2        -0.0612   -14.3703    11.2846 C.2        2 BB2          0.0000
    33 O3         0.9101   -15.0078    10.9027 O.2        2 BB2          0.0000
    34 C4        -0.4899   -13.1665    10.5471 C.ar       2 BB2          0.0000
    35 C5         0.2870   -12.6738     9.4958 C.ar       2 BB2          0.0000
    36 C6        -0.1195   -11.5478     8.8104 C.ar       2 BB2          0.0000
    37 C7        -1.2938   -10.9062     9.1618 C.ar       2 BB2          0.0000
    38 C8        -2.0692   -11.3882    10.2031 C.ar       2 BB2          0.0000
    39 Br9       -3.6723   -10.5028    10.6742 Br         2 BB2          0.0000
    40 C10       -1.6778   -12.5173    10.8933 C.ar       2 BB2          0.0000
    41 H11        1.2041   -13.1732     9.2205 H          2 BB2          0.0000
    42 H12        0.4805   -11.1659     7.9978 H          2 BB2          0.0000
    43 H13       -1.6071   -10.0250     8.6216 H          2 BB2          0.0000
    44 H14       -2.2830   -12.8926    11.7053 H          2 BB2          0.0000
@<TRIPOS>BOND
     1      1      2 1
     2      1     15 1
     3      1     16 1
     4      1     17 1
     5      2      3 1
     6      2      4 1
     7      2      5 1
     8      3     18 1
     9      3     19 1
    10      3     20 1
    11      4     21 1
    12      4     22 1
    13      4     23 1
    14      5      6 1
    15      6      7 2
    16      6      8 am
    17      8      9 1
    18      8     14 1
    19      9     10 1
    20      9     24 1
    21      9     25 1
    22     10     11 1
    23     10     13 1
    24     10     14 1
    25     11     12 1
    26     11     26 1
    27     11     27 1
    28     12     13 1
    29     12     28 1
    30     12     29 1
    31     14     30 1
    32     14     31 1
    33     32     33 2
    34     32     34 1
    35     34     35 ar
    36     34     40 ar
    37     35     36 ar
    38     35     41 1
    39     36     37 ar
    40     36     42 1
    41     37     38 ar
    42     37     43 1
    43     38     39 1
    44     38     40 ar
    45     40     44 1
    46     13     32 am
@<TRIPOS>SUBSTRUCTURE
     1 BB1          13
     2 BB2          32
@<TRIPOS>MOLECULE
EN300-256216_i001_EN300-306118_i001_17_2_1
  53   56   2   0   0
SMALL
USER_CHARGES
@<TRIPOS>ATOM
     1 C1        -0.5938   -21.7600    15.9121 C.3        1 BB1          0.0000
     2 C2         0.1272   -21.5449    14.5799 C.3        1 BB1          0.0000
     3 C3         1.1176   -22.6875    14.3457 C.3        1 BB1          0.0000
     4 C4        -0.8974   -21.5173    13.4440 C.3        1 BB1          0.0000
     5 O5         0.8442   -20.2828    14.6158 O.3        1 BB1          0.0000
     6 C6         0.1035   -19.1586    14.6127 C.2        1 BB1          0.0000
     7 O7        -1.0048   -19.1599    15.1109 O.2        1 BB1          0.0000
     8 N8         0.5911   -18.0317    14.0571 N.am       1 BB1          0.0000
     9 C9         0.1078   -16.6537    13.8627 C.3        1 BB1          0.0000
    10 C10        1.0386   -16.5646    12.6612 C.3        1 BB1          0.0000
    11 C11        1.6661   -15.2460    12.2151 C.3        1 BB1          0.0000
    12 C12        0.6270   -15.2659    11.0762 C.3        1 BB1          0.0000
    13 N13        0.5600   -16.7318    11.2855 N.am       1 BB1          0.0000
    14 C14        1.8421   -17.6395    13.3855 C.3        1 BB1          0.0000
    15 H15        0.1362   -21.7797    16.7213 H          1 BB1          0.0000
    16 H16       -1.2993   -20.9460    16.0789 H          1 BB1          0.0000
    17 H17       -1.1320   -22.7074    15.8851 H          1 BB1          0.0000
    18 H18        0.5794   -23.6349    14.3188 H          1 BB1          0.0000
    19 H19        1.6313   -22.5343    13.3967 H          1 BB1          0.0000
    20 H20        1.8476   -22.7071    15.1550 H          1 BB1          0.0000
    21 H21       -1.6029   -20.7034    13.6108 H          1 BB1          0.0000
    22 H22       -0.3836   -21.3641    12.4949 H          1 BB1          0.0000
    23 H23       -1.4355   -22.4648    13.4171 H          1 BB1          0.0000
    24 H24       -0.9485   -16.5961    13.5999 H          1 BB1          0.0000
    25 H25        0.3792   -15.9787    14.6743 H          1 BB1          0.0000
    26 H26        1.5262   -14.4301    12.9242 H          1 BB1          0.0000
    27 H27        2.6963   -15.3425    11.8726 H          1 BB1          0.0000
    28 H28       -0.2996   -14.7458    11.3193 H          1 BB1          0.0000
    29 H29        1.0341   -14.9797    10.1066 H          1 BB1          0.0000
    30 H30        2.5960   -17.2372    14.0623 H          1 BB1          0.0000
    31 H31        2.2369   -18.4089    12.7219 H          1 BB1          0.0000
    32 C2         0.6326   -14.8679    11.1794 C.2        2 BB2          0.0000
    33 O3         1.7065   -15.2466    11.6254 O.2        2 BB2          0.0000
    34 C4         0.5817   -14.1401     9.8971 C.ar       2 BB2          0.0000
    35 C5         1.3893   -14.5408     8.8300 C.ar       2 BB2          0.0000
    36 C6         1.3364   -13.8555     7.6340 C.ar       2 BB2          0.0000
    37 C7         0.4864   -12.7733     7.4900 C.ar       2 BB2          0.0000
    38 C8        -0.3166   -12.3706     8.5429 C.ar       2 BB2          0.0000
    39 C9        -0.2789   -13.0501     9.7423 C.ar       2 BB2          0.0000
    40 C10       -1.1546   -12.6104    10.8873 C.3        2 BB2          0.0000
    41 N11       -2.0673   -11.5601    10.4288 N.pl3      2 BB2          0.0000
    42 C12       -1.7295   -10.2775    10.1613 C.2        2 BB2          0.0000
    43 C13       -2.8693    -9.6610     9.7705 C.2        2 BB2          0.0000
    44 N14       -3.8360   -10.5845     9.8175 N.2        2 BB2          0.0000
    45 N15       -3.3272   -11.7003    10.2060 N.2        2 BB2          0.0000
    46 H16        2.0538   -15.3849     8.9414 H          2 BB2          0.0000
    47 H17        1.9603   -14.1641     6.8083 H          2 BB2          0.0000
    48 H18        0.4497   -12.2400     6.5515 H          2 BB2          0.0000
    49 H19       -0.9775   -11.5248     8.4234 H          2 BB2          0.0000
    50 H20       -1.7320   -13.4605    11.2504 H          2 BB2          0.0000
    51 H21       -0.5313   -12.2235    11.6935 H          2 BB2          0.0000
    52 H22       -0.7479    -9.8347    10.2433 H          2 BB2          0.0000
    53 H23       -2.9773    -8.6269     9.4786 H          2 BB2          0.0000
@<TRIPOS>BOND
     1      1      2 1
     2      1     15 1
     3      1     16 1
     4      1     17 1
     5      2      3 1
     6      2      4 1
     7      2      5 1
     8      3     18 1
     9      3     19 1
    10      3     20 1
    11      4     21 1
    12      4     22 1
    13      4     23 1
    14      5      6 1
    15      6      7 2
    16      6      8 am
    17      8      9 1
    18      8     14 1
    19      9     10 1
    20      9     24 1
    21      9     25 1
    22     10     11 1
    23     10     13 1
    24     10     14 1
    25     11     12 1
    26     11     26 1
    27     11     27 1
    28     12     13 1
    29     12     28 1
    30     12     29 1
    31     14     30 1
    32     14     31 1
    33     32     33 2
    34     32     34 1
    35     34     35 ar
    36     34     39 ar
    37     35     36 ar
    38     35     46 1
    39     36     37 ar
    40     36     47 1
    41     37     38 ar
    42     37     48 1
    43     38     39 ar
    44     38     49 1
    45     39     40 1
    46     40     41 1
    47     40     50 1
    48     40     51 1
    49     41     42 1
    50     41     45 1
    51     42     43 2
    52     42     52 1
    53     43     44 1
    54     43     53 1
    55     44     45 2
    56     13     32 am
@<TRIPOS>SUBSTRUCTURE
     1 BB1          13
     2 BB2          32
@<TRIPOS>MOLECULE
EN300-256216_i001_EN300-306118_i001_17_7_1
  53   56   2   0   0
SMALL
USER_CHARGES
@<TRIPOS>ATOM
     1 C1        -0.5938   -21.7600    15.9121 C.3        1 BB1          0.0000
     2 C2         0.1272   -21.5449    14.5799 C.3        1 BB1          0.0000
     3 C3         1.1176   -22.6875    14.3457 C.3        1 BB1          0.0000
     4 C4        -0.8974   -21.5173    13.4440 C.3        1 BB1          0.0000
     5 O5         0.8442   -20.2828    14.6158 O.3        1 BB1          0.0000
     6 C6         0.1035   -19.1586    14.6127 C.2        1 BB1          0.0000
     7 O7        -1.0048   -19.1599    15.1109 O.2        1 BB1          0.0000
     8 N8         0.5911   -18.0317    14.0571 N.am       1 BB1          0.0000
     9 C9         0.1078   -16.6537    13.8627 C.3        1 BB1          0.0000
    10 C10        1.0386   -16.5646    12.6612 C.3        1 BB1          0.0000
    11 C11        1.6661   -15.2460    12.2151 C.3        1 BB1          0.0000
    12 C12        0.6270   -15.2659    11.0762 C.3        1 BB1          0.0000
    13 N13        0.5600   -16.7318    11.2855 N.am       1 BB1          0.0000
    14 C14        1.8421   -17.6395    13.3855 C.3        1 BB1          0.0000
    15 H15        0.1362   -21.7797    16.7213 H          1 BB1          0.0000
    16 H16       -1.2993   -20.9460    16.0789 H          1 BB1          0.0000
    17 H17       -1.1320   -22.7074    15.8851 H          1 BB1          0.0000
    18 H18        0.5794   -23.6349    14.3188 H          1 BB1          0.0000
    19 H19        1.6313   -22.5343    13.3967 H          1 BB1          0.0000
    20 H20        1.8476   -22.7071    15.1550 H          1 BB1          0.0000
    21 H21       -1.6029   -20.7034    13.6108 H          1 BB1          0.0000
    22 H22       -0.3836   -21.3641    12.4949 H          1 BB1          0.0000
    23 H23       -1.4355   -22.4648    13.4171 H          1 BB1          0.0000
    24 H24       -0.9485   -16.5961    13.5999 H          1 BB1          0.0000
    25 H25        0.3792   -15.9787    14.6743 H          1 BB1          0.0000
    26 H26        1.5262   -14.4301    12.9242 H          1 BB1          0.0000
    27 H27        2.6963   -15.3425    11.8726 H          1 BB1          0.0000
    28 H28       -0.2996   -14.7458    11.3193 H          1 BB1          0.0000
    29 H29        1.0341   -14.9797    10.1066 H          1 BB1          0.0000
    30 H30        2.5960   -17.2372    14.0623 H          1 BB1          0.0000
    31 H31        2.2369   -18.4089    12.7219 H          1 BB1          0.0000
    32 C2         0.3107   -14.7692    11.2595 C.2        2 BB2          0.0000
    33 O3         1.3333   -15.2930    11.6783 O.2        2 BB2          0.0000
    34 C4         0.2910   -14.1590     9.9165 C.ar       2 BB2          0.0000
    35 C5         0.9400   -14.7869     8.8506 C.ar       2 BB2          0.0000
    36 C6         0.9175   -14.2104     7.5976 C.ar       2 BB2          0.0000
    37 C7         0.2545   -13.0130     7.3953 C.ar       2 BB2          0.0000
    38 C8        -0.3907   -12.3851     8.4465 C.ar       2 BB2          0.0000
    39 C9        -0.3818   -12.9530     9.7032 C.ar       2 BB2          0.0000
    40 C10       -1.0854   -12.2680    10.8464 C.3        2 BB2          0.0000
    41 N11       -1.9001   -11.1660    10.3286 N.pl3      2 BB2          0.0000
    42 C12       -3.2480   -11.0736    10.4030 C.2        2 BB2          0.0000
    43 C13       -3.5794    -9.9055     9.8051 C.2        2 BB2          0.0000
    44 N14       -2.4331    -9.3478     9.3992 N.2        2 BB2          0.0000
    45 N15       -1.4563   -10.1169     9.7294 N.2        2 BB2          0.0000
    46 H16        1.4585   -15.7213     9.0074 H          2 BB2          0.0000
    47 H17        1.4188   -14.6947     6.7727 H          2 BB2          0.0000
    48 H18        0.2408   -12.5658     6.4122 H          2 BB2          0.0000
    49 H19       -0.9059   -11.4505     8.2813 H          2 BB2          0.0000
    50 H20       -1.7270   -12.9843    11.3596 H          2 BB2          0.0000
    51 H21       -0.3465   -11.8763    11.5454 H          2 BB2          0.0000
    52 H22       -3.9235   -11.7882    10.8496 H          2 BB2          0.0000
    53 H23       -4.5737    -9.5029     9.6797 H          2 BB2          0.0000
@<TRIPOS>BOND
     1      1      2 1
     2      1     15 1
     3      1     16 1
     4      1     17 1
     5      2      3 1
     6      2      4 1
     7      2      5 1
     8      3     18 1
     9      3     19 1
    10      3     20 1
    11      4     21 1
    12      4     22 1
    13      4     23 1
    14      5      6 1
    15      6      7 2
    16      6      8 am
    17      8      9 1
    18      8     14 1
    19      9     10 1
    20      9     24 1
    21      9     25 1
    22     10     11 1
    23     10     13 1
    24     10     14 1
    25     11     12 1
    26     11     26 1
    27     11     27 1
    28     12     13 1
    29     12     28 1
    30     12     29 1
    31     14     30 1
    32     14     31 1
    33     32     33 2
    34     32     34 1
    35     34     35 ar
    36     34     39 ar
    37     35     36 ar
    38     35     46 1
    39     36     37 ar
    40     36     47 1
    41     37     38 ar
    42     37     48 1
    43     38     39 ar
    44     38     49 1
    45     39     40 1
    46     40     41 1
    47     40     50 1
    48     40     51 1
    49     41     42 1
    50     41     45 1
    51     42     43 2
    52     42     52 1
    53     43     44 1
    54     43     53 1
    55     44     45 2
    56     13     32 am
@<TRIPOS>SUBSTRUCTURE
     1 BB1          13
     2 BB2          32
@<TRIPOS>MOLECULE
EN300-256216_i001_EN300-107901_i001_18_14_1
  57   60   2   0   0
SMALL
USER_CHARGES
@<TRIPOS>ATOM
     1 C1         0.4982   -11.3446     9.8685 C.3        1 BB1          0.0000
     2 C2        -0.4810   -12.3736     9.3001 C.3        1 BB1          0.0000
     3 C3        -1.9098   -11.8401     9.4230 C.3        1 BB1          0.0000
     4 C4        -0.1563   -12.6272     7.8267 C.3        1 BB1          0.0000
     5 O5        -0.3628   -13.6159    10.0426 O.3        1 BB1          0.0000
     6 C6         0.8778   -14.1097    10.2143 C.2        1 BB1          0.0000
     7 O7         1.7360   -13.9000     9.3801 O.2        1 BB1          0.0000
     8 N8         1.1679   -14.8368    11.3114 N.am       1 BB1          0.0000
     9 C9         2.3594   -15.5221    11.8414 C.3        1 BB1          0.0000
    10 C10        1.4137   -16.4519    12.5888 C.3        1 BB1          0.0000
    11 C11        1.7931   -17.0997    13.9185 C.3        1 BB1          0.0000
    12 C12        1.9967   -18.3921    13.1028 C.3        1 BB1          0.0000
    13 N13        1.0849   -17.7941    12.0987 N.am       1 BB1          0.0000
    14 C14        0.4334   -15.2867    12.5065 C.3        1 BB1          0.0000
    15 H15        0.2668   -11.1640    10.9182 H          1 BB1          0.0000
    16 H16        1.5160   -11.7247     9.7810 H          1 BB1          0.0000
    17 H17        0.4094   -10.4121     9.3112 H          1 BB1          0.0000
    18 H18       -1.9986   -10.9077     8.8657 H          1 BB1          0.0000
    19 H19       -2.6075   -12.5732     9.0181 H          1 BB1          0.0000
    20 H20       -2.1411   -11.6595    10.4728 H          1 BB1          0.0000
    21 H21        0.8615   -13.0073     7.7391 H          1 BB1          0.0000
    22 H22       -0.8540   -13.3603     7.4218 H          1 BB1          0.0000
    23 H23       -0.2451   -11.6947     7.2694 H          1 BB1          0.0000
    24 H24        2.9487   -16.0253    11.0748 H          1 BB1          0.0000
    25 H25        2.9647   -14.8974    12.4981 H          1 BB1          0.0000
    26 H26        2.7110   -16.7050    14.3542 H          1 BB1          0.0000
    27 H27        0.9708   -17.1545    14.6318 H          1 BB1          0.0000
    28 H28        3.0168   -18.5271    12.7430 H          1 BB1          0.0000
    29 H29        1.5941   -19.2827    13.5851 H          1 BB1          0.0000
    30 H30        0.5033   -14.5989    13.3493 H          1 BB1          0.0000
    31 H31       -0.5909   -15.5938    12.2950 H          1 BB1          0.0000
    32 O1        -1.1044   -18.9616    12.9522 O.2        2 BB2          0.0000
    33 C2        -0.2112   -19.3730    13.6728 C.2        2 BB2          0.0000
    34 C4         0.9797   -20.0451    13.0754 C.3        2 BB2          0.0000
    35 C5         0.7789   -21.1029    12.0033 C.3        2 BB2          0.0000
    36 C6        -0.6011   -21.4491    11.5202 C.3        2 BB2          0.0000
    37 C7        -1.0687   -22.8022    12.1671 C.3        2 BB2          0.0000
    38 C8        -2.1119   -22.2542    13.2046 C.3        2 BB2          0.0000
    39 C9        -1.6431   -21.8882    14.5934 C.3        2 BB2          0.0000
    40 C10       -0.2703   -21.9777    15.1628 C.3        2 BB2          0.0000
    41 C11        0.7467   -22.5237    14.1819 C.3        2 BB2          0.0000
    42 C12        1.4004   -21.4658    13.3283 C.3        2 BB2          0.0000
    43 H13        1.8063   -19.3226    12.8705 H          2 BB2          0.0000
    44 H14        1.4998   -21.0308    11.1347 H          2 BB2          0.0000
    45 H15       -1.3314   -20.6776    11.7382 H          2 BB2          0.0000
    46 H16       -0.5859   -21.6033    10.4298 H          2 BB2          0.0000
    47 H17       -1.6564   -23.3338    11.3862 H          2 BB2          0.0000
    48 H18       -0.3114   -23.4212    12.4973 H          2 BB2          0.0000
    49 H19       -2.5982   -21.3894    12.7428 H          2 BB2          0.0000
    50 H20       -2.8869   -23.0314    13.2890 H          2 BB2          0.0000
    51 H21       -2.0404   -20.8695    14.8077 H          2 BB2          0.0000
    52 H22       -2.2938   -22.4998    15.2815 H          2 BB2          0.0000
    53 H23        0.0623   -21.0182    15.5960 H          2 BB2          0.0000
    54 H24       -0.2987   -22.6555    16.0572 H          2 BB2          0.0000
    55 H25        1.5953   -22.9279    14.8520 H          2 BB2          0.0000
    56 H26        0.4807   -23.4678    13.7322 H          2 BB2          0.0000
    57 H27        2.5427   -21.6098    13.3168 H          2 BB2          0.0000
@<TRIPOS>BOND
     1      1      2 1
     2      1     15 1
     3      1     16 1
     4      1     17 1
     5      2      3 1
     6      2      4 1
     7      2      5 1
     8      3     18 1
     9      3     19 1
    10      3     20 1
    11      4     21 1
    12      4     22 1
    13      4     23 1
    14      5      6 1
    15      6      7 2
    16      6      8 am
    17      8      9 1
    18      8     14 1
    19      9     10 1
    20      9     24 1
    21      9     25 1
    22     10     11 1
    23     10     13 1
    24     10     14 1
    25     11     12 1
    26     11     26 1
    27     11     27 1
    28     12     13 1
    29     12     28 1
    30     12     29 1
    31     14     30 1
    32     14     31 1
    33     32     33 2
    34     33     34 1
    35     34     35 1
    36     34     42 1
    37     34     43 1
    38     35     36 1
    39     35     42 1
    40     35     44 1
    41     36     37 1
    42     36     45 1
    43     36     46 1
    44     37     38 1
    45     37     47 1
    46     37     48 1
    47     38     39 1
    48     38     49 1
    49     38     50 1
    50     39     40 1
    51     39     51 1
    52     39     52 1
    53     40     41 1
    54     40     53 1
    55     40     54 1
    56     41     42 1
    57     41     55 1
    58     41     56 1
    59     42     57 1
    60     13     33 am
@<TRIPOS>SUBSTRUCTURE
     1 BB1          13
     2 BB2          33
@<TRIPOS>MOLECULE
EN300-256216_i001_EN300-1198129_i001_19_2_1
  55   57   2   0   0
SMALL
USER_CHARGES
@<TRIPOS>ATOM
     1 C1        -0.7261   -22.3331    11.8247 C.3        1 BB1          0.0000
     2 C2        -1.0668   -22.2614    13.3146 C.3        1 BB1          0.0000
     3 C3        -2.5649   -22.5060    13.5075 C.3        1 BB1          0.0000
     4 C4        -0.2742   -23.3292    14.0711 C.3        1 BB1          0.0000
     5 O5        -0.7211   -20.9477    13.8276 O.3        1 BB1          0.0000
     6 C6         0.5267   -20.5050    13.5832 C.2        1 BB1          0.0000
     7 O7         1.4009   -21.2910    13.2761 O.2        1 BB1          0.0000
     8 N8         0.8061   -19.1901    13.6792 N.am       1 BB1          0.0000
     9 C9         0.0506   -17.9699    14.0119 C.3        1 BB1          0.0000
    10 C10        1.0593   -17.1941    13.1763 C.3        1 BB1          0.0000
    11 C11        1.4199   -15.7416    13.4794 C.3        1 BB1          0.0000
    12 C12        0.5376   -15.3866    12.2659 C.3        1 BB1          0.0000
    13 N13        0.7780   -16.7732    11.8004 N.am       1 BB1          0.0000
    14 C14        2.0016   -18.3475    13.5039 C.3        1 BB1          0.0000
    15 H15       -1.2909   -21.5723    11.2859 H          1 BB1          0.0000
    16 H16        0.3410   -22.1587    11.6873 H          1 BB1          0.0000
    17 H17       -0.9857   -23.3191    11.4397 H          1 BB1          0.0000
    18 H18       -2.8244   -23.4921    13.1224 H          1 BB1          0.0000
    19 H19       -2.8076   -22.4549    14.5689 H          1 BB1          0.0000
    20 H20       -3.1296   -21.7452    12.9685 H          1 BB1          0.0000
    21 H21        0.7930   -23.1549    13.9336 H          1 BB1          0.0000
    22 H22       -0.5169   -23.2781    15.1324 H          1 BB1          0.0000
    23 H23       -0.5338   -24.3153    13.6859 H          1 BB1          0.0000
    24 H24       -0.9582   -17.9567    13.5991 H          1 BB1          0.0000
    25 H25        0.0772   -17.7169    15.0718 H          1 BB1          0.0000
    26 H26        1.0274   -15.3799    14.4298 H          1 BB1          0.0000
    27 H27        2.4759   -15.5116    13.3380 H          1 BB1          0.0000
    28 H28       -0.5021   -15.1850    12.5240 H          1 BB1          0.0000
    29 H29        0.9704   -14.6252    11.6172 H          1 BB1          0.0000
    30 H30        2.5709   -18.1971    14.4213 H          1 BB1          0.0000
    31 H31        2.6260   -18.6514    12.6637 H          1 BB1          0.0000
    32 C2        -0.3925   -15.7871    12.2073 C.2        2 BB2          0.0000
    33 O3        -0.9969   -16.8465    12.3003 O.2        2 BB2          0.0000
    34 C4        -0.2354   -15.1414    10.8922 C.ar       2 BB2          0.0000
    35 C5        -0.1788   -13.7480    10.7957 C.ar       2 BB2          0.0000
    36 C6        -0.0318   -13.1509     9.5621 C.ar       2 BB2          0.0000
    37 C7         0.0595   -13.9262     8.4186 C.ar       2 BB2          0.0000
    38 C8         0.0046   -15.3051     8.5026 C.ar       2 BB2          0.0000
    39 C9        -0.1363   -15.9203     9.7329 C.ar       2 BB2          0.0000
    40 F10       -0.1899   -17.2677     9.8148 F          2 BB2          0.0000
    41 S11        0.0396   -11.3946     9.4399 S.o2       2 BB2          0.0000
    42 O12        0.3047   -10.9615    10.7671 O.2        2 BB2          0.0000
    43 O13        0.9678   -11.1537     8.3914 O.2        2 BB2          0.0000
    44 C14       -1.6330   -10.9078     8.9338 C.3        2 BB2          0.0000
    45 C15       -2.3738   -10.3081    10.1306 C.3        2 BB2          0.0000
    46 C16       -3.8145   -10.5817    10.0032 C.1        2 BB2          0.0000
    47 C17       -4.9636   -10.7998     9.9015 C.1        2 BB2          0.0000
    48 H18       -0.2504   -13.1407    11.6858 H          2 BB2          0.0000
    49 H19        0.1738   -13.4511     7.4554 H          2 BB2          0.0000
    50 H20        0.0765   -15.9029     7.6061 H          2 BB2          0.0000
    51 H21       -1.5702   -10.1667     8.1369 H          2 BB2          0.0000
    52 H22       -2.1731   -11.7834     8.5738 H          2 BB2          0.0000
    53 H23       -1.9991   -10.7556    11.0512 H          2 BB2          0.0000
    54 H24       -2.2095    -9.2309    10.1572 H          2 BB2          0.0000
    55 H25       -5.9913   -10.9949     9.8107 H          2 BB2          0.0000
@<TRIPOS>BOND
     1      1      2 1
     2      1     15 1
     3      1     16 1
     4      1     17 1
     5      2      3 1
     6      2      4 1
     7      2      5 1
     8      3     18 1
     9      3     19 1
    10      3     20 1
    11      4     21 1
    12      4     22 1
    13      4     23 1
    14      5      6 1
    15      6      7 2
    16      6      8 am
    17      8      9 1
    18      8     14 1
    19      9     10 1
    20      9     24 1
    21      9     25 1
    22     10     11 1
    23     10     13 1
    24     10     14 1
    25     11     12 1
    26     11     26 1
    27     11     27 1
    28     12     13 1
    29     12     28 1
    30     12     29 1
    31     14     30 1
    32     14     31 1
    33     32     33 2
    34     32     34 1
    35     34     35 ar
    36     34     39 ar
    37     35     36 ar
    38     35     48 1
    39     36     37 ar
    40     36     41 1
    41     37     38 ar
    42     37     49 1
    43     38     39 ar
    44     38     50 1
    45     39     40 1
    46     41     42 2
    47     41     43 2
    48     41     44 1
    49     44     45 1
    50     44     51 1
    51     44     52 1
    52     45     46 1
    53     45     53 1
    54     45     54 1
    55     46     47 3
    56     47     55 1
    57     13     32 am
@<TRIPOS>SUBSTRUCTURE
     1 BB1          13
     2 BB2          32
@<TRIPOS>MOLECULE
EN300-256216_i001_EN300-1198129_i001_19_9_1
  55   57   2   0   0
SMALL
USER_CHARGES
@<TRIPOS>ATOM
     1 C1        -0.7261   -22.3331    11.8247 C.3        1 BB1          0.0000
     2 C2        -1.0668   -22.2614    13.3146 C.3        1 BB1          0.0000
     3 C3        -2.5649   -22.5060    13.5075 C.3        1 BB1          0.0000
     4 C4        -0.2742   -23.3292    14.0711 C.3        1 BB1          0.0000
     5 O5        -0.7211   -20.9477    13.8276 O.3        1 BB1          0.0000
     6 C6         0.5267   -20.5050    13.5832 C.2        1 BB1          0.0000
     7 O7         1.4009   -21.2910    13.2761 O.2        1 BB1          0.0000
     8 N8         0.8061   -19.1901    13.6792 N.am       1 BB1          0.0000
     9 C9         0.0506   -17.9699    14.0119 C.3        1 BB1          0.0000
    10 C10        1.0593   -17.1941    13.1763 C.3        1 BB1          0.0000
    11 C11        1.4199   -15.7416    13.4794 C.3        1 BB1          0.0000
    12 C12        0.5376   -15.3866    12.2659 C.3        1 BB1          0.0000
    13 N13        0.7780   -16.7732    11.8004 N.am       1 BB1          0.0000
    14 C14        2.0016   -18.3475    13.5039 C.3        1 BB1          0.0000
    15 H15       -1.2909   -21.5723    11.2859 H          1 BB1          0.0000
    16 H16        0.3410   -22.1587    11.6873 H          1 BB1          0.0000
    17 H17       -0.9857   -23.3191    11.4397 H          1 BB1          0.0000
    18 H18       -2.8244   -23.4921    13.1224 H          1 BB1          0.0000
    19 H19       -2.8076   -22.4549    14.5689 H          1 BB1          0.0000
    20 H20       -3.1296   -21.7452    12.9685 H          1 BB1          0.0000
    21 H21        0.7930   -23.1549    13.9336 H          1 BB1          0.0000
    22 H22       -0.5169   -23.2781    15.1324 H          1 BB1          0.0000
    23 H23       -0.5338   -24.3153    13.6859 H          1 BB1          0.0000
    24 H24       -0.9582   -17.9567    13.5991 H          1 BB1          0.0000
    25 H25        0.0772   -17.7169    15.0718 H          1 BB1          0.0000
    26 H26        1.0274   -15.3799    14.4298 H          1 BB1          0.0000
    27 H27        2.4759   -15.5116    13.3380 H          1 BB1          0.0000
    28 H28       -0.5021   -15.1850    12.5240 H          1 BB1          0.0000
    29 H29        0.9704   -14.6252    11.6172 H          1 BB1          0.0000
    30 H30        2.5709   -18.1971    14.4213 H          1 BB1          0.0000
    31 H31        2.6260   -18.6514    12.6637 H          1 BB1          0.0000
    32 C2        -0.3298   -16.2651    12.1501 C.2        2 BB2          0.0000
    33 O3        -0.7790   -17.3577    12.4674 O.2        2 BB2          0.0000
    34 C4        -0.2777   -15.8739    10.7304 C.ar       2 BB2          0.0000
    35 C5        -0.0559   -14.5399    10.3768 C.ar       2 BB2          0.0000
    36 C6        -0.0084   -14.1812     9.0467 C.ar       2 BB2          0.0000
    37 C7        -0.1800   -15.1375     8.0601 C.ar       2 BB2          0.0000
    38 C8        -0.4001   -16.4597     8.3988 C.ar       2 BB2          0.0000
    39 C9        -0.4444   -16.8374     9.7282 C.ar       2 BB2          0.0000
    40 F10       -0.6594   -18.1295    10.0590 F          2 BB2          0.0000
    41 S11        0.2712   -12.4998     8.6004 S.o2       2 BB2          0.0000
    42 O12        1.1192   -12.0014     9.6259 O.2        2 BB2          0.0000
    43 O13        0.7129   -12.5641     7.2513 O.2        2 BB2          0.0000
    44 C14       -1.3671   -11.7273     8.6976 C.3        2 BB2          0.0000
    45 C15       -1.8344   -11.7042    10.1543 C.3        2 BB2          0.0000
    46 C16       -3.1653   -11.0801    10.2329 C.1        2 BB2          0.0000
    47 C17       -4.2268   -10.5825    10.2955 C.1        2 BB2          0.0000
    48 H18        0.0778   -13.7917    11.1441 H          2 BB2          0.0000
    49 H19       -0.1423   -14.8487     7.0201 H          2 BB2          0.0000
    50 H20       -0.5331   -17.1996     7.6236 H          2 BB2          0.0000
    51 H21       -1.3110   -10.7072     8.3179 H          2 BB2          0.0000
    52 H22       -2.0750   -12.2997     8.0981 H          2 BB2          0.0000
    53 H23       -1.8885   -12.7242    10.5348 H          2 BB2          0.0000
    54 H24       -1.1279   -11.1298    10.7535 H          2 BB2          0.0000
    55 H25       -5.1762   -10.1374    10.3514 H          2 BB2          0.0000
@<TRIPOS>BOND
     1      1      2 1
     2      1     15 1
     3      1     16 1
     4      1     17 1
     5      2      3 1
     6      2      4 1
     7      2      5 1
     8      3     18 1
     9      3     19 1
    10      3     20 1
    11      4     21 1
    12      4     22 1
    13      4     23 1
    14      5      6 1
    15      6      7 2
    16      6      8 am
    17      8      9 1
    18      8     14 1
    19      9     10 1
    20      9     24 1
    21      9     25 1
    22     10     11 1
    23     10     13 1
    24     10     14 1
    25     11     12 1
    26     11     26 1
    27     11     27 1
    28     12     13 1
    29     12     28 1
    30     12     29 1
    31     14     30 1
    32     14     31 1
    33     32     33 2
    34     32     34 1
    35     34     35 ar
    36     34     39 ar
    37     35     36 ar
    38     35     48 1
    39     36     37 ar
    40     36     41 1
    41     37     38 ar
    42     37     49 1
    43     38     39 ar
    44     38     50 1
    45     39     40 1
    46     41     42 2
    47     41     43 2
    48     41     44 1
    49     44     45 1
    50     44     51 1
    51     44     52 1
    52     45     46 1
    53     45     53 1
    54     45     54 1
    55     46     47 3
    56     47     55 1
    57     13     32 am
@<TRIPOS>SUBSTRUCTURE
     1 BB1          13
     2 BB2          32
@<TRIPOS>MOLECULE
EN300-256216_i001_EN300-4287209_i001_19_6_1
  46   48   2   0   0
SMALL
USER_CHARGES
@<TRIPOS>ATOM
     1 C1        -0.7261   -22.3331    11.8247 C.3        1 BB1          0.0000
     2 C2        -1.0668   -22.2614    13.3146 C.3        1 BB1          0.0000
     3 C3        -2.5649   -22.5060    13.5075 C.3        1 BB1          0.0000
     4 C4        -0.2742   -23.3292    14.0711 C.3        1 BB1          0.0000
     5 O5        -0.7211   -20.9477    13.8276 O.3        1 BB1          0.0000
     6 C6         0.5267   -20.5050    13.5832 C.2        1 BB1          0.0000
     7 O7         1.4009   -21.2910    13.2761 O.2        1 BB1          0.0000
     8 N8         0.8061   -19.1901    13.6792 N.am       1 BB1          0.0000
     9 C9         0.0506   -17.9699    14.0119 C.3        1 BB1          0.0000
    10 C10        1.0593   -17.1941    13.1763 C.3        1 BB1          0.0000
    11 C11        1.4199   -15.7416    13.4794 C.3        1 BB1          0.0000
    12 C12        0.5376   -15.3866    12.2659 C.3        1 BB1          0.0000
    13 N13        0.7780   -16.7732    11.8004 N.am       1 BB1          0.0000
    14 C14        2.0016   -18.3475    13.5039 C.3        1 BB1          0.0000
    15 H15       -1.2909   -21.5723    11.2859 H          1 BB1          0.0000
    16 H16        0.3410   -22.1587    11.6873 H          1 BB1          0.0000
    17 H17       -0.9857   -23.3191    11.4397 H          1 BB1          0.0000
    18 H18       -2.8244   -23.4921    13.1224 H          1 BB1          0.0000
    19 H19       -2.8076   -22.4549    14.5689 H          1 BB1          0.0000
    20 H20       -3.1296   -21.7452    12.9685 H          1 BB1          0.0000
    21 H21        0.7930   -23.1549    13.9336 H          1 BB1          0.0000
    22 H22       -0.5169   -23.2781    15.1324 H          1 BB1          0.0000
    23 H23       -0.5338   -24.3153    13.6859 H          1 BB1          0.0000
    24 H24       -0.9582   -17.9567    13.5991 H          1 BB1          0.0000
    25 H25        0.0772   -17.7169    15.0718 H          1 BB1          0.0000
    26 H26        1.0274   -15.3799    14.4298 H          1 BB1          0.0000
    27 H27        2.4759   -15.5116    13.3380 H          1 BB1          0.0000
    28 H28       -0.5021   -15.1850    12.5240 H          1 BB1          0.0000
    29 H29        0.9704   -14.6252    11.6172 H          1 BB1          0.0000
    30 H30        2.5709   -18.1971    14.4213 H          1 BB1          0.0000
    31 H31        2.6260   -18.6514    12.6637 H          1 BB1          0.0000
    32 C2        -0.1536   -16.4857    12.0918 C.2        2 BB2          0.0000
    33 O3         0.3776   -15.6734    12.8360 O.2        2 BB2          0.0000
    34 C4        -0.1204   -16.2800    10.6318 C.ar       2 BB2          0.0000
    35 C5         0.2132   -15.0305    10.1087 C.ar       2 BB2          0.0000
    36 C6         0.2425   -14.8456     8.7290 C.ar       2 BB2          0.0000
    37 C7         0.5845   -13.5663     8.1842 C.1        2 BB2          0.0000
    38 C8         0.8649   -12.5175     7.7374 C.1        2 BB2          0.0000
    39 C9        -0.0616   -15.9100     7.8771 C.ar       2 BB2          0.0000
    40 C10       -0.3916   -17.1448     8.3989 C.ar       2 BB2          0.0000
    41 C11       -0.4177   -17.3393     9.7667 C.ar       2 BB2          0.0000
    42 Cl12      -0.8340   -18.8957    10.4133 Cl         2 BB2          0.0000
    43 H13        0.4473   -14.2101    10.7709 H          2 BB2          0.0000
    44 H14        1.1157   -11.5794     7.3378 H          2 BB2          0.0000
    45 H15       -0.0387   -15.7663     6.8069 H          2 BB2          0.0000
    46 H16       -0.6261   -17.9636     7.7348 H          2 BB2          0.0000
@<TRIPOS>BOND
     1      1      2 1
     2      1     15 1
     3      1     16 1
     4      1     17 1
     5      2      3 1
     6      2      4 1
     7      2      5 1
     8      3     18 1
     9      3     19 1
    10      3     20 1
    11      4     21 1
    12      4     22 1
    13      4     23 1
    14      5      6 1
    15      6      7 2
    16      6      8 am
    17      8      9 1
    18      8     14 1
    19      9     10 1
    20      9     24 1
    21      9     25 1
    22     10     11 1
    23     10     13 1
    24     10     14 1
    25     11     12 1
    26     11     26 1
    27     11     27 1
    28     12     13 1
    29     12     28 1
    30     12     29 1
    31     14     30 1
    32     14     31 1
    33     32     33 2
    34     32     34 1
    35     34     35 ar
    36     34     41 ar
    37     35     36 ar
    38     35     43 1
    39     36     37 1
    40     36     39 ar
    41     37     38 3
    42     38     44 1
    43     39     40 ar
    44     39     45 1
    45     40     41 ar
    46     40     46 1
    47     41     42 1
    48     13     32 am
@<TRIPOS>SUBSTRUCTURE
     1 BB1          13
     2 BB2          32
@<TRIPOS>MOLECULE
EN300-256216_i001_EN300-19857_i001_19_15_1
  44   46   2   0   0
SMALL
USER_CHARGES
@<TRIPOS>ATOM
     1 C1        -0.7261   -22.3331    11.8247 C.3        1 BB1          0.0000
     2 C2        -1.0668   -22.2614    13.3146 C.3        1 BB1          0.0000
     3 C3        -2.5649   -22.5060    13.5075 C.3        1 BB1          0.0000
     4 C4        -0.2742   -23.3292    14.0711 C.3        1 BB1          0.0000
     5 O5        -0.7211   -20.9477    13.8276 O.3        1 BB1          0.0000
     6 C6         0.5267   -20.5050    13.5832 C.2        1 BB1          0.0000
     7 O7         1.4009   -21.2910    13.2761 O.2        1 BB1          0.0000
     8 N8         0.8061   -19.1901    13.6792 N.am       1 BB1          0.0000
     9 C9         0.0506   -17.9699    14.0119 C.3        1 BB1          0.0000
    10 C10        1.0593   -17.1941    13.1763 C.3        1 BB1          0.0000
    11 C11        1.4199   -15.7416    13.4794 C.3        1 BB1          0.0000
    12 C12        0.5376   -15.3866    12.2659 C.3        1 BB1          0.0000
    13 N13        0.7780   -16.7732    11.8004 N.am       1 BB1          0.0000
    14 C14        2.0016   -18.3475    13.5039 C.3        1 BB1          0.0000
    15 H15       -1.2909   -21.5723    11.2859 H          1 BB1          0.0000
    16 H16        0.3410   -22.1587    11.6873 H          1 BB1          0.0000
    17 H17       -0.9857   -23.3191    11.4397 H          1 BB1          0.0000
    18 H18       -2.8244   -23.4921    13.1224 H          1 BB1          0.0000
    19 H19       -2.8076   -22.4549    14.5689 H          1 BB1          0.0000
    20 H20       -3.1296   -21.7452    12.9685 H          1 BB1          0.0000
    21 H21        0.7930   -23.1549    13.9336 H          1 BB1          0.0000
    22 H22       -0.5169   -23.2781    15.1324 H          1 BB1          0.0000
    23 H23       -0.5338   -24.3153    13.6859 H          1 BB1          0.0000
    24 H24       -0.9582   -17.9567    13.5991 H          1 BB1          0.0000
    25 H25        0.0772   -17.7169    15.0718 H          1 BB1          0.0000
    26 H26        1.0274   -15.3799    14.4298 H          1 BB1          0.0000
    27 H27        2.4759   -15.5116    13.3380 H          1 BB1          0.0000
    28 H28       -0.5021   -15.1850    12.5240 H          1 BB1          0.0000
    29 H29        0.9704   -14.6252    11.6172 H          1 BB1          0.0000
    30 H30        2.5709   -18.1971    14.4213 H          1 BB1          0.0000
    31 H31        2.6260   -18.6514    12.6637 H          1 BB1          0.0000
    32 C2         0.4308   -15.7600    12.9387 C.2        2 BB2          0.0000
    33 O3         0.9294   -16.8458    12.6777 O.2        2 BB2          0.0000
    34 C4         0.1148   -14.8131    11.8522 C.ar       2 BB2          0.0000
    35 C5        -0.7069   -13.7107    12.0991 C.ar       2 BB2          0.0000
    36 C6        -0.9985   -12.8293    11.0788 C.ar       2 BB2          0.0000
    37 C7        -0.4794   -13.0347     9.8130 C.ar       2 BB2          0.0000
    38 C8         0.3356   -14.1255     9.5602 C.ar       2 BB2          0.0000
    39 Br9        1.0393   -14.3958     7.8260 Br         2 BB2          0.0000
    40 C10        0.6406   -15.0118    10.5730 C.ar       2 BB2          0.0000
    41 H11       -1.1132   -13.5490    13.0866 H          2 BB2          0.0000
    42 H12       -1.6339   -11.9768    11.2686 H          2 BB2          0.0000
    43 H13       -0.7111   -12.3413     9.0181 H          2 BB2          0.0000
    44 H14        1.2763   -15.8623    10.3750 H          2 BB2          0.0000
@<TRIPOS>BOND
     1      1      2 1
     2      1     15 1
     3      1     16 1
     4      1     17 1
     5      2      3 1
     6      2      4 1
     7      2      5 1
     8      3     18 1
     9      3     19 1
    10      3     20 1
    11      4     21 1
    12      4     22 1
    13      4     23 1
    14      5      6 1
    15      6      7 2
    16      6      8 am
    17      8      9 1
    18      8     14 1
    19      9     10 1
    20      9     24 1
    21      9     25 1
    22     10     11 1
    23     10     13 1
    24     10     14 1
    25     11     12 1
    26     11     26 1
    27     11     27 1
    28     12     13 1
    29     12     28 1
    30     12     29 1
    31     14     30 1
    32     14     31 1
    33     32     33 2
    34     32     34 1
    35     34     35 ar
    36     34     40 ar
    37     35     36 ar
    38     35     41 1
    39     36     37 ar
    40     36     42 1
    41     37     38 ar
    42     37     43 1
    43     38     39 1
    44     38     40 ar
    45     40     44 1
    46     13     32 am
@<TRIPOS>SUBSTRUCTURE
     1 BB1          13
     2 BB2          32
@<TRIPOS>MOLECULE
EN300-256216_i001_EN300-19857_i001_19_19_1
  44   46   2   0   0
SMALL
USER_CHARGES
@<TRIPOS>ATOM
     1 C1        -0.7261   -22.3331    11.8247 C.3        1 BB1          0.0000
     2 C2        -1.0668   -22.2614    13.3146 C.3        1 BB1          0.0000
     3 C3        -2.5649   -22.5060    13.5075 C.3        1 BB1          0.0000
     4 C4        -0.2742   -23.3292    14.0711 C.3        1 BB1          0.0000
     5 O5        -0.7211   -20.9477    13.8276 O.3        1 BB1          0.0000
     6 C6         0.5267   -20.5050    13.5832 C.2        1 BB1          0.0000
     7 O7         1.4009   -21.2910    13.2761 O.2        1 BB1          0.0000
     8 N8         0.8061   -19.1901    13.6792 N.am       1 BB1          0.0000
     9 C9         0.0506   -17.9699    14.0119 C.3        1 BB1          0.0000
    10 C10        1.0593   -17.1941    13.1763 C.3        1 BB1          0.0000
    11 C11        1.4199   -15.7416    13.4794 C.3        1 BB1          0.0000
    12 C12        0.5376   -15.3866    12.2659 C.3        1 BB1          0.0000
    13 N13        0.7780   -16.7732    11.8004 N.am       1 BB1          0.0000
    14 C14        2.0016   -18.3475    13.5039 C.3        1 BB1          0.0000
    15 H15       -1.2909   -21.5723    11.2859 H          1 BB1          0.0000
    16 H16        0.3410   -22.1587    11.6873 H          1 BB1          0.0000
    17 H17       -0.9857   -23.3191    11.4397 H          1 BB1          0.0000
    18 H18       -2.8244   -23.4921    13.1224 H          1 BB1          0.0000
    19 H19       -2.8076   -22.4549    14.5689 H          1 BB1          0.0000
    20 H20       -3.1296   -21.7452    12.9685 H          1 BB1          0.0000
    21 H21        0.7930   -23.1549    13.9336 H          1 BB1          0.0000
    22 H22       -0.5169   -23.2781    15.1324 H          1 BB1          0.0000
    23 H23       -0.5338   -24.3153    13.6859 H          1 BB1          0.0000
    24 H24       -0.9582   -17.9567    13.5991 H          1 BB1          0.0000
    25 H25        0.0772   -17.7169    15.0718 H          1 BB1          0.0000
    26 H26        1.0274   -15.3799    14.4298 H          1 BB1          0.0000
    27 H27        2.4759   -15.5116    13.3380 H          1 BB1          0.0000
    28 H28       -0.5021   -15.1850    12.5240 H          1 BB1          0.0000
    29 H29        0.9704   -14.6252    11.6172 H          1 BB1          0.0000
    30 H30        2.5709   -18.1971    14.4213 H          1 BB1          0.0000
    31 H31        2.6260   -18.6514    12.6637 H          1 BB1          0.0000
    32 O1         0.4960   -16.3601    11.6857 O.2        2 BB2          0.0000
    33 C2         0.1084   -15.2492    12.0190 C.2        2 BB2          0.0000
    34 C4        -0.1003   -14.2039    10.9989 C.ar       2 BB2          0.0000
    35 C5         0.6067   -14.2472     9.7949 C.ar       2 BB2          0.0000
    36 C6         0.4070   -13.2666     8.8454 C.ar       2 BB2          0.0000
    37 C7        -0.4913   -12.2416     9.0830 C.ar       2 BB2          0.0000
    38 C8        -1.1956   -12.1914    10.2743 C.ar       2 BB2          0.0000
    39 Br9       -2.4207   -10.7854    10.5877 Br         2 BB2          0.0000
    40 C10       -1.0103   -13.1691    11.2304 C.ar       2 BB2          0.0000
    41 H11        1.3085   -15.0465     9.6080 H          2 BB2          0.0000
    42 H12        0.9533   -13.2990     7.9144 H          2 BB2          0.0000
    43 H13       -0.6436   -11.4766     8.3360 H          2 BB2          0.0000
    44 H14       -1.5600   -13.1293    12.1592 H          2 BB2          0.0000
@<TRIPOS>BOND
     1      1      2 1
     2      1     15 1
     3      1     16 1
     4      1     17 1
     5      2      3 1
     6      2      4 1
     7      2      5 1
     8      3     18 1
     9      3     19 1
    10      3     20 1
    11      4     21 1
    12      4     22 1
    13      4     23 1
    14      5      6 1
    15      6      7 2
    16      6      8 am
    17      8      9 1
    18      8     14 1
    19      9     10 1
    20      9     24 1
    21      9     25 1
    22     10     11 1
    23     10     13 1
    24     10     14 1
    25     11     12 1
    26     11     26 1
    27     11     27 1
    28     12     13 1
    29     12     28 1
    30     12     29 1
    31     14     30 1
    32     14     31 1
    33     32     33 2
    34     33     34 1
    35     34     35 ar
    36     34     40 ar
    37     35     36 ar
    38     35     41 1
    39     36     37 ar
    40     36     42 1
    41     37     38 ar
    42     37     43 1
    43     38     39 1
    44     38     40 ar
    45     40     44 1
    46     13     33 am
@<TRIPOS>SUBSTRUCTURE
     1 BB1          13
     2 BB2          33
@<TRIPOS>MOLECULE
EN300-256216_i001_EN300-97777_i001_19_8_1
  59   60   2   0   0
SMALL
USER_CHARGES
@<TRIPOS>ATOM
     1 C1        -0.7261   -22.3331    11.8247 C.3        1 BB1          0.0000
     2 C2        -1.0668   -22.2614    13.3146 C.3        1 BB1          0.0000
     3 C3        -2.5649   -22.5060    13.5075 C.3        1 BB1          0.0000
     4 C4        -0.2742   -23.3292    14.0711 C.3        1 BB1          0.0000
     5 O5        -0.7211   -20.9477    13.8276 O.3        1 BB1          0.0000
     6 C6         0.5267   -20.5050    13.5832 C.2        1 BB1          0.0000
     7 O7         1.4009   -21.2910    13.2761 O.2        1 BB1          0.0000
     8 N8         0.8061   -19.1901    13.6792 N.am       1 BB1          0.0000
     9 C9         0.0506   -17.9699    14.0119 C.3        1 BB1          0.0000
    10 C10        1.0593   -17.1941    13.1763 C.3        1 BB1          0.0000
    11 C11        1.4199   -15.7416    13.4794 C.3        1 BB1          0.0000
    12 C12        0.5376   -15.3866    12.2659 C.3        1 BB1          0.0000
    13 N13        0.7780   -16.7732    11.8004 N.am       1 BB1          0.0000
    14 C14        2.0016   -18.3475    13.5039 C.3        1 BB1          0.0000
    15 H15       -1.2909   -21.5723    11.2859 H          1 BB1          0.0000
    16 H16        0.3410   -22.1587    11.6873 H          1 BB1          0.0000
    17 H17       -0.9857   -23.3191    11.4397 H          1 BB1          0.0000
    18 H18       -2.8244   -23.4921    13.1224 H          1 BB1          0.0000
    19 H19       -2.8076   -22.4549    14.5689 H          1 BB1          0.0000
    20 H20       -3.1296   -21.7452    12.9685 H          1 BB1          0.0000
    21 H21        0.7930   -23.1549    13.9336 H          1 BB1          0.0000
    22 H22       -0.5169   -23.2781    15.1324 H          1 BB1          0.0000
    23 H23       -0.5338   -24.3153    13.6859 H          1 BB1          0.0000
    24 H24       -0.9582   -17.9567    13.5991 H          1 BB1          0.0000
    25 H25        0.0772   -17.7169    15.0718 H          1 BB1          0.0000
    26 H26        1.0274   -15.3799    14.4298 H          1 BB1          0.0000
    27 H27        2.4759   -15.5116    13.3380 H          1 BB1          0.0000
    28 H28       -0.5021   -15.1850    12.5240 H          1 BB1          0.0000
    29 H29        0.9704   -14.6252    11.6172 H          1 BB1          0.0000
    30 H30        2.5709   -18.1971    14.4213 H          1 BB1          0.0000
    31 H31        2.6260   -18.6514    12.6637 H          1 BB1          0.0000
    32 C1        -1.8238   -10.7306     9.0157 C.3        2 BB2          0.0000
    33 C2        -1.8143   -10.8225    10.5429 C.3        2 BB2          0.0000
    34 C3        -0.6982    -9.9367    11.1002 C.3        2 BB2          0.0000
    35 C4        -3.1623   -10.3495    11.0907 C.3        2 BB2          0.0000
    36 O5        -1.5852   -12.1992    10.9435 O.3        2 BB2          0.0000
    37 C6        -0.4439   -12.7765    10.5227 C.2        2 BB2          0.0000
    38 O7         0.3377   -12.1479     9.8369 O.2        2 BB2          0.0000
    39 N8        -0.1686   -14.0514    10.8621 N.am       2 BB2          0.0000
    40 C9         1.0732   -14.6795    10.4043 C.3        2 BB2          0.0000
    41 C10        1.1107   -14.6769     8.9327 C.1        2 BB2          0.0000
    42 C11        1.1408   -14.6748     7.7592 C.1        2 BB2          0.0000
    43 C12       -1.1112   -14.8091    11.6891 C.3        2 BB2          0.0000
    44 C13       -0.3637   -15.8619    12.4662 C.2        2 BB2          0.0000
    45 O15        0.7064   -15.5921    12.9845 O.2        2 BB2          0.0000
    46 H16       -0.8635   -11.0675     8.6255 H          2 BB2          0.0000
    47 H17       -2.6190   -11.3616     8.6187 H          2 BB2          0.0000
    48 H18       -1.9957    -9.6971     8.7149 H          2 BB2          0.0000
    49 H19       -0.8702    -8.9032    10.7994 H          2 BB2          0.0000
    50 H20       -0.6914   -10.0022    12.1882 H          2 BB2          0.0000
    51 H21        0.2622   -10.2736    10.7099 H          2 BB2          0.0000
    52 H22       -3.9575   -10.9806    10.6936 H          2 BB2          0.0000
    53 H23       -3.1556   -10.4150    12.1787 H          2 BB2          0.0000
    54 H24       -3.3342    -9.3160    10.7899 H          2 BB2          0.0000
    55 H25        1.9262   -14.1218    10.7905 H          2 BB2          0.0000
    56 H26        1.1161   -15.7064    10.7669 H          2 BB2          0.0000
    57 H27        1.1676   -14.6729     6.7094 H          2 BB2          0.0000
    58 H28       -1.6115   -14.1327    12.3822 H          2 BB2          0.0000
    59 H29       -1.8526   -15.2876    11.0493 H          2 BB2          0.0000
@<TRIPOS>BOND
     1      1      2 1
     2      1     15 1
     3      1     16 1
     4      1     17 1
     5      2      3 1
     6      2      4 1
     7      2      5 1
     8      3     18 1
     9      3     19 1
    10      3     20 1
    11      4     21 1
    12      4     22 1
    13      4     23 1
    14      5      6 1
    15      6      7 2
    16      6      8 am
    17      8      9 1
    18      8     14 1
    19      9     10 1
    20      9     24 1
    21      9     25 1
    22     10     11 1
    23     10     13 1
    24     10     14 1
    25     11     12 1
    26     11     26 1
    27     11     27 1
    28     12     13 1
    29     12     28 1
    30     12     29 1
    31     14     30 1
    32     14     31 1
    33     32     33 1
    34     32     46 1
    35     32     47 1
    36     32     48 1
    37     33     34 1
    38     33     35 1
    39     33     36 1
    40     34     49 1
    41     34     50 1
    42     34     51 1
    43     35     52 1
    44     35     53 1
    45     35     54 1
    46     36     37 1
    47     37     38 2
    48     37     39 am
    49     39     40 1
    50     39     43 1
    51     40     41 1
    52     40     55 1
    53     40     56 1
    54     41     42 3
    55     42     57 1
    56     43     44 1
    57     43     58 1
    58     43     59 1
    59     44     45 2
    60     13     44 am
@<TRIPOS>SUBSTRUCTURE
     1 BB1          13
     2 BB2          44
@<TRIPOS>MOLECULE
EN300-256216_i001_EN300-1071101_i001_19_8_1
  71   73   2   0   0
SMALL
USER_CHARGES
@<TRIPOS>ATOM
     1 C1        -0.7261   -22.3331    11.8247 C.3        1 BB1          0.0000
     2 C2        -1.0668   -22.2614    13.3146 C.3        1 BB1          0.0000
     3 C3        -2.5649   -22.5060    13.5075 C.3        1 BB1          0.0000
     4 C4        -0.2742   -23.3292    14.0711 C.3        1 BB1          0.0000
     5 O5        -0.7211   -20.9477    13.8276 O.3        1 BB1          0.0000
     6 C6         0.5267   -20.5050    13.5832 C.2        1 BB1          0.0000
     7 O7         1.4009   -21.2910    13.2761 O.2        1 BB1          0.0000
     8 N8         0.8061   -19.1901    13.6792 N.am       1 BB1          0.0000
     9 C9         0.0506   -17.9699    14.0119 C.3        1 BB1          0.0000
    10 C10        1.0593   -17.1941    13.1763 C.3        1 BB1          0.0000
    11 C11        1.4199   -15.7416    13.4794 C.3        1 BB1          0.0000
    12 C12        0.5376   -15.3866    12.2659 C.3        1 BB1          0.0000
    13 N13        0.7780   -16.7732    11.8004 N.am       1 BB1          0.0000
    14 C14        2.0016   -18.3475    13.5039 C.3        1 BB1          0.0000
    15 H15       -1.2909   -21.5723    11.2859 H          1 BB1          0.0000
    16 H16        0.3410   -22.1587    11.6873 H          1 BB1          0.0000
    17 H17       -0.9857   -23.3191    11.4397 H          1 BB1          0.0000
    18 H18       -2.8244   -23.4921    13.1224 H          1 BB1          0.0000
    19 H19       -2.8076   -22.4549    14.5689 H          1 BB1          0.0000
    20 H20       -3.1296   -21.7452    12.9685 H          1 BB1          0.0000
    21 H21        0.7930   -23.1549    13.9336 H          1 BB1          0.0000
    22 H22       -0.5169   -23.2781    15.1324 H          1 BB1          0.0000
    23 H23       -0.5338   -24.3153    13.6859 H          1 BB1          0.0000
    24 H24       -0.9582   -17.9567    13.5991 H          1 BB1          0.0000
    25 H25        0.0772   -17.7169    15.0718 H          1 BB1          0.0000
    26 H26        1.0274   -15.3799    14.4298 H          1 BB1          0.0000
    27 H27        2.4759   -15.5116    13.3380 H          1 BB1          0.0000
    28 H28       -0.5021   -15.1850    12.5240 H          1 BB1          0.0000
    29 H29        0.9704   -14.6252    11.6172 H          1 BB1          0.0000
    30 H30        2.5709   -18.1971    14.4213 H          1 BB1          0.0000
    31 H31        2.6260   -18.6514    12.6637 H          1 BB1          0.0000
    32 C1         0.3515   -13.6135     6.6485 C.3        2 BB2          0.0000
    33 O2        -0.0879   -14.3590     7.7857 O.3        2 BB2          0.0000
    34 C3         0.9245   -14.5635     8.7732 C.3        2 BB2          0.0000
    35 C4         0.2818   -15.0750    10.0640 C.3        2 BB2          0.0000
    36 N5        -0.8631   -14.2283    10.4085 N.am       2 BB2          0.0000
    37 C6        -0.6994   -12.8977    10.5475 C.2        2 BB2          0.0000
    38 O7         0.3977   -12.4005    10.3872 O.2        2 BB2          0.0000
    39 O8        -1.7515   -12.1196    10.8640 O.3        2 BB2          0.0000
    40 C9        -1.7329   -10.7537    10.3717 C.3        2 BB2          0.0000
    41 C10       -0.7441    -9.9276    11.1967 C.3        2 BB2          0.0000
    42 C11       -1.3028   -10.7467     8.9034 C.3        2 BB2          0.0000
    43 C12       -3.1322   -10.1476    10.4961 C.3        2 BB2          0.0000
    44 C13        1.2931   -15.0310    11.1804 C.2        2 BB2          0.0000
    45 O15        0.9626   -15.3326    12.3146 O.2        2 BB2          0.0000
    46 C16       -0.1850   -16.4941     9.8647 C.ar       2 BB2          0.0000
    47 C17       -0.3964   -16.9791     8.5876 C.ar       2 BB2          0.0000
    48 C18       -0.8246   -18.2807     8.4047 C.ar       2 BB2          0.0000
    49 C19       -1.0410   -19.0973     9.4989 C.ar       2 BB2          0.0000
    50 C20       -0.8286   -18.6125    10.7758 C.ar       2 BB2          0.0000
    51 C21       -0.3963   -17.3123    10.9586 C.ar       2 BB2          0.0000
    52 H22       -0.4744   -13.5016     5.9461 H          2 BB2          0.0000
    53 H23        0.6919   -12.6288     6.9690 H          2 BB2          0.0000
    54 H24        1.1724   -14.1414     6.1631 H          2 BB2          0.0000
    55 H25        1.6436   -15.2975     8.4097 H          2 BB2          0.0000
    56 H26        1.4353   -13.6211     8.9704 H          2 BB2          0.0000
    57 H27        0.2528   -10.3594    11.1081 H          2 BB2          0.0000
    58 H28       -0.7302    -8.9022    10.8272 H          2 BB2          0.0000
    59 H29       -1.0506    -9.9327    12.2427 H          2 BB2          0.0000
    60 H30       -2.0073   -11.3352     8.3156 H          2 BB2          0.0000
    61 H31       -1.2888    -9.7213     8.5338 H          2 BB2          0.0000
    62 H32       -0.3059   -11.1785     8.8148 H          2 BB2          0.0000
    63 H33       -3.4387   -10.1527    11.5421 H          2 BB2          0.0000
    64 H34       -3.1183    -9.1222    10.1265 H          2 BB2          0.0000
    65 H35       -3.8367   -10.7361     9.9082 H          2 BB2          0.0000
    66 H36       -0.2274   -16.3411     7.7327 H          2 BB2          0.0000
    67 H37       -0.9904   -18.6594     7.4070 H          2 BB2          0.0000
    68 H38       -1.3762   -20.1140     9.3560 H          2 BB2          0.0000
    69 H39       -0.9980   -19.2505    11.6307 H          2 BB2          0.0000
    70 H40       -0.2304   -16.9335    11.9563 H          2 BB2          0.0000
    71 H41       -1.7388   -14.6253    10.5365 H          2 BB2          0.0000
@<TRIPOS>BOND
     1      1      2 1
     2      1     15 1
     3      1     16 1
     4      1     17 1
     5      2      3 1
     6      2      4 1
     7      2      5 1
     8      3     18 1
     9      3     19 1
    10      3     20 1
    11      4     21 1
    12      4     22 1
    13      4     23 1
    14      5      6 1
    15      6      7 2
    16      6      8 am
    17      8      9 1
    18      8     14 1
    19      9     10 1
    20      9     24 1
    21      9     25 1
    22     10     11 1
    23     10     13 1
    24     10     14 1
    25     11     12 1
    26     11     26 1
    27     11     27 1
    28     12     13 1
    29     12     28 1
    30     12     29 1
    31     14     30 1
    32     14     31 1
    33     32     33 1
    34     32     52 1
    35     32     53 1
    36     32     54 1
    37     33     34 1
    38     34     35 1
    39     34     55 1
    40     34     56 1
    41     35     36 1
    42     35     44 1
    43     35     46 1
    44     36     37 am
    45     36     71 1
    46     37     38 2
    47     37     39 1
    48     39     40 1
    49     40     41 1
    50     40     42 1
    51     40     43 1
    52     41     57 1
    53     41     58 1
    54     41     59 1
    55     42     60 1
    56     42     61 1
    57     42     62 1
    58     43     63 1
    59     43     64 1
    60     43     65 1
    61     44     45 2
    62     46     47 ar
    63     46     51 ar
    64     47     48 ar
    65     47     66 1
    66     48     49 ar
    67     48     67 1
    68     49     50 ar
    69     49     68 1
    70     50     51 ar
    71     50     69 1
    72     51     70 1
    73     13     44 am
@<TRIPOS>SUBSTRUCTURE
     1 BB1          13
     2 BB2          44
@<TRIPOS>MOLECULE
EN300-256216_i001_EN300-315786_i001_19_20_1
  59   62   2   0   0
SMALL
USER_CHARGES
@<TRIPOS>ATOM
     1 C1        -0.7261   -22.3331    11.8247 C.3        1 BB1          0.0000
     2 C2        -1.0668   -22.2614    13.3146 C.3        1 BB1          0.0000
     3 C3        -2.5649   -22.5060    13.5075 C.3        1 BB1          0.0000
     4 C4        -0.2742   -23.3292    14.0711 C.3        1 BB1          0.0000
     5 O5        -0.7211   -20.9477    13.8276 O.3        1 BB1          0.0000
     6 C6         0.5267   -20.5050    13.5832 C.2        1 BB1          0.0000
     7 O7         1.4009   -21.2910    13.2761 O.2        1 BB1          0.0000
     8 N8         0.8061   -19.1901    13.6792 N.am       1 BB1          0.0000
     9 C9         0.0506   -17.9699    14.0119 C.3        1 BB1          0.0000
    10 C10        1.0593   -17.1941    13.1763 C.3        1 BB1          0.0000
    11 C11        1.4199   -15.7416    13.4794 C.3        1 BB1          0.0000
    12 C12        0.5376   -15.3866    12.2659 C.3        1 BB1          0.0000
    13 N13        0.7780   -16.7732    11.8004 N.am       1 BB1          0.0000
    14 C14        2.0016   -18.3475    13.5039 C.3        1 BB1          0.0000
    15 H15       -1.2909   -21.5723    11.2859 H          1 BB1          0.0000
    16 H16        0.3410   -22.1587    11.6873 H          1 BB1          0.0000
    17 H17       -0.9857   -23.3191    11.4397 H          1 BB1          0.0000
    18 H18       -2.8244   -23.4921    13.1224 H          1 BB1          0.0000
    19 H19       -2.8076   -22.4549    14.5689 H          1 BB1          0.0000
    20 H20       -3.1296   -21.7452    12.9685 H          1 BB1          0.0000
    21 H21        0.7930   -23.1549    13.9336 H          1 BB1          0.0000
    22 H22       -0.5169   -23.2781    15.1324 H          1 BB1          0.0000
    23 H23       -0.5338   -24.3153    13.6859 H          1 BB1          0.0000
    24 H24       -0.9582   -17.9567    13.5991 H          1 BB1          0.0000
    25 H25        0.0772   -17.7169    15.0718 H          1 BB1          0.0000
    26 H26        1.0274   -15.3799    14.4298 H          1 BB1          0.0000
    27 H27        2.4759   -15.5116    13.3380 H          1 BB1          0.0000
    28 H28       -0.5021   -15.1850    12.5240 H          1 BB1          0.0000
    29 H29        0.9704   -14.6252    11.6172 H          1 BB1          0.0000
    30 H30        2.5709   -18.1971    14.4213 H          1 BB1          0.0000
    31 H31        2.6260   -18.6514    12.6637 H          1 BB1          0.0000
    32 O1        -0.8711   -18.2096    12.3323 O.2        2 BB2          0.0000
    33 C2        -0.5377   -17.8247    11.2208 C.2        2 BB2          0.0000
    34 C4        -0.4243   -16.3776    10.9432 C.ar       2 BB2          0.0000
    35 C5        -0.2026   -15.9318     9.6383 C.ar       2 BB2          0.0000
    36 C6        -0.0970   -14.5821     9.3802 C.ar       2 BB2          0.0000
    37 C7        -0.2115   -13.6610    10.4221 C.ar       2 BB2          0.0000
    38 C8        -0.4330   -14.1058    11.7261 C.ar       2 BB2          0.0000
    39 C9        -0.5446   -15.4549    11.9848 C.ar       2 BB2          0.0000
    40 C10       -0.0973   -12.2109    10.1440 C.2        2 BB2          0.0000
    41 O11        0.9278   -11.7619     9.6706 O.2        2 BB2          0.0000
    42 N12       -1.1304   -11.3892    10.4159 N.am       2 BB2          0.0000
    43 C13       -1.0720    -9.9596    10.0720 C.3        2 BB2          0.0000
    44 C14       -2.3448    -9.5960     9.2988 C.3        2 BB2          0.0000
    45 O15       -3.4870   -10.0234    10.0447 O.3        2 BB2          0.0000
    46 C16       -3.5607   -11.4373    10.2434 C.3        2 BB2          0.0000
    47 C17       -2.3525   -11.8963    11.0600 C.3        2 BB2          0.0000
    48 H18       -0.1136   -16.6445     8.8319 H          2 BB2          0.0000
    49 H19        0.0749   -14.2372     8.3712 H          2 BB2          0.0000
    50 H20       -0.5212   -13.3924    12.5321 H          2 BB2          0.0000
    51 H21       -0.7164   -15.7990    12.9940 H          2 BB2          0.0000
    52 H22       -1.0137    -9.3648    10.9836 H          2 BB2          0.0000
    53 H23       -0.1974    -9.7669     9.4509 H          2 BB2          0.0000
    54 H24       -2.3873    -8.5164     9.1546 H          2 BB2          0.0000
    55 H25       -2.3362   -10.0935     8.3290 H          2 BB2          0.0000
    56 H26       -4.4778   -11.6824    10.7789 H          2 BB2          0.0000
    57 H27       -3.5565   -11.9414     9.2771 H          2 BB2          0.0000
    58 H28       -2.3256   -12.9854    11.0954 H          2 BB2          0.0000
    59 H29       -2.4202   -11.4971    12.0720 H          2 BB2          0.0000
@<TRIPOS>BOND
     1      1      2 1
     2      1     15 1
     3      1     16 1
     4      1     17 1
     5      2      3 1
     6      2      4 1
     7      2      5 1
     8      3     18 1
     9      3     19 1
    10      3     20 1
    11      4     21 1
    12      4     22 1
    13      4     23 1
    14      5      6 1
    15      6      7 2
    16      6      8 am
    17      8      9 1
    18      8     14 1
    19      9     10 1
    20      9     24 1
    21      9     25 1
    22     10     11 1
    23     10     13 1
    24     10     14 1
    25     11     12 1
    26     11     26 1
    27     11     27 1
    28     12     13 1
    29     12     28 1
    30     12     29 1
    31     14     30 1
    32     14     31 1
    33     32     33 2
    34     33     34 1
    35     34     35 ar
    36     34     39 ar
    37     35     36 ar
    38     35     48 1
    39     36     37 ar
    40     36     49 1
    41     37     38 ar
    42     37     40 1
    43     38     39 ar
    44     38     50 1
    45     39     51 1
    46     40     41 2
    47     40     42 am
    48     42     43 1
    49     42     47 1
    50     43     44 1
    51     43     52 1
    52     43     53 1
    53     44     45 1
    54     44     54 1
    55     44     55 1
    56     45     46 1
    57     46     47 1
    58     46     56 1
    59     46     57 1
    60     47     58 1
    61     47     59 1
    62     13     33 am
@<TRIPOS>SUBSTRUCTURE
     1 BB1          13
     2 BB2          33
@<TRIPOS>MOLECULE
EN300-256216_i001_EN300-194291_i002_19_16_1
  55   58   2   0   0
SMALL
USER_CHARGES
@<TRIPOS>ATOM
     1 C1        -0.7261   -22.3331    11.8247 C.3        1 BB1          0.0000
     2 C2        -1.0668   -22.2614    13.3146 C.3        1 BB1          0.0000
     3 C3        -2.5649   -22.5060    13.5075 C.3        1 BB1          0.0000
     4 C4        -0.2742   -23.3292    14.0711 C.3        1 BB1          0.0000
     5 O5        -0.7211   -20.9477    13.8276 O.3        1 BB1          0.0000
     6 C6         0.5267   -20.5050    13.5832 C.2        1 BB1          0.0000
     7 O7         1.4009   -21.2910    13.2761 O.2        1 BB1          0.0000
     8 N8         0.8061   -19.1901    13.6792 N.am       1 BB1          0.0000
     9 C9         0.0506   -17.9699    14.0119 C.3        1 BB1          0.0000
    10 C10        1.0593   -17.1941    13.1763 C.3        1 BB1          0.0000
    11 C11        1.4199   -15.7416    13.4794 C.3        1 BB1          0.0000
    12 C12        0.5376   -15.3866    12.2659 C.3        1 BB1          0.0000
    13 N13        0.7780   -16.7732    11.8004 N.am       1 BB1          0.0000
    14 C14        2.0016   -18.3475    13.5039 C.3        1 BB1          0.0000
    15 H15       -1.2909   -21.5723    11.2859 H          1 BB1          0.0000
    16 H16        0.3410   -22.1587    11.6873 H          1 BB1          0.0000
    17 H17       -0.9857   -23.3191    11.4397 H          1 BB1          0.0000
    18 H18       -2.8244   -23.4921    13.1224 H          1 BB1          0.0000
    19 H19       -2.8076   -22.4549    14.5689 H          1 BB1          0.0000
    20 H20       -3.1296   -21.7452    12.9685 H          1 BB1          0.0000
    21 H21        0.7930   -23.1549    13.9336 H          1 BB1          0.0000
    22 H22       -0.5169   -23.2781    15.1324 H          1 BB1          0.0000
    23 H23       -0.5338   -24.3153    13.6859 H          1 BB1          0.0000
    24 H24       -0.9582   -17.9567    13.5991 H          1 BB1          0.0000
    25 H25        0.0772   -17.7169    15.0718 H          1 BB1          0.0000
    26 H26        1.0274   -15.3799    14.4298 H          1 BB1          0.0000
    27 H27        2.4759   -15.5116    13.3380 H          1 BB1          0.0000
    28 H28       -0.5021   -15.1850    12.5240 H          1 BB1          0.0000
    29 H29        0.9704   -14.6252    11.6172 H          1 BB1          0.0000
    30 H30        2.5709   -18.1971    14.4213 H          1 BB1          0.0000
    31 H31        2.6260   -18.6514    12.6637 H          1 BB1          0.0000
    32 O1         0.3181   -16.2492    12.8568 O.2        2 BB2          0.0000
    33 C2         0.9864   -15.6654    12.0206 C.2        2 BB2          0.0000
    34 C4         0.3162   -15.0305    10.8295 C.3        2 BB2          0.0000
    35 C5        -0.7059   -13.9613    11.2751 C.3        2 BB2          0.0000
    36 N6        -0.6164   -12.8925    10.2732 N.am       2 BB2          0.0000
    37 C7         0.5153   -12.9905     9.5545 C.2        2 BB2          0.0000
    38 O8         0.8423   -12.2317     8.6666 O.2        2 BB2          0.0000
    39 C9         1.3218   -14.1850    10.0143 C.3        2 BB2          0.0000
    40 C10       -1.5851   -11.8982    10.0900 C.ar       2 BB2          0.0000
    41 C11       -1.1994   -10.5761     9.9146 C.ar       2 BB2          0.0000
    42 C12       -2.1559    -9.5957     9.7334 C.ar       2 BB2          0.0000
    43 C13       -3.4988    -9.9298     9.7271 C.ar       2 BB2          0.0000
    44 F14       -4.4322    -8.9694     9.5498 F          2 BB2          0.0000
    45 C15       -3.8874   -11.2498     9.9021 C.ar       2 BB2          0.0000
    46 F16       -5.1988   -11.5745     9.8952 F          2 BB2          0.0000
    47 C17       -2.9323   -12.2343    10.0779 C.ar       2 BB2          0.0000
    48 H18       -0.1577   -15.7858    10.2026 H          2 BB2          0.0000
    49 H19       -1.7111   -14.3826    11.2883 H          2 BB2          0.0000
    50 H20       -0.4442   -13.5770    12.2610 H          2 BB2          0.0000
    51 H21        2.1512   -13.8654    10.6453 H          2 BB2          0.0000
    52 H22        1.6889   -14.7501     9.1575 H          2 BB2          0.0000
    53 H23       -0.1517   -10.3141     9.9201 H          2 BB2          0.0000
    54 H24       -1.8553    -8.5674     9.5970 H          2 BB2          0.0000
    55 H25       -3.2342   -13.2622    10.2142 H          2 BB2          0.0000
@<TRIPOS>BOND
     1      1      2 1
     2      1     15 1
     3      1     16 1
     4      1     17 1
     5      2      3 1
     6      2      4 1
     7      2      5 1
     8      3     18 1
     9      3     19 1
    10      3     20 1
    11      4     21 1
    12      4     22 1
    13      4     23 1
    14      5      6 1
    15      6      7 2
    16      6      8 am
    17      8      9 1
    18      8     14 1
    19      9     10 1
    20      9     24 1
    21      9     25 1
    22     10     11 1
    23     10     13 1
    24     10     14 1
    25     11     12 1
    26     11     26 1
    27     11     27 1
    28     12     13 1
    29     12     28 1
    30     12     29 1
    31     14     30 1
    32     14     31 1
    33     32     33 2
    34     33     34 1
    35     34     35 1
    36     34     39 1
    37     34     48 1
    38     35     36 1
    39     35     49 1
    40     35     50 1
    41     36     37 am
    42     36     40 1
    43     37     38 2
    44     37     39 1
    45     39     51 1
    46     39     52 1
    47     40     41 ar
    48     40     47 ar
    49     41     42 ar
    50     41     53 1
    51     42     43 ar
    52     42     54 1
    53     43     44 1
    54     43     45 ar
    55     45     46 1
    56     45     47 ar
    57     47     55 1
    58     13     33 am
@<TRIPOS>SUBSTRUCTURE
     1 BB1          13
     2 BB2          33
@<TRIPOS>MOLECULE
EN300-256216_i001_EN300-1231025_i001_2_17_1
  46   47   2   0   0
SMALL
USER_CHARGES
@<TRIPOS>ATOM
     1 C1         0.7343   -20.0184    14.1624 C.3        1 BB1          0.0000
     2 C2         0.6672   -18.5109    14.4149 C.3        1 BB1          0.0000
     3 C3        -0.2602   -18.2331    15.5998 C.3        1 BB1          0.0000
     4 C4         2.0685   -17.9834    14.7294 C.3        1 BB1          0.0000
     5 O5         0.1533   -17.8444    13.2316 O.3        1 BB1          0.0000
     6 C6         0.1586   -16.4981    13.2375 C.2        1 BB1          0.0000
     7 O7         0.3361   -15.8958    14.2778 O.2        1 BB1          0.0000
     8 N8        -0.0330   -15.8183    12.0896 N.am       1 BB1          0.0000
     9 C9        -0.2724   -16.1706    10.6793 C.3        1 BB1          0.0000
    10 C10        0.3443   -14.8297    10.3060 C.3        1 BB1          0.0000
    11 C11       -0.0703   -14.0657     9.0506 C.3        1 BB1          0.0000
    12 C12        1.2654   -14.5490     8.4510 C.3        1 BB1          0.0000
    13 N13        1.7320   -14.7056     9.8493 N.am       1 BB1          0.0000
    14 C14       -0.1012   -14.3995    11.6996 C.3        1 BB1          0.0000
    15 H15       -0.2641   -20.3941    13.9383 H          1 BB1          0.0000
    16 H16        1.3949   -20.2163    13.3182 H          1 BB1          0.0000
    17 H17        1.1200   -20.5188    15.0506 H          1 BB1          0.0000
    18 H18        0.1255   -18.7334    16.4880 H          1 BB1          0.0000
    19 H19       -0.3081   -17.1591    15.7796 H          1 BB1          0.0000
    20 H20       -1.2585   -18.6089    15.3756 H          1 BB1          0.0000
    21 H21        2.7291   -18.1813    13.8853 H          1 BB1          0.0000
    22 H22        2.0206   -16.9095    14.9092 H          1 BB1          0.0000
    23 H23        2.4541   -18.4838    15.6176 H          1 BB1          0.0000
    24 H24        0.3103   -17.0270    10.3399 H          1 BB1          0.0000
    25 H25       -1.3290   -16.2499    10.4238 H          1 BB1          0.0000
    26 H26       -0.9496   -14.4775     8.5553 H          1 BB1          0.0000
    27 H27       -0.1249   -12.9861     9.1904 H          1 BB1          0.0000
    28 H28        1.1866   -15.4905     7.9074 H          1 BB1          0.0000
    29 H29        1.7999   -13.7794     7.8943 H          1 BB1          0.0000
    30 H30       -1.1091   -13.9851    11.7257 H          1 BB1          0.0000
    31 H31        0.6270   -13.7733    12.2153 H          1 BB1          0.0000
    32 O1         0.6666   -11.1011     7.8481 O.3        2 BB2          0.0000
    33 C2        -0.1835   -11.9078     8.6656 C.3        2 BB2          0.0000
    34 C3        -0.3082   -11.2742    10.0526 C.3        2 BB2          0.0000
    35 C4        -1.5695   -11.7990    10.7416 C.3        2 BB2          0.0000
    36 C5        -2.7379   -11.0363    10.2730 C.1        2 BB2          0.0000
    37 C6        -3.6699   -10.4279     9.8993 C.1        2 BB2          0.0000
    38 C7         0.4068   -13.2884     8.7952 C.2        2 BB2          0.0000
    39 O9         0.7214   -13.7164     9.8926 O.2        2 BB2          0.0000
    40 H10       -1.1701   -11.9762     8.2073 H          2 BB2          0.0000
    41 H11        0.5663   -11.5324    10.6500 H          2 BB2          0.0000
    42 H12       -0.3729   -10.1907     9.9526 H          2 BB2          0.0000
    43 H13       -1.7033   -12.8534    10.5002 H          2 BB2          0.0000
    44 H14       -1.4689   -11.6832    11.8208 H          2 BB2          0.0000
    45 H15       -4.5035    -9.8838     9.5651 H          2 BB2          0.0000
    46 H16        1.4503   -11.5628     7.5198 H          2 BB2          0.0000
@<TRIPOS>BOND
     1      1      2 1
     2      1     15 1
     3      1     16 1
     4      1     17 1
     5      2      3 1
     6      2      4 1
     7      2      5 1
     8      3     18 1
     9      3     19 1
    10      3     20 1
    11      4     21 1
    12      4     22 1
    13      4     23 1
    14      5      6 1
    15      6      7 2
    16      6      8 am
    17      8      9 1
    18      8     14 1
    19      9     10 1
    20      9     24 1
    21      9     25 1
    22     10     11 1
    23     10     13 1
    24     10     14 1
    25     11     12 1
    26     11     26 1
    27     11     27 1
    28     12     13 1
    29     12     28 1
    30     12     29 1
    31     14     30 1
    32     14     31 1
    33     32     33 1
    34     32     46 1
    35     33     34 1
    36     33     38 1
    37     33     40 1
    38     34     35 1
    39     34     41 1
    40     34     42 1
    41     35     36 1
    42     35     43 1
    43     35     44 1
    44     36     37 3
    45     37     45 1
    46     38     39 2
    47     13     38 am
@<TRIPOS>SUBSTRUCTURE
     1 BB1          13
     2 BB2          38
@<TRIPOS>MOLECULE
EN300-256216_i001_EN300-1231025_i001_2_3_1
  46   47   2   0   0
SMALL
USER_CHARGES
@<TRIPOS>ATOM
     1 C1         0.7343   -20.0184    14.1624 C.3        1 BB1          0.0000
     2 C2         0.6672   -18.5109    14.4149 C.3        1 BB1          0.0000
     3 C3        -0.2602   -18.2331    15.5998 C.3        1 BB1          0.0000
     4 C4         2.0685   -17.9834    14.7294 C.3        1 BB1          0.0000
     5 O5         0.1533   -17.8444    13.2316 O.3        1 BB1          0.0000
     6 C6         0.1586   -16.4981    13.2375 C.2        1 BB1          0.0000
     7 O7         0.3361   -15.8958    14.2778 O.2        1 BB1          0.0000
     8 N8        -0.0330   -15.8183    12.0896 N.am       1 BB1          0.0000
     9 C9        -0.2724   -16.1706    10.6793 C.3        1 BB1          0.0000
    10 C10        0.3443   -14.8297    10.3060 C.3        1 BB1          0.0000
    11 C11       -0.0703   -14.0657     9.0506 C.3        1 BB1          0.0000
    12 C12        1.2654   -14.5490     8.4510 C.3        1 BB1          0.0000
    13 N13        1.7320   -14.7056     9.8493 N.am       1 BB1          0.0000
    14 C14       -0.1012   -14.3995    11.6996 C.3        1 BB1          0.0000
    15 H15       -0.2641   -20.3941    13.9383 H          1 BB1          0.0000
    16 H16        1.3949   -20.2163    13.3182 H          1 BB1          0.0000
    17 H17        1.1200   -20.5188    15.0506 H          1 BB1          0.0000
    18 H18        0.1255   -18.7334    16.4880 H          1 BB1          0.0000
    19 H19       -0.3081   -17.1591    15.7796 H          1 BB1          0.0000
    20 H20       -1.2585   -18.6089    15.3756 H          1 BB1          0.0000
    21 H21        2.7291   -18.1813    13.8853 H          1 BB1          0.0000
    22 H22        2.0206   -16.9095    14.9092 H          1 BB1          0.0000
    23 H23        2.4541   -18.4838    15.6176 H          1 BB1          0.0000
    24 H24        0.3103   -17.0270    10.3399 H          1 BB1          0.0000
    25 H25       -1.3290   -16.2499    10.4238 H          1 BB1          0.0000
    26 H26       -0.9496   -14.4775     8.5553 H          1 BB1          0.0000
    27 H27       -0.1249   -12.9861     9.1904 H          1 BB1          0.0000
    28 H28        1.1866   -15.4905     7.9074 H          1 BB1          0.0000
    29 H29        1.7999   -13.7794     7.8943 H          1 BB1          0.0000
    30 H30       -1.1091   -13.9851    11.7257 H          1 BB1          0.0000
    31 H31        0.6270   -13.7733    12.2153 H          1 BB1          0.0000
    32 O1         0.7014   -10.8759     9.2299 O.3        2 BB2          0.0000
    33 C2        -0.2704   -11.6359     8.5090 C.3        2 BB2          0.0000
    34 C3        -1.5543   -11.7366     9.3350 C.3        2 BB2          0.0000
    35 C4        -2.1014   -10.3326     9.6005 C.3        2 BB2          0.0000
    36 C5        -3.5041   -10.4270    10.0366 C.1        2 BB2          0.0000
    37 C6        -4.6229   -10.5023    10.3844 C.1        2 BB2          0.0000
    38 C7         0.2676   -13.0189     8.2461 C.2        2 BB2          0.0000
    39 O8         0.5418   -13.7539     9.1794 O.2        2 BB2          0.0000
    40 H10       -0.4862   -11.1437     7.5606 H          2 BB2          0.0000
    41 H11       -2.2952   -12.3174     8.7856 H          2 BB2          0.0000
    42 H12       -1.3383   -12.2278    10.2838 H          2 BB2          0.0000
    43 H13       -1.5098    -9.8538    10.3807 H          2 BB2          0.0000
    44 H14       -2.0440    -9.7415     8.6865 H          2 BB2          0.0000
    45 H15       -5.6235   -10.5697    10.6955 H          2 BB2          0.0000
    46 H16        0.8701    -9.9993     8.8580 H          2 BB2          0.0000
@<TRIPOS>BOND
     1      1      2 1
     2      1     15 1
     3      1     16 1
     4      1     17 1
     5      2      3 1
     6      2      4 1
     7      2      5 1
     8      3     18 1
     9      3     19 1
    10      3     20 1
    11      4     21 1
    12      4     22 1
    13      4     23 1
    14      5      6 1
    15      6      7 2
    16      6      8 am
    17      8      9 1
    18      8     14 1
    19      9     10 1
    20      9     24 1
    21      9     25 1
    22     10     11 1
    23     10     13 1
    24     10     14 1
    25     11     12 1
    26     11     26 1
    27     11     27 1
    28     12     13 1
    29     12     28 1
    30     12     29 1
    31     14     30 1
    32     14     31 1
    33     32     33 1
    34     32     46 1
    35     33     34 1
    36     33     38 1
    37     33     40 1
    38     34     35 1
    39     34     41 1
    40     34     42 1
    41     35     36 1
    42     35     43 1
    43     35     44 1
    44     36     37 3
    45     37     45 1
    46     38     39 2
    47     13     38 am
@<TRIPOS>SUBSTRUCTURE
     1 BB1          13
     2 BB2          38
@<TRIPOS>MOLECULE
EN300-256216_i001_EN300-1231025_i001_2_7_1
  46   47   2   0   0
SMALL
USER_CHARGES
@<TRIPOS>ATOM
     1 C1         0.7343   -20.0184    14.1624 C.3        1 BB1          0.0000
     2 C2         0.6672   -18.5109    14.4149 C.3        1 BB1          0.0000
     3 C3        -0.2602   -18.2331    15.5998 C.3        1 BB1          0.0000
     4 C4         2.0685   -17.9834    14.7294 C.3        1 BB1          0.0000
     5 O5         0.1533   -17.8444    13.2316 O.3        1 BB1          0.0000
     6 C6         0.1586   -16.4981    13.2375 C.2        1 BB1          0.0000
     7 O7         0.3361   -15.8958    14.2778 O.2        1 BB1          0.0000
     8 N8        -0.0330   -15.8183    12.0896 N.am       1 BB1          0.0000
     9 C9        -0.2724   -16.1706    10.6793 C.3        1 BB1          0.0000
    10 C10        0.3443   -14.8297    10.3060 C.3        1 BB1          0.0000
    11 C11       -0.0703   -14.0657     9.0506 C.3        1 BB1          0.0000
    12 C12        1.2654   -14.5490     8.4510 C.3        1 BB1          0.0000
    13 N13        1.7320   -14.7056     9.8493 N.am       1 BB1          0.0000
    14 C14       -0.1012   -14.3995    11.6996 C.3        1 BB1          0.0000
    15 H15       -0.2641   -20.3941    13.9383 H          1 BB1          0.0000
    16 H16        1.3949   -20.2163    13.3182 H          1 BB1          0.0000
    17 H17        1.1200   -20.5188    15.0506 H          1 BB1          0.0000
    18 H18        0.1255   -18.7334    16.4880 H          1 BB1          0.0000
    19 H19       -0.3081   -17.1591    15.7796 H          1 BB1          0.0000
    20 H20       -1.2585   -18.6089    15.3756 H          1 BB1          0.0000
    21 H21        2.7291   -18.1813    13.8853 H          1 BB1          0.0000
    22 H22        2.0206   -16.9095    14.9092 H          1 BB1          0.0000
    23 H23        2.4541   -18.4838    15.6176 H          1 BB1          0.0000
    24 H24        0.3103   -17.0270    10.3399 H          1 BB1          0.0000
    25 H25       -1.3290   -16.2499    10.4238 H          1 BB1          0.0000
    26 H26       -0.9496   -14.4775     8.5553 H          1 BB1          0.0000
    27 H27       -0.1249   -12.9861     9.1904 H          1 BB1          0.0000
    28 H28        1.1866   -15.4905     7.9074 H          1 BB1          0.0000
    29 H29        1.7999   -13.7794     7.8943 H          1 BB1          0.0000
    30 H30       -1.1091   -13.9851    11.7257 H          1 BB1          0.0000
    31 H31        0.6270   -13.7733    12.2153 H          1 BB1          0.0000
    32 O1         0.9936   -10.8074     9.6862 O.3        2 BB2          0.0000
    33 C2        -0.0092   -11.6993     9.1956 C.3        2 BB2          0.0000
    34 C3        -0.8010   -12.2733    10.3721 C.3        2 BB2          0.0000
    35 C4        -1.4824   -11.1339    11.1326 C.3        2 BB2          0.0000
    36 C5        -2.7640   -10.8095    10.4854 C.1        2 BB2          0.0000
    37 C6        -3.7863   -10.5508     9.9692 C.1        2 BB2          0.0000
    38 C7         0.6465   -12.8232     8.4353 C.2        2 BB2          0.0000
    39 O8         1.2731   -13.6805     9.0346 O.2        2 BB2          0.0000
    40 H10       -0.6843   -11.1578     8.5329 H          2 BB2          0.0000
    41 H11       -1.5570   -12.9641     9.9988 H          2 BB2          0.0000
    42 H12       -0.1237   -12.8032    11.0419 H          2 BB2          0.0000
    43 H13       -1.6631   -11.4415    12.1625 H          2 BB2          0.0000
    44 H14       -0.8381   -10.2547    11.1237 H          2 BB2          0.0000
    45 H15       -4.7005   -10.3194     9.5075 H          2 BB2          0.0000
    46 H16        1.1930   -10.0731     9.0894 H          2 BB2          0.0000
@<TRIPOS>BOND
     1      1      2 1
     2      1     15 1
     3      1     16 1
     4      1     17 1
     5      2      3 1
     6      2      4 1
     7      2      5 1
     8      3     18 1
     9      3     19 1
    10      3     20 1
    11      4     21 1
    12      4     22 1
    13      4     23 1
    14      5      6 1
    15      6      7 2
    16      6      8 am
    17      8      9 1
    18      8     14 1
    19      9     10 1
    20      9     24 1
    21      9     25 1
    22     10     11 1
    23     10     13 1
    24     10     14 1
    25     11     12 1
    26     11     26 1
    27     11     27 1
    28     12     13 1
    29     12     28 1
    30     12     29 1
    31     14     30 1
    32     14     31 1
    33     32     33 1
    34     32     46 1
    35     33     34 1
    36     33     38 1
    37     33     40 1
    38     34     35 1
    39     34     41 1
    40     34     42 1
    41     35     36 1
    42     35     43 1
    43     35     44 1
    44     36     37 3
    45     37     45 1
    46     38     39 2
    47     13     38 am
@<TRIPOS>SUBSTRUCTURE
     1 BB1          13
     2 BB2          38
@<TRIPOS>MOLECULE
EN300-256216_i001_EN300-1231025_i001_2_8_1
  46   47   2   0   0
SMALL
USER_CHARGES
@<TRIPOS>ATOM
     1 C1         0.7343   -20.0184    14.1624 C.3        1 BB1          0.0000
     2 C2         0.6672   -18.5109    14.4149 C.3        1 BB1          0.0000
     3 C3        -0.2602   -18.2331    15.5998 C.3        1 BB1          0.0000
     4 C4         2.0685   -17.9834    14.7294 C.3        1 BB1          0.0000
     5 O5         0.1533   -17.8444    13.2316 O.3        1 BB1          0.0000
     6 C6         0.1586   -16.4981    13.2375 C.2        1 BB1          0.0000
     7 O7         0.3361   -15.8958    14.2778 O.2        1 BB1          0.0000
     8 N8        -0.0330   -15.8183    12.0896 N.am       1 BB1          0.0000
     9 C9        -0.2724   -16.1706    10.6793 C.3        1 BB1          0.0000
    10 C10        0.3443   -14.8297    10.3060 C.3        1 BB1          0.0000
    11 C11       -0.0703   -14.0657     9.0506 C.3        1 BB1          0.0000
    12 C12        1.2654   -14.5490     8.4510 C.3        1 BB1          0.0000
    13 N13        1.7320   -14.7056     9.8493 N.am       1 BB1          0.0000
    14 C14       -0.1012   -14.3995    11.6996 C.3        1 BB1          0.0000
    15 H15       -0.2641   -20.3941    13.9383 H          1 BB1          0.0000
    16 H16        1.3949   -20.2163    13.3182 H          1 BB1          0.0000
    17 H17        1.1200   -20.5188    15.0506 H          1 BB1          0.0000
    18 H18        0.1255   -18.7334    16.4880 H          1 BB1          0.0000
    19 H19       -0.3081   -17.1591    15.7796 H          1 BB1          0.0000
    20 H20       -1.2585   -18.6089    15.3756 H          1 BB1          0.0000
    21 H21        2.7291   -18.1813    13.8853 H          1 BB1          0.0000
    22 H22        2.0206   -16.9095    14.9092 H          1 BB1          0.0000
    23 H23        2.4541   -18.4838    15.6176 H          1 BB1          0.0000
    24 H24        0.3103   -17.0270    10.3399 H          1 BB1          0.0000
    25 H25       -1.3290   -16.2499    10.4238 H          1 BB1          0.0000
    26 H26       -0.9496   -14.4775     8.5553 H          1 BB1          0.0000
    27 H27       -0.1249   -12.9861     9.1904 H          1 BB1          0.0000
    28 H28        1.1866   -15.4905     7.9074 H          1 BB1          0.0000
    29 H29        1.7999   -13.7794     7.8943 H          1 BB1          0.0000
    30 H30       -1.1091   -13.9851    11.7257 H          1 BB1          0.0000
    31 H31        0.6270   -13.7733    12.2153 H          1 BB1          0.0000
    32 O1         1.0592   -11.3854     8.4899 O.3        2 BB2          0.0000
    33 C2        -0.0593   -12.0366     7.8843 C.3        2 BB2          0.0000
    34 C3        -1.2395   -12.0340     8.8579 C.3        2 BB2          0.0000
    35 C4        -1.4915   -10.6075     9.3502 C.3        2 BB2          0.0000
    36 C5        -2.8536   -10.5116     9.8999 C.1        2 BB2          0.0000
    37 C6        -3.9400   -10.4350    10.3383 C.1        2 BB2          0.0000
    38 C7         0.3097   -13.4580     7.5459 C.2        2 BB2          0.0000
    39 O9         1.4698   -13.8234     7.6305 O.2        2 BB2          0.0000
    40 H10       -0.3386   -11.5071     6.9734 H          2 BB2          0.0000
    41 H11       -2.1298   -12.4059     8.3506 H          2 BB2          0.0000
    42 H12       -1.0106   -12.6767     9.7080 H          2 BB2          0.0000
    43 H13       -0.7681   -10.3579    10.1263 H          2 BB2          0.0000
    44 H14       -1.3858    -9.9118     8.5177 H          2 BB2          0.0000
    45 H15       -4.9116   -10.3666    10.7304 H          2 BB2          0.0000
    46 H16        1.1362   -10.4475     8.2674 H          2 BB2          0.0000
@<TRIPOS>BOND
     1      1      2 1
     2      1     15 1
     3      1     16 1
     4      1     17 1
     5      2      3 1
     6      2      4 1
     7      2      5 1
     8      3     18 1
     9      3     19 1
    10      3     20 1
    11      4     21 1
    12      4     22 1
    13      4     23 1
    14      5      6 1
    15      6      7 2
    16      6      8 am
    17      8      9 1
    18      8     14 1
    19      9     10 1
    20      9     24 1
    21      9     25 1
    22     10     11 1
    23     10     13 1
    24     10     14 1
    25     11     12 1
    26     11     26 1
    27     11     27 1
    28     12     13 1
    29     12     28 1
    30     12     29 1
    31     14     30 1
    32     14     31 1
    33     32     33 1
    34     32     46 1
    35     33     34 1
    36     33     38 1
    37     33     40 1
    38     34     35 1
    39     34     41 1
    40     34     42 1
    41     35     36 1
    42     35     43 1
    43     35     44 1
    44     36     37 3
    45     37     45 1
    46     38     39 2
    47     13     38 am
@<TRIPOS>SUBSTRUCTURE
     1 BB1          13
     2 BB2          38
@<TRIPOS>MOLECULE
EN300-256216_i001_EN300-206926_i001_2_10_1
  46   47   2   0   0
SMALL
USER_CHARGES
@<TRIPOS>ATOM
     1 C1         0.7343   -20.0184    14.1624 C.3        1 BB1          0.0000
     2 C2         0.6672   -18.5109    14.4149 C.3        1 BB1          0.0000
     3 C3        -0.2602   -18.2331    15.5998 C.3        1 BB1          0.0000
     4 C4         2.0685   -17.9834    14.7294 C.3        1 BB1          0.0000
     5 O5         0.1533   -17.8444    13.2316 O.3        1 BB1          0.0000
     6 C6         0.1586   -16.4981    13.2375 C.2        1 BB1          0.0000
     7 O7         0.3361   -15.8958    14.2778 O.2        1 BB1          0.0000
     8 N8        -0.0330   -15.8183    12.0896 N.am       1 BB1          0.0000
     9 C9        -0.2724   -16.1706    10.6793 C.3        1 BB1          0.0000
    10 C10        0.3443   -14.8297    10.3060 C.3        1 BB1          0.0000
    11 C11       -0.0703   -14.0657     9.0506 C.3        1 BB1          0.0000
    12 C12        1.2654   -14.5490     8.4510 C.3        1 BB1          0.0000
    13 N13        1.7320   -14.7056     9.8493 N.am       1 BB1          0.0000
    14 C14       -0.1012   -14.3995    11.6996 C.3        1 BB1          0.0000
    15 H15       -0.2641   -20.3941    13.9383 H          1 BB1          0.0000
    16 H16        1.3949   -20.2163    13.3182 H          1 BB1          0.0000
    17 H17        1.1200   -20.5188    15.0506 H          1 BB1          0.0000
    18 H18        0.1255   -18.7334    16.4880 H          1 BB1          0.0000
    19 H19       -0.3081   -17.1591    15.7796 H          1 BB1          0.0000
    20 H20       -1.2585   -18.6089    15.3756 H          1 BB1          0.0000
    21 H21        2.7291   -18.1813    13.8853 H          1 BB1          0.0000
    22 H22        2.0206   -16.9095    14.9092 H          1 BB1          0.0000
    23 H23        2.4541   -18.4838    15.6176 H          1 BB1          0.0000
    24 H24        0.3103   -17.0270    10.3399 H          1 BB1          0.0000
    25 H25       -1.3290   -16.2499    10.4238 H          1 BB1          0.0000
    26 H26       -0.9496   -14.4775     8.5553 H          1 BB1          0.0000
    27 H27       -0.1249   -12.9861     9.1904 H          1 BB1          0.0000
    28 H28        1.1866   -15.4905     7.9074 H          1 BB1          0.0000
    29 H29        1.7999   -13.7794     7.8943 H          1 BB1          0.0000
    30 H30       -1.1091   -13.9851    11.7257 H          1 BB1          0.0000
    31 H31        0.6270   -13.7733    12.2153 H          1 BB1          0.0000
    32 C1        -3.8725   -10.9951     9.9128 C.3        2 BB2          0.0000
    33 C2        -2.3918   -10.7328    10.0115 C.2        2 BB2          0.0000
    34 O3        -1.9847    -9.5986    10.1525 O.2        2 BB2          0.0000
    35 S4        -1.2841   -12.0353     9.9250 S.3        2 BB2          0.0000
    36 C5        -0.4033   -11.5985     8.4053 C.3        2 BB2          0.0000
    37 C6         0.7726   -12.5564     8.2042 C.3        2 BB2          0.0000
    38 C7         0.2498   -13.9450     7.9401 C.2        2 BB2          0.0000
    39 O8         0.4180   -14.8269     8.7650 O.2        2 BB2          0.0000
    40 H10       -4.1807   -10.9491     8.8683 H          2 BB2          0.0000
    41 H11       -4.0939   -11.9843    10.3137 H          2 BB2          0.0000
    42 H12       -4.4139   -10.2417    10.4849 H          2 BB2          0.0000
    43 H13       -1.0832   -11.6746     7.5567 H          2 BB2          0.0000
    44 H14       -0.0309   -10.5771     8.4821 H          2 BB2          0.0000
    45 H15        1.3698   -12.2254     7.3546 H          2 BB2          0.0000
    46 H16        1.3912   -12.5657     9.1016 H          2 BB2          0.0000
@<TRIPOS>BOND
     1      1      2 1
     2      1     15 1
     3      1     16 1
     4      1     17 1
     5      2      3 1
     6      2      4 1
     7      2      5 1
     8      3     18 1
     9      3     19 1
    10      3     20 1
    11      4     21 1
    12      4     22 1
    13      4     23 1
    14      5      6 1
    15      6      7 2
    16      6      8 am
    17      8      9 1
    18      8     14 1
    19      9     10 1
    20      9     24 1
    21      9     25 1
    22     10     11 1
    23     10     13 1
    24     10     14 1
    25     11     12 1
    26     11     26 1
    27     11     27 1
    28     12     13 1
    29     12     28 1
    30     12     29 1
    31     14     30 1
    32     14     31 1
    33     32     33 1
    34     32     40 1
    35     32     41 1
    36     32     42 1
    37     33     34 2
    38     33     35 1
    39     35     36 1
    40     36     37 1
    41     36     43 1
    42     36     44 1
    43     37     38 1
    44     37     45 1
    45     37     46 1
    46     38     39 2
    47     13     38 am
@<TRIPOS>SUBSTRUCTURE
     1 BB1          13
     2 BB2          38
@<TRIPOS>MOLECULE
EN300-256216_i001_EN300-206926_i001_2_9_1
  46   47   2   0   0
SMALL
USER_CHARGES
@<TRIPOS>ATOM
     1 C1         0.7343   -20.0184    14.1624 C.3        1 BB1          0.0000
     2 C2         0.6672   -18.5109    14.4149 C.3        1 BB1          0.0000
     3 C3        -0.2602   -18.2331    15.5998 C.3        1 BB1          0.0000
     4 C4         2.0685   -17.9834    14.7294 C.3        1 BB1          0.0000
     5 O5         0.1533   -17.8444    13.2316 O.3        1 BB1          0.0000
     6 C6         0.1586   -16.4981    13.2375 C.2        1 BB1          0.0000
     7 O7         0.3361   -15.8958    14.2778 O.2        1 BB1          0.0000
     8 N8        -0.0330   -15.8183    12.0896 N.am       1 BB1          0.0000
     9 C9        -0.2724   -16.1706    10.6793 C.3        1 BB1          0.0000
    10 C10        0.3443   -14.8297    10.3060 C.3        1 BB1          0.0000
    11 C11       -0.0703   -14.0657     9.0506 C.3        1 BB1          0.0000
    12 C12        1.2654   -14.5490     8.4510 C.3        1 BB1          0.0000
    13 N13        1.7320   -14.7056     9.8493 N.am       1 BB1          0.0000
    14 C14       -0.1012   -14.3995    11.6996 C.3        1 BB1          0.0000
    15 H15       -0.2641   -20.3941    13.9383 H          1 BB1          0.0000
    16 H16        1.3949   -20.2163    13.3182 H          1 BB1          0.0000
    17 H17        1.1200   -20.5188    15.0506 H          1 BB1          0.0000
    18 H18        0.1255   -18.7334    16.4880 H          1 BB1          0.0000
    19 H19       -0.3081   -17.1591    15.7796 H          1 BB1          0.0000
    20 H20       -1.2585   -18.6089    15.3756 H          1 BB1          0.0000
    21 H21        2.7291   -18.1813    13.8853 H          1 BB1          0.0000
    22 H22        2.0206   -16.9095    14.9092 H          1 BB1          0.0000
    23 H23        2.4541   -18.4838    15.6176 H          1 BB1          0.0000
    24 H24        0.3103   -17.0270    10.3399 H          1 BB1          0.0000
    25 H25       -1.3290   -16.2499    10.4238 H          1 BB1          0.0000
    26 H26       -0.9496   -14.4775     8.5553 H          1 BB1          0.0000
    27 H27       -0.1249   -12.9861     9.1904 H          1 BB1          0.0000
    28 H28        1.1866   -15.4905     7.9074 H          1 BB1          0.0000
    29 H29        1.7999   -13.7794     7.8943 H          1 BB1          0.0000
    30 H30       -1.1091   -13.9851    11.7257 H          1 BB1          0.0000
    31 H31        0.6270   -13.7733    12.2153 H          1 BB1          0.0000
    32 C1        -4.4235   -10.4520    10.0654 C.3        2 BB2          0.0000
    33 C2        -2.9377   -10.2731     9.8882 C.2        2 BB2          0.0000
    34 O3        -2.5093    -9.3009     9.3022 O.2        2 BB2          0.0000
    35 S4        -1.8542   -11.4417    10.5139 S.3        2 BB2          0.0000
    36 C5        -1.0846   -12.0111     8.9778 C.3        2 BB2          0.0000
    37 C6         0.3153   -12.5505     9.2783 C.3        2 BB2          0.0000
    38 C7         0.8842   -13.1897     8.0377 C.2        2 BB2          0.0000
    39 O9         1.1697   -14.3750     8.0388 O.2        2 BB2          0.0000
    40 H10       -4.8255   -11.0110     9.2203 H          2 BB2          0.0000
    41 H11       -4.6162   -10.9997    10.9879 H          2 BB2          0.0000
    42 H12       -4.9037    -9.4748    10.1159 H          2 BB2          0.0000
    43 H13       -1.6923   -12.8021     8.5384 H          2 BB2          0.0000
    44 H14       -1.0107   -11.1785     8.2782 H          2 BB2          0.0000
    45 H15        0.9608   -11.7307     9.5932 H          2 BB2          0.0000
    46 H16        0.2555   -13.2924    10.0745 H          2 BB2          0.0000
@<TRIPOS>BOND
     1      1      2 1
     2      1     15 1
     3      1     16 1
     4      1     17 1
     5      2      3 1
     6      2      4 1
     7      2      5 1
     8      3     18 1
     9      3     19 1
    10      3     20 1
    11      4     21 1
    12      4     22 1
    13      4     23 1
    14      5      6 1
    15      6      7 2
    16      6      8 am
    17      8      9 1
    18      8     14 1
    19      9     10 1
    20      9     24 1
    21      9     25 1
    22     10     11 1
    23     10     13 1
    24     10     14 1
    25     11     12 1
    26     11     26 1
    27     11     27 1
    28     12     13 1
    29     12     28 1
    30     12     29 1
    31     14     30 1
    32     14     31 1
    33     32     33 1
    34     32     40 1
    35     32     41 1
    36     32     42 1
    37     33     34 2
    38     33     35 1
    39     35     36 1
    40     36     37 1
    41     36     43 1
    42     36     44 1
    43     37     38 1
    44     37     45 1
    45     37     46 1
    46     38     39 2
    47     13     38 am
@<TRIPOS>SUBSTRUCTURE
     1 BB1          13
     2 BB2          38
@<TRIPOS>MOLECULE
EN300-312564_i001_EN300-1087079_i001_10_4_1
  62   63   2   0   0
SMALL
USER_CHARGES
@<TRIPOS>ATOM
     1 C1        -0.2511   -15.4058    12.1218 C.3        1 BB1          0.0000
     2 C2        -0.7009   -16.8631    11.9993 C.3        1 BB1          0.0000
     3 C3        -0.0433   -17.4983    10.7724 C.3        1 BB1          0.0000
     4 C4        -0.5756   -16.8307     9.4869 C.3        1 BB1          0.0000
     5 N5         0.3809   -15.8359     8.9835 N.am       1 BB1          0.0000
     6 C6        -0.6977   -18.0227     8.5013 C.3        1 BB1          0.0000
     7 C7        -1.1344   -19.1671     9.4497 C.3        1 BB1          0.0000
     8 N8        -0.3923   -18.9247    10.7003 N.am       1 BB1          0.0000
     9 C9        -0.0845   -19.8564    11.6243 C.2        1 BB1          0.0000
    10 O10       -0.3457   -21.0251    11.4190 O.2        1 BB1          0.0000
    11 O11        0.5122   -19.4919    12.7749 O.3        1 BB1          0.0000
    12 C12        0.4953   -20.4562    13.8604 C.3        1 BB1          0.0000
    13 C13        1.3694   -21.6561    13.4903 C.3        1 BB1          0.0000
    14 C14        1.0390   -19.8020    15.1321 C.3        1 BB1          0.0000
    15 C15       -0.9404   -20.9264    14.1025 C.3        1 BB1          0.0000
    16 H16       -0.7697   -14.9345    12.9566 H          1 BB1          0.0000
    17 H17        0.8244   -15.3709    12.2959 H          1 BB1          0.0000
    18 H18       -0.4874   -14.8739    11.2002 H          1 BB1          0.0000
    19 H19       -0.4058   -17.4109    12.8942 H          1 BB1          0.0000
    20 H20       -1.7847   -16.9009    11.8910 H          1 BB1          0.0000
    21 H21        1.0389   -17.3816    10.8299 H          1 BB1          0.0000
    22 H22       -1.5486   -16.3727     9.6648 H          1 BB1          0.0000
    23 H23       -1.4595   -17.8290     7.7463 H          1 BB1          0.0000
    24 H24        0.2629   -18.2456     8.0367 H          1 BB1          0.0000
    25 H25       -2.2083   -19.1208     9.6307 H          1 BB1          0.0000
    26 H26       -0.8613   -20.1344     9.0280 H          1 BB1          0.0000
    27 H27        2.3922   -21.3211    13.3177 H          1 BB1          0.0000
    28 H28        1.3568   -22.3799    14.3051 H          1 BB1          0.0000
    29 H29        0.9820   -22.1221    12.5843 H          1 BB1          0.0000
    30 H30        0.4162   -18.9472    15.3958 H          1 BB1          0.0000
    31 H31        1.0263   -20.5259    15.9469 H          1 BB1          0.0000
    32 H32        2.0618   -19.4670    14.9596 H          1 BB1          0.0000
    33 H33       -1.3278   -21.3924    13.1964 H          1 BB1          0.0000
    34 H34       -0.9530   -21.6503    14.9173 H          1 BB1          0.0000
    35 H35       -1.5632   -20.0716    14.3661 H          1 BB1          0.0000
    36 H38        0.1830   -15.6397     8.0138 H          1 BB1          0.0000
    37 C1         0.5107   -16.0504     7.4434 C.3        2 BB2          0.0000
    38 C2         1.1905   -14.6798     7.4534 C.3        2 BB2          0.0000
    39 C3         0.1492   -13.5961     7.7405 C.3        2 BB2          0.0000
    40 C4         0.8083   -12.1917     7.7560 C.3        2 BB2          0.0000
    41 C5        -0.1535   -11.4070     8.6827 C.3        2 BB2          0.0000
    42 N6        -0.5565   -12.3771     9.7170 N.am       2 BB2          0.0000
    43 C7        -0.4021   -13.7352     9.1752 C.3        2 BB2          0.0000
    44 C8         0.5670   -14.5181    10.0231 C.2        2 BB2          0.0000
    45 O10        0.1863   -15.5037    10.6315 O.2        2 BB2          0.0000
    46 C11       -0.9933   -12.0700    10.9545 C.2        2 BB2          0.0000
    47 O12       -1.2986   -12.9542    11.7265 O.2        2 BB2          0.0000
    48 C13       -1.1025   -10.6282    11.3788 C.3        2 BB2          0.0000
    49 H14        1.2525   -16.8223     7.2388 H          2 BB2          0.0000
    50 H15        0.0520   -16.2355     8.4147 H          2 BB2          0.0000
    51 H16       -0.2567   -16.0697     6.6695 H          2 BB2          0.0000
    52 H17        1.9579   -14.6604     8.2271 H          2 BB2          0.0000
    53 H18        1.6492   -14.4945     6.4821 H          2 BB2          0.0000
    54 H19       -0.6578   -13.6353     7.0089 H          2 BB2          0.0000
    55 H20        1.8112   -12.2354     8.1810 H          2 BB2          0.0000
    56 H21        0.8280   -11.7582     6.7561 H          2 BB2          0.0000
    57 H22        0.3629   -10.5611     9.1366 H          2 BB2          0.0000
    58 H23       -1.0244   -11.0651     8.1234 H          2 BB2          0.0000
    59 H24       -1.3690   -14.2378     9.1537 H          2 BB2          0.0000
    60 H25       -0.7871    -9.9832    10.5586 H          2 BB2          0.0000
    61 H26       -2.1365   -10.4037    11.6406 H          2 BB2          0.0000
    62 H27       -0.4627   -10.4547    12.2442 H          2 BB2          0.0000
@<TRIPOS>BOND
     1      1      2 1
     2      1     16 1
     3      1     17 1
     4      1     18 1
     5      2      3 1
     6      2     19 1
     7      2     20 1
     8      3      4 1
     9      3      8 1
    10      3     21 1
    11      4      5 1
    12      4      6 1
    13      4     22 1
    14      5     36 1
    15      6      7 1
    16      6     23 1
    17      6     24 1
    18      7      8 1
    19      7     25 1
    20      7     26 1
    21      8      9 am
    22      9     10 2
    23      9     11 1
    24     11     12 1
    25     12     13 1
    26     12     14 1
    27     12     15 1
    28     13     27 1
    29     13     28 1
    30     13     29 1
    31     14     30 1
    32     14     31 1
    33     14     32 1
    34     15     33 1
    35     15     34 1
    36     15     35 1
    37     37     38 1
    38     37     49 1
    39     37     50 1
    40     37     51 1
    41     38     39 1
    42     38     52 1
    43     38     53 1
    44     39     40 1
    45     39     43 1
    46     39     54 1
    47     40     41 1
    48     40     55 1
    49     40     56 1
    50     41     42 1
    51     41     57 1
    52     41     58 1
    53     42     43 1
    54     42     46 am
    55     43     44 1
    56     43     59 1
    57     44     45 2
    58     46     47 2
    59     46     48 1
    60     48     60 1
    61     48     61 1
    62     48     62 1
    63      5     44 am
@<TRIPOS>SUBSTRUCTURE
     1 BB1           5
     2 BB2          44
@<TRIPOS>MOLECULE
EN300-312564_i001_EN300-4287209_i001_10_2_1
  51   52   2   0   0
SMALL
USER_CHARGES
@<TRIPOS>ATOM
     1 C1        -0.2511   -15.4058    12.1218 C.3        1 BB1          0.0000
     2 C2        -0.7009   -16.8631    11.9993 C.3        1 BB1          0.0000
     3 C3        -0.0433   -17.4983    10.7724 C.3        1 BB1          0.0000
     4 C4        -0.5756   -16.8307     9.4869 C.3        1 BB1          0.0000
     5 N5         0.3809   -15.8359     8.9835 N.am       1 BB1          0.0000
     6 C6        -0.6977   -18.0227     8.5013 C.3        1 BB1          0.0000
     7 C7        -1.1344   -19.1671     9.4497 C.3        1 BB1          0.0000
     8 N8        -0.3923   -18.9247    10.7003 N.am       1 BB1          0.0000
     9 C9        -0.0845   -19.8564    11.6243 C.2        1 BB1          0.0000
    10 O10       -0.3457   -21.0251    11.4190 O.2        1 BB1          0.0000
    11 O11        0.5122   -19.4919    12.7749 O.3        1 BB1          0.0000
    12 C12        0.4953   -20.4562    13.8604 C.3        1 BB1          0.0000
    13 C13        1.3694   -21.6561    13.4903 C.3        1 BB1          0.0000
    14 C14        1.0390   -19.8020    15.1321 C.3        1 BB1          0.0000
    15 C15       -0.9404   -20.9264    14.1025 C.3        1 BB1          0.0000
    16 H16       -0.7697   -14.9345    12.9566 H          1 BB1          0.0000
    17 H17        0.8244   -15.3709    12.2959 H          1 BB1          0.0000
    18 H18       -0.4874   -14.8739    11.2002 H          1 BB1          0.0000
    19 H19       -0.4058   -17.4109    12.8942 H          1 BB1          0.0000
    20 H20       -1.7847   -16.9009    11.8910 H          1 BB1          0.0000
    21 H21        1.0389   -17.3816    10.8299 H          1 BB1          0.0000
    22 H22       -1.5486   -16.3727     9.6648 H          1 BB1          0.0000
    23 H23       -1.4595   -17.8290     7.7463 H          1 BB1          0.0000
    24 H24        0.2629   -18.2456     8.0367 H          1 BB1          0.0000
    25 H25       -2.2083   -19.1208     9.6307 H          1 BB1          0.0000
    26 H26       -0.8613   -20.1344     9.0280 H          1 BB1          0.0000
    27 H27        2.3922   -21.3211    13.3177 H          1 BB1          0.0000
    28 H28        1.3568   -22.3799    14.3051 H          1 BB1          0.0000
    29 H29        0.9820   -22.1221    12.5843 H          1 BB1          0.0000
    30 H30        0.4162   -18.9472    15.3958 H          1 BB1          0.0000
    31 H31        1.0263   -20.5259    15.9469 H          1 BB1          0.0000
    32 H32        2.0618   -19.4670    14.9596 H          1 BB1          0.0000
    33 H33       -1.3278   -21.3924    13.1964 H          1 BB1          0.0000
    34 H34       -0.9530   -21.6503    14.9173 H          1 BB1          0.0000
    35 H35       -1.5632   -20.0716    14.3661 H          1 BB1          0.0000
    36 H36        0.2978   -14.9868     9.5223 H          1 BB1          0.0000
    37 C2         0.6358   -13.1615     7.9568 C.2        2 BB2          0.0000
    38 O3         0.6077   -12.4595     6.9558 O.2        2 BB2          0.0000
    39 C4        -0.2521   -12.8588     9.0949 C.ar       2 BB2          0.0000
    40 C5        -1.2691   -11.9141     8.9568 C.ar       2 BB2          0.0000
    41 C6        -2.1029   -11.6350    10.0364 C.ar       2 BB2          0.0000
    42 C7        -3.1496   -10.6671     9.9025 C.1        2 BB2          0.0000
    43 C8        -4.0078    -9.8735     9.7928 C.1        2 BB2          0.0000
    44 C9        -1.9172   -12.3011    11.2500 C.ar       2 BB2          0.0000
    45 C10       -0.9092   -13.2349    11.3827 C.ar       2 BB2          0.0000
    46 C11       -0.0804   -13.5227    10.3150 C.ar       2 BB2          0.0000
    47 Cl12       1.1844   -14.6986    10.4916 Cl         2 BB2          0.0000
    48 H13       -1.4091   -11.4012     8.0167 H          2 BB2          0.0000
    49 H14       -4.7753    -9.1638     9.6945 H          2 BB2          0.0000
    50 H15       -2.5641   -12.0845    12.0873 H          2 BB2          0.0000
    51 H16       -0.7706   -13.7462    12.3238 H          2 BB2          0.0000
@<TRIPOS>BOND
     1      1      2 1
     2      1     16 1
     3      1     17 1
     4      1     18 1
     5      2      3 1
     6      2     19 1
     7      2     20 1
     8      3      4 1
     9      3      8 1
    10      3     21 1
    11      4      5 1
    12      4      6 1
    13      4     22 1
    14      5     36 1
    15      6      7 1
    16      6     23 1
    17      6     24 1
    18      7      8 1
    19      7     25 1
    20      7     26 1
    21      8      9 am
    22      9     10 2
    23      9     11 1
    24     11     12 1
    25     12     13 1
    26     12     14 1
    27     12     15 1
    28     13     27 1
    29     13     28 1
    30     13     29 1
    31     14     30 1
    32     14     31 1
    33     14     32 1
    34     15     33 1
    35     15     34 1
    36     15     35 1
    37     37     38 2
    38     37     39 1
    39     39     40 ar
    40     39     46 ar
    41     40     41 ar
    42     40     48 1
    43     41     42 1
    44     41     44 ar
    45     42     43 3
    46     43     49 1
    47     44     45 ar
    48     44     50 1
    49     45     46 ar
    50     45     51 1
    51     46     47 1
    52      5     37 am
@<TRIPOS>SUBSTRUCTURE
     1 BB1           5
     2 BB2          37
@<TRIPOS>MOLECULE
EN300-312564_i001_EN300-4287209_i001_10_3_1
  51   52   2   0   0
SMALL
USER_CHARGES
@<TRIPOS>ATOM
     1 C1        -0.2511   -15.4058    12.1218 C.3        1 BB1          0.0000
     2 C2        -0.7009   -16.8631    11.9993 C.3        1 BB1          0.0000
     3 C3        -0.0433   -17.4983    10.7724 C.3        1 BB1          0.0000
     4 C4        -0.5756   -16.8307     9.4869 C.3        1 BB1          0.0000
     5 N5         0.3809   -15.8359     8.9835 N.am       1 BB1          0.0000
     6 C6        -0.6977   -18.0227     8.5013 C.3        1 BB1          0.0000
     7 C7        -1.1344   -19.1671     9.4497 C.3        1 BB1          0.0000
     8 N8        -0.3923   -18.9247    10.7003 N.am       1 BB1          0.0000
     9 C9        -0.0845   -19.8564    11.6243 C.2        1 BB1          0.0000
    10 O10       -0.3457   -21.0251    11.4190 O.2        1 BB1          0.0000
    11 O11        0.5122   -19.4919    12.7749 O.3        1 BB1          0.0000
    12 C12        0.4953   -20.4562    13.8604 C.3        1 BB1          0.0000
    13 C13        1.3694   -21.6561    13.4903 C.3        1 BB1          0.0000
    14 C14        1.0390   -19.8020    15.1321 C.3        1 BB1          0.0000
    15 C15       -0.9404   -20.9264    14.1025 C.3        1 BB1          0.0000
    16 H16       -0.7697   -14.9345    12.9566 H          1 BB1          0.0000
    17 H17        0.8244   -15.3709    12.2959 H          1 BB1          0.0000
    18 H18       -0.4874   -14.8739    11.2002 H          1 BB1          0.0000
    19 H19       -0.4058   -17.4109    12.8942 H          1 BB1          0.0000
    20 H20       -1.7847   -16.9009    11.8910 H          1 BB1          0.0000
    21 H21        1.0389   -17.3816    10.8299 H          1 BB1          0.0000
    22 H22       -1.5486   -16.3727     9.6648 H          1 BB1          0.0000
    23 H23       -1.4595   -17.8290     7.7463 H          1 BB1          0.0000
    24 H24        0.2629   -18.2456     8.0367 H          1 BB1          0.0000
    25 H25       -2.2083   -19.1208     9.6307 H          1 BB1          0.0000
    26 H26       -0.8613   -20.1344     9.0280 H          1 BB1          0.0000
    27 H27        2.3922   -21.3211    13.3177 H          1 BB1          0.0000
    28 H28        1.3568   -22.3799    14.3051 H          1 BB1          0.0000
    29 H29        0.9820   -22.1221    12.5843 H          1 BB1          0.0000
    30 H30        0.4162   -18.9472    15.3958 H          1 BB1          0.0000
    31 H31        1.0263   -20.5259    15.9469 H          1 BB1          0.0000
    32 H32        2.0618   -19.4670    14.9596 H          1 BB1          0.0000
    33 H33       -1.3278   -21.3924    13.1964 H          1 BB1          0.0000
    34 H34       -0.9530   -21.6503    14.9173 H          1 BB1          0.0000
    35 H35       -1.5632   -20.0716    14.3661 H          1 BB1          0.0000
    36 H38        0.1830   -15.6397     8.0138 H          1 BB1          0.0000
    37 O1         0.9022   -15.2848    11.2052 O.2        2 BB2          0.0000
    38 C2        -0.0043   -14.5201    11.5040 C.2        2 BB2          0.0000
    39 C4        -0.4017   -13.4480    10.5724 C.ar       2 BB2          0.0000
    40 C5        -1.5033   -12.6425    10.8617 C.ar       2 BB2          0.0000
    41 C6        -1.8709   -11.6325     9.9767 C.ar       2 BB2          0.0000
    42 C7        -3.0001   -10.8010    10.2667 C.1        2 BB2          0.0000
    43 C8        -3.9259   -10.1193    10.5044 C.1        2 BB2          0.0000
    44 C9        -1.1364   -11.4311     8.8058 C.ar       2 BB2          0.0000
    45 C10       -0.0472   -12.2308     8.5230 C.ar       2 BB2          0.0000
    46 C11        0.3287   -13.2319     9.3982 C.ar       2 BB2          0.0000
    47 Cl12       1.6998   -14.2324     9.0338 Cl         2 BB2          0.0000
    48 H13       -2.0687   -12.8018    11.7680 H          2 BB2          0.0000
    49 H14       -4.7538    -9.5095    10.7170 H          2 BB2          0.0000
    50 H15       -1.4217   -10.6476     8.1195 H          2 BB2          0.0000
    51 H16        0.5164   -12.0702     7.6158 H          2 BB2          0.0000
@<TRIPOS>BOND
     1      1      2 1
     2      1     16 1
     3      1     17 1
     4      1     18 1
     5      2      3 1
     6      2     19 1
     7      2     20 1
     8      3      4 1
     9      3      8 1
    10      3     21 1
    11      4      5 1
    12      4      6 1
    13      4     22 1
    14      5     36 1
    15      6      7 1
    16      6     23 1
    17      6     24 1
    18      7      8 1
    19      7     25 1
    20      7     26 1
    21      8      9 am
    22      9     10 2
    23      9     11 1
    24     11     12 1
    25     12     13 1
    26     12     14 1
    27     12     15 1
    28     13     27 1
    29     13     28 1
    30     13     29 1
    31     14     30 1
    32     14     31 1
    33     14     32 1
    34     15     33 1
    35     15     34 1
    36     15     35 1
    37     37     38 2
    38     38     39 1
    39     39     40 ar
    40     39     46 ar
    41     40     41 ar
    42     40     48 1
    43     41     42 1
    44     41     44 ar
    45     42     43 3
    46     43     49 1
    47     44     45 ar
    48     44     50 1
    49     45     46 ar
    50     45     51 1
    51     46     47 1
    52      5     38 am
@<TRIPOS>SUBSTRUCTURE
     1 BB1           5
     2 BB2          38
@<TRIPOS>MOLECULE
EN300-312564_i001_EN300-19857_i001_10_20_1
  49   50   2   0   0
SMALL
USER_CHARGES
@<TRIPOS>ATOM
     1 C1        -0.2511   -15.4058    12.1218 C.3        1 BB1          0.0000
     2 C2        -0.7009   -16.8631    11.9993 C.3        1 BB1          0.0000
     3 C3        -0.0433   -17.4983    10.7724 C.3        1 BB1          0.0000
     4 C4        -0.5756   -16.8307     9.4869 C.3        1 BB1          0.0000
     5 N5         0.3809   -15.8359     8.9835 N.am       1 BB1          0.0000
     6 C6        -0.6977   -18.0227     8.5013 C.3        1 BB1          0.0000
     7 C7        -1.1344   -19.1671     9.4497 C.3        1 BB1          0.0000
     8 N8        -0.3923   -18.9247    10.7003 N.am       1 BB1          0.0000
     9 C9        -0.0845   -19.8564    11.6243 C.2        1 BB1          0.0000
    10 O10       -0.3457   -21.0251    11.4190 O.2        1 BB1          0.0000
    11 O11        0.5122   -19.4919    12.7749 O.3        1 BB1          0.0000
    12 C12        0.4953   -20.4562    13.8604 C.3        1 BB1          0.0000
    13 C13        1.3694   -21.6561    13.4903 C.3        1 BB1          0.0000
    14 C14        1.0390   -19.8020    15.1321 C.3        1 BB1          0.0000
    15 C15       -0.9404   -20.9264    14.1025 C.3        1 BB1          0.0000
    16 H16       -0.7697   -14.9345    12.9566 H          1 BB1          0.0000
    17 H17        0.8244   -15.3709    12.2959 H          1 BB1          0.0000
    18 H18       -0.4874   -14.8739    11.2002 H          1 BB1          0.0000
    19 H19       -0.4058   -17.4109    12.8942 H          1 BB1          0.0000
    20 H20       -1.7847   -16.9009    11.8910 H          1 BB1          0.0000
    21 H21        1.0389   -17.3816    10.8299 H          1 BB1          0.0000
    22 H22       -1.5486   -16.3727     9.6648 H          1 BB1          0.0000
    23 H23       -1.4595   -17.8290     7.7463 H          1 BB1          0.0000
    24 H24        0.2629   -18.2456     8.0367 H          1 BB1          0.0000
    25 H25       -2.2083   -19.1208     9.6307 H          1 BB1          0.0000
    26 H26       -0.8613   -20.1344     9.0280 H          1 BB1          0.0000
    27 H27        2.3922   -21.3211    13.3177 H          1 BB1          0.0000
    28 H28        1.3568   -22.3799    14.3051 H          1 BB1          0.0000
    29 H29        0.9820   -22.1221    12.5843 H          1 BB1          0.0000
    30 H30        0.4162   -18.9472    15.3958 H          1 BB1          0.0000
    31 H31        1.0263   -20.5259    15.9469 H          1 BB1          0.0000
    32 H32        2.0618   -19.4670    14.9596 H          1 BB1          0.0000
    33 H33       -1.3278   -21.3924    13.1964 H          1 BB1          0.0000
    34 H34       -0.9530   -21.6503    14.9173 H          1 BB1          0.0000
    35 H35       -1.5632   -20.0716    14.3661 H          1 BB1          0.0000
    36 H38        0.1830   -15.6397     8.0138 H          1 BB1          0.0000
    37 C2        -0.0612   -14.3703    11.2846 C.2        2 BB2          0.0000
    38 O3         0.9101   -15.0078    10.9027 O.2        2 BB2          0.0000
    39 C4        -0.4899   -13.1665    10.5471 C.ar       2 BB2          0.0000
    40 C5         0.2870   -12.6738     9.4958 C.ar       2 BB2          0.0000
    41 C6        -0.1195   -11.5478     8.8104 C.ar       2 BB2          0.0000
    42 C7        -1.2938   -10.9062     9.1618 C.ar       2 BB2          0.0000
    43 C8        -2.0692   -11.3882    10.2031 C.ar       2 BB2          0.0000
    44 Br9       -3.6723   -10.5028    10.6742 Br         2 BB2          0.0000
    45 C10       -1.6778   -12.5173    10.8933 C.ar       2 BB2          0.0000
    46 H11        1.2041   -13.1732     9.2205 H          2 BB2          0.0000
    47 H12        0.4805   -11.1659     7.9978 H          2 BB2          0.0000
    48 H13       -1.6071   -10.0250     8.6216 H          2 BB2          0.0000
    49 H14       -2.2830   -12.8926    11.7053 H          2 BB2          0.0000
@<TRIPOS>BOND
     1      1      2 1
     2      1     16 1
     3      1     17 1
     4      1     18 1
     5      2      3 1
     6      2     19 1
     7      2     20 1
     8      3      4 1
     9      3      8 1
    10      3     21 1
    11      4      5 1
    12      4      6 1
    13      4     22 1
    14      5     36 1
    15      6      7 1
    16      6     23 1
    17      6     24 1
    18      7      8 1
    19      7     25 1
    20      7     26 1
    21      8      9 am
    22      9     10 2
    23      9     11 1
    24     11     12 1
    25     12     13 1
    26     12     14 1
    27     12     15 1
    28     13     27 1
    29     13     28 1
    30     13     29 1
    31     14     30 1
    32     14     31 1
    33     14     32 1
    34     15     33 1
    35     15     34 1
    36     15     35 1
    37     37     38 2
    38     37     39 1
    39     39     40 ar
    40     39     45 ar
    41     40     41 ar
    42     40     46 1
    43     41     42 ar
    44     41     47 1
    45     42     43 ar
    46     42     48 1
    47     43     44 1
    48     43     45 ar
    49     45     49 1
    50      5     37 am
@<TRIPOS>SUBSTRUCTURE
     1 BB1           5
     2 BB2          37
@<TRIPOS>MOLECULE
EN300-312564_i001_EN300-19857_i001_10_5_1
  49   50   2   0   0
SMALL
USER_CHARGES
@<TRIPOS>ATOM
     1 C1        -0.2511   -15.4058    12.1218 C.3        1 BB1          0.0000
     2 C2        -0.7009   -16.8631    11.9993 C.3        1 BB1          0.0000
     3 C3        -0.0433   -17.4983    10.7724 C.3        1 BB1          0.0000
     4 C4        -0.5756   -16.8307     9.4869 C.3        1 BB1          0.0000
     5 N5         0.3809   -15.8359     8.9835 N.am       1 BB1          0.0000
     6 C6        -0.6977   -18.0227     8.5013 C.3        1 BB1          0.0000
     7 C7        -1.1344   -19.1671     9.4497 C.3        1 BB1          0.0000
     8 N8        -0.3923   -18.9247    10.7003 N.am       1 BB1          0.0000
     9 C9        -0.0845   -19.8564    11.6243 C.2        1 BB1          0.0000
    10 O10       -0.3457   -21.0251    11.4190 O.2        1 BB1          0.0000
    11 O11        0.5122   -19.4919    12.7749 O.3        1 BB1          0.0000
    12 C12        0.4953   -20.4562    13.8604 C.3        1 BB1          0.0000
    13 C13        1.3694   -21.6561    13.4903 C.3        1 BB1          0.0000
    14 C14        1.0390   -19.8020    15.1321 C.3        1 BB1          0.0000
    15 C15       -0.9404   -20.9264    14.1025 C.3        1 BB1          0.0000
    16 H16       -0.7697   -14.9345    12.9566 H          1 BB1          0.0000
    17 H17        0.8244   -15.3709    12.2959 H          1 BB1          0.0000
    18 H18       -0.4874   -14.8739    11.2002 H          1 BB1          0.0000
    19 H19       -0.4058   -17.4109    12.8942 H          1 BB1          0.0000
    20 H20       -1.7847   -16.9009    11.8910 H          1 BB1          0.0000
    21 H21        1.0389   -17.3816    10.8299 H          1 BB1          0.0000
    22 H22       -1.5486   -16.3727     9.6648 H          1 BB1          0.0000
    23 H23       -1.4595   -17.8290     7.7463 H          1 BB1          0.0000
    24 H24        0.2629   -18.2456     8.0367 H          1 BB1          0.0000
    25 H25       -2.2083   -19.1208     9.6307 H          1 BB1          0.0000
    26 H26       -0.8613   -20.1344     9.0280 H          1 BB1          0.0000
    27 H27        2.3922   -21.3211    13.3177 H          1 BB1          0.0000
    28 H28        1.3568   -22.3799    14.3051 H          1 BB1          0.0000
    29 H29        0.9820   -22.1221    12.5843 H          1 BB1          0.0000
    30 H30        0.4162   -18.9472    15.3958 H          1 BB1          0.0000
    31 H31        1.0263   -20.5259    15.9469 H          1 BB1          0.0000
    32 H32        2.0618   -19.4670    14.9596 H          1 BB1          0.0000
    33 H33       -1.3278   -21.3924    13.1964 H          1 BB1          0.0000
    34 H34       -0.9530   -21.6503    14.9173 H          1 BB1          0.0000
    35 H35       -1.5632   -20.0716    14.3661 H          1 BB1          0.0000
    36 H36        0.2978   -14.9868     9.5223 H          1 BB1          0.0000
    37 O1         1.2568   -14.8972     7.3903 O.2        2 BB2          0.0000
    38 C2         0.7697   -13.7841     7.5294 C.2        2 BB2          0.0000
    39 C4         0.0930   -13.4275     8.7910 C.ar       2 BB2          0.0000
    40 C5         0.2332   -14.2421     9.9171 C.ar       2 BB2          0.0000
    41 C6        -0.4024   -13.9029    11.0936 C.ar       2 BB2          0.0000
    42 C7        -1.1774   -12.7589    11.1602 C.ar       2 BB2          0.0000
    43 C8        -1.3217   -11.9465    10.0480 C.ar       2 BB2          0.0000
    44 Br9       -2.3836   -10.3852    10.1512 Br         2 BB2          0.0000
    45 C10       -0.6866   -12.2703     8.8664 C.ar       2 BB2          0.0000
    46 H11        0.8375   -15.1357     9.8667 H          2 BB2          0.0000
    47 H12       -0.2949   -14.5322    11.9647 H          2 BB2          0.0000
    48 H13       -1.6726   -12.4983    12.0840 H          2 BB2          0.0000
    49 H14       -0.7996   -11.6362     7.9995 H          2 BB2          0.0000
@<TRIPOS>BOND
     1      1      2 1
     2      1     16 1
     3      1     17 1
     4      1     18 1
     5      2      3 1
     6      2     19 1
     7      2     20 1
     8      3      4 1
     9      3      8 1
    10      3     21 1
    11      4      5 1
    12      4      6 1
    13      4     22 1
    14      5     36 1
    15      6      7 1
    16      6     23 1
    17      6     24 1
    18      7      8 1
    19      7     25 1
    20      7     26 1
    21      8      9 am
    22      9     10 2
    23      9     11 1
    24     11     12 1
    25     12     13 1
    26     12     14 1
    27     12     15 1
    28     13     27 1
    29     13     28 1
    30     13     29 1
    31     14     30 1
    32     14     31 1
    33     14     32 1
    34     15     33 1
    35     15     34 1
    36     15     35 1
    37     37     38 2
    38     38     39 1
    39     39     40 ar
    40     39     45 ar
    41     40     41 ar
    42     40     46 1
    43     41     42 ar
    44     41     47 1
    45     42     43 ar
    46     42     48 1
    47     43     44 1
    48     43     45 ar
    49     45     49 1
    50      5     38 am
@<TRIPOS>SUBSTRUCTURE
     1 BB1           5
     2 BB2          38
@<TRIPOS>MOLECULE
EN300-312564_i001_EN300-222254_i002_10_2_1
  59   61   2   0   0
SMALL
USER_CHARGES
@<TRIPOS>ATOM
     1 C1        -0.2511   -15.4058    12.1218 C.3        1 BB1          0.0000
     2 C2        -0.7009   -16.8631    11.9993 C.3        1 BB1          0.0000
     3 C3        -0.0433   -17.4983    10.7724 C.3        1 BB1          0.0000
     4 C4        -0.5756   -16.8307     9.4869 C.3        1 BB1          0.0000
     5 N5         0.3809   -15.8359     8.9835 N.am       1 BB1          0.0000
     6 C6        -0.6977   -18.0227     8.5013 C.3        1 BB1          0.0000
     7 C7        -1.1344   -19.1671     9.4497 C.3        1 BB1          0.0000
     8 N8        -0.3923   -18.9247    10.7003 N.am       1 BB1          0.0000
     9 C9        -0.0845   -19.8564    11.6243 C.2        1 BB1          0.0000
    10 O10       -0.3457   -21.0251    11.4190 O.2        1 BB1          0.0000
    11 O11        0.5122   -19.4919    12.7749 O.3        1 BB1          0.0000
    12 C12        0.4953   -20.4562    13.8604 C.3        1 BB1          0.0000
    13 C13        1.3694   -21.6561    13.4903 C.3        1 BB1          0.0000
    14 C14        1.0390   -19.8020    15.1321 C.3        1 BB1          0.0000
    15 C15       -0.9404   -20.9264    14.1025 C.3        1 BB1          0.0000
    16 H16       -0.7697   -14.9345    12.9566 H          1 BB1          0.0000
    17 H17        0.8244   -15.3709    12.2959 H          1 BB1          0.0000
    18 H18       -0.4874   -14.8739    11.2002 H          1 BB1          0.0000
    19 H19       -0.4058   -17.4109    12.8942 H          1 BB1          0.0000
    20 H20       -1.7847   -16.9009    11.8910 H          1 BB1          0.0000
    21 H21        1.0389   -17.3816    10.8299 H          1 BB1          0.0000
    22 H22       -1.5486   -16.3727     9.6648 H          1 BB1          0.0000
    23 H23       -1.4595   -17.8290     7.7463 H          1 BB1          0.0000
    24 H24        0.2629   -18.2456     8.0367 H          1 BB1          0.0000
    25 H25       -2.2083   -19.1208     9.6307 H          1 BB1          0.0000
    26 H26       -0.8613   -20.1344     9.0280 H          1 BB1          0.0000
    27 H27        2.3922   -21.3211    13.3177 H          1 BB1          0.0000
    28 H28        1.3568   -22.3799    14.3051 H          1 BB1          0.0000
    29 H29        0.9820   -22.1221    12.5843 H          1 BB1          0.0000
    30 H30        0.4162   -18.9472    15.3958 H          1 BB1          0.0000
    31 H31        1.0263   -20.5259    15.9469 H          1 BB1          0.0000
    32 H32        2.0618   -19.4670    14.9596 H          1 BB1          0.0000
    33 H33       -1.3278   -21.3924    13.1964 H          1 BB1          0.0000
    34 H34       -0.9530   -21.6503    14.9173 H          1 BB1          0.0000
    35 H35       -1.5632   -20.0716    14.3661 H          1 BB1          0.0000
    36 H38        0.1830   -15.6397     8.0138 H          1 BB1          0.0000
    37 C2         0.9056   -14.4125     9.5694 C.2        2 BB2          0.0000
    38 O3         0.2517   -15.1640    10.2725 O.2        2 BB2          0.0000
    39 C4         0.2107   -13.4978     8.5941 C.3        2 BB2          0.0000
    40 C5         1.0724   -13.1277     7.3753 C.3        2 BB2          0.0000
    41 C6         0.4992   -11.7063     7.5004 C.3        2 BB2          0.0000
    42 C7         0.2733   -12.0131     8.9902 C.3        2 BB2          0.0000
    43 C8        -1.0286   -11.4760     9.5265 C.ar       2 BB2          0.0000
    44 C9        -2.2281   -11.9528     9.0336 C.ar       2 BB2          0.0000
    45 C10       -3.4229   -11.4604     9.5246 C.ar       2 BB2          0.0000
    46 C11       -3.4190   -10.4900    10.5106 C.ar       2 BB2          0.0000
    47 Cl12      -4.9199    -9.8726    11.1270 Cl         2 BB2          0.0000
    48 C13       -2.2190   -10.0118    11.0056 C.ar       2 BB2          0.0000
    49 C14       -1.0228   -10.5087    10.5176 C.ar       2 BB2          0.0000
    50 F15        0.1498   -10.0429    11.0005 F          2 BB2          0.0000
    51 H16       -0.7908   -13.8395     8.3332 H          2 BB2          0.0000
    52 H17        2.1443   -13.1845     7.5649 H          2 BB2          0.0000
    53 H18        0.7759   -13.6390     6.4595 H          2 BB2          0.0000
    54 H19        1.2347   -10.9217     7.3228 H          2 BB2          0.0000
    55 H20       -0.4240   -11.5569     6.9405 H          2 BB2          0.0000
    56 H21        1.1267   -11.7652     9.6214 H          2 BB2          0.0000
    57 H22       -2.2323   -12.7105     8.2638 H          2 BB2          0.0000
    58 H23       -4.3600   -11.8332     9.1382 H          2 BB2          0.0000
    59 H24       -2.2155    -9.2542    11.7753 H          2 BB2          0.0000
@<TRIPOS>BOND
     1      1      2 1
     2      1     16 1
     3      1     17 1
     4      1     18 1
     5      2      3 1
     6      2     19 1
     7      2     20 1
     8      3      4 1
     9      3      8 1
    10      3     21 1
    11      4      5 1
    12      4      6 1
    13      4     22 1
    14      5     36 1
    15      6      7 1
    16      6     23 1
    17      6     24 1
    18      7      8 1
    19      7     25 1
    20      7     26 1
    21      8      9 am
    22      9     10 2
    23      9     11 1
    24     11     12 1
    25     12     13 1
    26     12     14 1
    27     12     15 1
    28     13     27 1
    29     13     28 1
    30     13     29 1
    31     14     30 1
    32     14     31 1
    33     14     32 1
    34     15     33 1
    35     15     34 1
    36     15     35 1
    37     37     38 2
    38     37     39 1
    39     39     40 1
    40     39     42 1
    41     39     51 1
    42     40     41 1
    43     40     52 1
    44     40     53 1
    45     41     42 1
    46     41     54 1
    47     41     55 1
    48     42     43 1
    49     42     56 1
    50     43     44 ar
    51     43     49 ar
    52     44     45 ar
    53     44     57 1
    54     45     46 ar
    55     45     58 1
    56     46     47 1
    57     46     48 ar
    58     48     49 ar
    59     48     59 1
    60     49     50 1
    61      5     37 am
@<TRIPOS>SUBSTRUCTURE
     1 BB1           5
     2 BB2          37
@<TRIPOS>MOLECULE
EN300-312564_i001_EN300-306118_i001_10_10_1
  58   60   2   0   0
SMALL
USER_CHARGES
@<TRIPOS>ATOM
     1 C1        -0.2511   -15.4058    12.1218 C.3        1 BB1          0.0000
     2 C2        -0.7009   -16.8631    11.9993 C.3        1 BB1          0.0000
     3 C3        -0.0433   -17.4983    10.7724 C.3        1 BB1          0.0000
     4 C4        -0.5756   -16.8307     9.4869 C.3        1 BB1          0.0000
     5 N5         0.3809   -15.8359     8.9835 N.am       1 BB1          0.0000
     6 C6        -0.6977   -18.0227     8.5013 C.3        1 BB1          0.0000
     7 C7        -1.1344   -19.1671     9.4497 C.3        1 BB1          0.0000
     8 N8        -0.3923   -18.9247    10.7003 N.am       1 BB1          0.0000
     9 C9        -0.0845   -19.8564    11.6243 C.2        1 BB1          0.0000
    10 O10       -0.3457   -21.0251    11.4190 O.2        1 BB1          0.0000
    11 O11        0.5122   -19.4919    12.7749 O.3        1 BB1          0.0000
    12 C12        0.4953   -20.4562    13.8604 C.3        1 BB1          0.0000
    13 C13        1.3694   -21.6561    13.4903 C.3        1 BB1          0.0000
    14 C14        1.0390   -19.8020    15.1321 C.3        1 BB1          0.0000
    15 C15       -0.9404   -20.9264    14.1025 C.3        1 BB1          0.0000
    16 H16       -0.7697   -14.9345    12.9566 H          1 BB1          0.0000
    17 H17        0.8244   -15.3709    12.2959 H          1 BB1          0.0000
    18 H18       -0.4874   -14.8739    11.2002 H          1 BB1          0.0000
    19 H19       -0.4058   -17.4109    12.8942 H          1 BB1          0.0000
    20 H20       -1.7847   -16.9009    11.8910 H          1 BB1          0.0000
    21 H21        1.0389   -17.3816    10.8299 H          1 BB1          0.0000
    22 H22       -1.5486   -16.3727     9.6648 H          1 BB1          0.0000
    23 H23       -1.4595   -17.8290     7.7463 H          1 BB1          0.0000
    24 H24        0.2629   -18.2456     8.0367 H          1 BB1          0.0000
    25 H25       -2.2083   -19.1208     9.6307 H          1 BB1          0.0000
    26 H26       -0.8613   -20.1344     9.0280 H          1 BB1          0.0000
    27 H27        2.3922   -21.3211    13.3177 H          1 BB1          0.0000
    28 H28        1.3568   -22.3799    14.3051 H          1 BB1          0.0000
    29 H29        0.9820   -22.1221    12.5843 H          1 BB1          0.0000
    30 H30        0.4162   -18.9472    15.3958 H          1 BB1          0.0000
    31 H31        1.0263   -20.5259    15.9469 H          1 BB1          0.0000
    32 H32        2.0618   -19.4670    14.9596 H          1 BB1          0.0000
    33 H33       -1.3278   -21.3924    13.1964 H          1 BB1          0.0000
    34 H34       -0.9530   -21.6503    14.9173 H          1 BB1          0.0000
    35 H35       -1.5632   -20.0716    14.3661 H          1 BB1          0.0000
    36 H38        0.1830   -15.6397     8.0138 H          1 BB1          0.0000
    37 C2         0.1195   -14.4038    10.7566 C.2        2 BB2          0.0000
    38 O3         0.6856   -15.3919    11.2023 O.2        2 BB2          0.0000
    39 C4         0.4114   -13.9416     9.3863 C.ar       2 BB2          0.0000
    40 C5         0.5717   -14.8674     8.3525 C.ar       2 BB2          0.0000
    41 C6         0.8445   -14.4280     7.0737 C.ar       2 BB2          0.0000
    42 C7         0.9599   -13.0739     6.8139 C.ar       2 BB2          0.0000
    43 C8         0.8024   -12.1509     7.8331 C.ar       2 BB2          0.0000
    44 C9         0.5231   -12.5754     9.1151 C.ar       2 BB2          0.0000
    45 C10        0.3514   -11.5687    10.2234 C.3        2 BB2          0.0000
    46 N11       -1.0436   -11.1231    10.2665 N.pl3      2 BB2          0.0000
    47 C12       -1.4690    -9.8410    10.1885 C.2        2 BB2          0.0000
    48 C13       -2.8194    -9.8863    10.2682 C.2        2 BB2          0.0000
    49 N14       -3.1497   -11.1769    10.3896 N.2        2 BB2          0.0000
    50 N15       -2.0753   -11.8843    10.3797 N.2        2 BB2          0.0000
    51 H16        0.4826   -15.9247     8.5541 H          2 BB2          0.0000
    52 H17        0.9688   -15.1425     6.2735 H          2 BB2          0.0000
    53 H18        1.1744   -12.7356     5.8108 H          2 BB2          0.0000
    54 H19        0.8941   -11.0955     7.6231 H          2 BB2          0.0000
    55 H20        0.6156   -12.0283    11.1758 H          2 BB2          0.0000
    56 H21        1.0008   -10.7127    10.0405 H          2 BB2          0.0000
    57 H22       -0.8546    -8.9590    10.0839 H          2 BB2          0.0000
    58 H23       -3.4970    -9.0458    10.2398 H          2 BB2          0.0000
@<TRIPOS>BOND
     1      1      2 1
     2      1     16 1
     3      1     17 1
     4      1     18 1
     5      2      3 1
     6      2     19 1
     7      2     20 1
     8      3      4 1
     9      3      8 1
    10      3     21 1
    11      4      5 1
    12      4      6 1
    13      4     22 1
    14      5     36 1
    15      6      7 1
    16      6     23 1
    17      6     24 1
    18      7      8 1
    19      7     25 1
    20      7     26 1
    21      8      9 am
    22      9     10 2
    23      9     11 1
    24     11     12 1
    25     12     13 1
    26     12     14 1
    27     12     15 1
    28     13     27 1
    29     13     28 1
    30     13     29 1
    31     14     30 1
    32     14     31 1
    33     14     32 1
    34     15     33 1
    35     15     34 1
    36     15     35 1
    37     37     38 2
    38     37     39 1
    39     39     40 ar
    40     39     44 ar
    41     40     41 ar
    42     40     51 1
    43     41     42 ar
    44     41     52 1
    45     42     43 ar
    46     42     53 1
    47     43     44 ar
    48     43     54 1
    49     44     45 1
    50     45     46 1
    51     45     55 1
    52     45     56 1
    53     46     47 1
    54     46     50 1
    55     47     48 2
    56     47     57 1
    57     48     49 1
    58     48     58 1
    59     49     50 2
    60      5     37 am
@<TRIPOS>SUBSTRUCTURE
     1 BB1           5
     2 BB2          37
@<TRIPOS>MOLECULE
EN300-312564_i001_EN300-306118_i001_10_13_1
  58   60   2   0   0
SMALL
USER_CHARGES
@<TRIPOS>ATOM
     1 C1        -0.2511   -15.4058    12.1218 C.3        1 BB1          0.0000
     2 C2        -0.7009   -16.8631    11.9993 C.3        1 BB1          0.0000
     3 C3        -0.0433   -17.4983    10.7724 C.3        1 BB1          0.0000
     4 C4        -0.5756   -16.8307     9.4869 C.3        1 BB1          0.0000
     5 N5         0.3809   -15.8359     8.9835 N.am       1 BB1          0.0000
     6 C6        -0.6977   -18.0227     8.5013 C.3        1 BB1          0.0000
     7 C7        -1.1344   -19.1671     9.4497 C.3        1 BB1          0.0000
     8 N8        -0.3923   -18.9247    10.7003 N.am       1 BB1          0.0000
     9 C9        -0.0845   -19.8564    11.6243 C.2        1 BB1          0.0000
    10 O10       -0.3457   -21.0251    11.4190 O.2        1 BB1          0.0000
    11 O11        0.5122   -19.4919    12.7749 O.3        1 BB1          0.0000
    12 C12        0.4953   -20.4562    13.8604 C.3        1 BB1          0.0000
    13 C13        1.3694   -21.6561    13.4903 C.3        1 BB1          0.0000
    14 C14        1.0390   -19.8020    15.1321 C.3        1 BB1          0.0000
    15 C15       -0.9404   -20.9264    14.1025 C.3        1 BB1          0.0000
    16 H16       -0.7697   -14.9345    12.9566 H          1 BB1          0.0000
    17 H17        0.8244   -15.3709    12.2959 H          1 BB1          0.0000
    18 H18       -0.4874   -14.8739    11.2002 H          1 BB1          0.0000
    19 H19       -0.4058   -17.4109    12.8942 H          1 BB1          0.0000
    20 H20       -1.7847   -16.9009    11.8910 H          1 BB1          0.0000
    21 H21        1.0389   -17.3816    10.8299 H          1 BB1          0.0000
    22 H22       -1.5486   -16.3727     9.6648 H          1 BB1          0.0000
    23 H23       -1.4595   -17.8290     7.7463 H          1 BB1          0.0000
    24 H24        0.2629   -18.2456     8.0367 H          1 BB1          0.0000
    25 H25       -2.2083   -19.1208     9.6307 H          1 BB1          0.0000
    26 H26       -0.8613   -20.1344     9.0280 H          1 BB1          0.0000
    27 H27        2.3922   -21.3211    13.3177 H          1 BB1          0.0000
    28 H28        1.3568   -22.3799    14.3051 H          1 BB1          0.0000
    29 H29        0.9820   -22.1221    12.5843 H          1 BB1          0.0000
    30 H30        0.4162   -18.9472    15.3958 H          1 BB1          0.0000
    31 H31        1.0263   -20.5259    15.9469 H          1 BB1          0.0000
    32 H32        2.0618   -19.4670    14.9596 H          1 BB1          0.0000
    33 H33       -1.3278   -21.3924    13.1964 H          1 BB1          0.0000
    34 H34       -0.9530   -21.6503    14.9173 H          1 BB1          0.0000
    35 H35       -1.5632   -20.0716    14.3661 H          1 BB1          0.0000
    36 H38        0.1830   -15.6397     8.0138 H          1 BB1          0.0000
    37 C2        -0.2542   -14.4147    11.0220 C.2        2 BB2          0.0000
    38 O3        -0.3346   -13.9939    12.1675 O.2        2 BB2          0.0000
    39 C4        -0.0888   -13.4717     9.8995 C.ar       2 BB2          0.0000
    40 C5         0.7755   -13.7793     8.8460 C.ar       2 BB2          0.0000
    41 C6         0.9252   -12.8927     7.7999 C.ar       2 BB2          0.0000
    42 C7         0.2221   -11.7011     7.7926 C.ar       2 BB2          0.0000
    43 C8        -0.6359   -11.3897     8.8329 C.ar       2 BB2          0.0000
    44 C9        -0.8003   -12.2692     9.8823 C.ar       2 BB2          0.0000
    45 C10       -1.7356   -11.9285    11.0138 C.3        2 BB2          0.0000
    46 N11       -2.8881   -11.1914    10.4898 N.pl3      2 BB2          0.0000
    47 C12       -3.9824   -11.7380     9.9113 C.2        2 BB2          0.0000
    48 C13       -4.7891   -10.7036     9.5780 C.2        2 BB2          0.0000
    49 N14       -4.1572    -9.5894     9.9637 N.2        2 BB2          0.0000
    50 N15       -3.0361    -9.9129    10.5053 N.2        2 BB2          0.0000
    51 H16        1.3254   -14.7088     8.8509 H          2 BB2          0.0000
    52 H17        1.5931   -13.1291     6.9848 H          2 BB2          0.0000
    53 H18        0.3438   -11.0104     6.9712 H          2 BB2          0.0000
    54 H19       -1.1813   -10.4576     8.8207 H          2 BB2          0.0000
    55 H20       -2.0780   -12.8466    11.4912 H          2 BB2          0.0000
    56 H21       -1.2121   -11.3124    11.7448 H          2 BB2          0.0000
    57 H22       -4.1735   -12.7883     9.7481 H          2 BB2          0.0000
    58 H23       -5.7532   -10.7654     9.0952 H          2 BB2          0.0000
@<TRIPOS>BOND
     1      1      2 1
     2      1     16 1
     3      1     17 1
     4      1     18 1
     5      2      3 1
     6      2     19 1
     7      2     20 1
     8      3      4 1
     9      3      8 1
    10      3     21 1
    11      4      5 1
    12      4      6 1
    13      4     22 1
    14      5     36 1
    15      6      7 1
    16      6     23 1
    17      6     24 1
    18      7      8 1
    19      7     25 1
    20      7     26 1
    21      8      9 am
    22      9     10 2
    23      9     11 1
    24     11     12 1
    25     12     13 1
    26     12     14 1
    27     12     15 1
    28     13     27 1
    29     13     28 1
    30     13     29 1
    31     14     30 1
    32     14     31 1
    33     14     32 1
    34     15     33 1
    35     15     34 1
    36     15     35 1
    37     37     38 2
    38     37     39 1
    39     39     40 ar
    40     39     44 ar
    41     40     41 ar
    42     40     51 1
    43     41     42 ar
    44     41     52 1
    45     42     43 ar
    46     42     53 1
    47     43     44 ar
    48     43     54 1
    49     44     45 1
    50     45     46 1
    51     45     55 1
    52     45     56 1
    53     46     47 1
    54     46     50 1
    55     47     48 2
    56     47     57 1
    57     48     49 1
    58     48     58 1
    59     49     50 2
    60      5     37 am
@<TRIPOS>SUBSTRUCTURE
     1 BB1           5
     2 BB2          37
@<TRIPOS>MOLECULE
EN300-312564_i001_EN300-306118_i001_10_14_1
  58   60   2   0   0
SMALL
USER_CHARGES
@<TRIPOS>ATOM
     1 C1        -0.2511   -15.4058    12.1218 C.3        1 BB1          0.0000
     2 C2        -0.7009   -16.8631    11.9993 C.3        1 BB1          0.0000
     3 C3        -0.0433   -17.4983    10.7724 C.3        1 BB1          0.0000
     4 C4        -0.5756   -16.8307     9.4869 C.3        1 BB1          0.0000
     5 N5         0.3809   -15.8359     8.9835 N.am       1 BB1          0.0000
     6 C6        -0.6977   -18.0227     8.5013 C.3        1 BB1          0.0000
     7 C7        -1.1344   -19.1671     9.4497 C.3        1 BB1          0.0000
     8 N8        -0.3923   -18.9247    10.7003 N.am       1 BB1          0.0000
     9 C9        -0.0845   -19.8564    11.6243 C.2        1 BB1          0.0000
    10 O10       -0.3457   -21.0251    11.4190 O.2        1 BB1          0.0000
    11 O11        0.5122   -19.4919    12.7749 O.3        1 BB1          0.0000
    12 C12        0.4953   -20.4562    13.8604 C.3        1 BB1          0.0000
    13 C13        1.3694   -21.6561    13.4903 C.3        1 BB1          0.0000
    14 C14        1.0390   -19.8020    15.1321 C.3        1 BB1          0.0000
    15 C15       -0.9404   -20.9264    14.1025 C.3        1 BB1          0.0000
    16 H16       -0.7697   -14.9345    12.9566 H          1 BB1          0.0000
    17 H17        0.8244   -15.3709    12.2959 H          1 BB1          0.0000
    18 H18       -0.4874   -14.8739    11.2002 H          1 BB1          0.0000
    19 H19       -0.4058   -17.4109    12.8942 H          1 BB1          0.0000
    20 H20       -1.7847   -16.9009    11.8910 H          1 BB1          0.0000
    21 H21        1.0389   -17.3816    10.8299 H          1 BB1          0.0000
    22 H22       -1.5486   -16.3727     9.6648 H          1 BB1          0.0000
    23 H23       -1.4595   -17.8290     7.7463 H          1 BB1          0.0000
    24 H24        0.2629   -18.2456     8.0367 H          1 BB1          0.0000
    25 H25       -2.2083   -19.1208     9.6307 H          1 BB1          0.0000
    26 H26       -0.8613   -20.1344     9.0280 H          1 BB1          0.0000
    27 H27        2.3922   -21.3211    13.3177 H          1 BB1          0.0000
    28 H28        1.3568   -22.3799    14.3051 H          1 BB1          0.0000
    29 H29        0.9820   -22.1221    12.5843 H          1 BB1          0.0000
    30 H30        0.4162   -18.9472    15.3958 H          1 BB1          0.0000
    31 H31        1.0263   -20.5259    15.9469 H          1 BB1          0.0000
    32 H32        2.0618   -19.4670    14.9596 H          1 BB1          0.0000
    33 H33       -1.3278   -21.3924    13.1964 H          1 BB1          0.0000
    34 H34       -0.9530   -21.6503    14.9173 H          1 BB1          0.0000
    35 H35       -1.5632   -20.0716    14.3661 H          1 BB1          0.0000
    36 H38        0.1830   -15.6397     8.0138 H          1 BB1          0.0000
    37 O1         0.4427   -14.7325    10.7035 O.2        2 BB2          0.0000
    38 C2         0.2503   -14.8942     9.5067 C.2        2 BB2          0.0000
    39 C4         0.4361   -13.7687     8.5711 C.ar       2 BB2          0.0000
    40 C5         1.0712   -13.9736     7.3438 C.ar       2 BB2          0.0000
    41 C6         1.2414   -12.9166     6.4741 C.ar       2 BB2          0.0000
    42 C7         0.7852   -11.6556     6.8150 C.ar       2 BB2          0.0000
    43 C8         0.1551   -11.4451     8.0291 C.ar       2 BB2          0.0000
    44 C9        -0.0276   -12.4937     8.9058 C.ar       2 BB2          0.0000
    45 C10       -0.7145   -12.2625    10.2272 C.3        2 BB2          0.0000
    46 N11       -1.8406   -11.3447    10.0382 N.pl3      2 BB2          0.0000
    47 C12       -3.1396   -11.6193    10.2990 C.2        2 BB2          0.0000
    48 C13       -3.8324   -10.5002     9.9835 C.2        2 BB2          0.0000
    49 N14       -2.9351    -9.6073     9.5507 N.2        2 BB2          0.0000
    50 N15       -1.7637   -10.1366     9.6005 N.2        2 BB2          0.0000
    51 H16        1.4284   -14.9573     7.0769 H          2 BB2          0.0000
    52 H17        1.7323   -13.0735     5.5250 H          2 BB2          0.0000
    53 H18        0.9219   -10.8314     6.1303 H          2 BB2          0.0000
    54 H19       -0.1982   -10.4580     8.2887 H          2 BB2          0.0000
    55 H20       -1.0811   -13.2120    10.6171 H          2 BB2          0.0000
    56 H21       -0.0068   -11.8286    10.9335 H          2 BB2          0.0000
    57 H22       -3.5426   -12.5453    10.6817 H          2 BB2          0.0000
    58 H23       -4.8996   -10.3563    10.0648 H          2 BB2          0.0000
@<TRIPOS>BOND
     1      1      2 1
     2      1     16 1
     3      1     17 1
     4      1     18 1
     5      2      3 1
     6      2     19 1
     7      2     20 1
     8      3      4 1
     9      3      8 1
    10      3     21 1
    11      4      5 1
    12      4      6 1
    13      4     22 1
    14      5     36 1
    15      6      7 1
    16      6     23 1
    17      6     24 1
    18      7      8 1
    19      7     25 1
    20      7     26 1
    21      8      9 am
    22      9     10 2
    23      9     11 1
    24     11     12 1
    25     12     13 1
    26     12     14 1
    27     12     15 1
    28     13     27 1
    29     13     28 1
    30     13     29 1
    31     14     30 1
    32     14     31 1
    33     14     32 1
    34     15     33 1
    35     15     34 1
    36     15     35 1
    37     37     38 2
    38     38     39 1
    39     39     40 ar
    40     39     44 ar
    41     40     41 ar
    42     40     51 1
    43     41     42 ar
    44     41     52 1
    45     42     43 ar
    46     42     53 1
    47     43     44 ar
    48     43     54 1
    49     44     45 1
    50     45     46 1
    51     45     55 1
    52     45     56 1
    53     46     47 1
    54     46     50 1
    55     47     48 2
    56     47     57 1
    57     48     49 1
    58     48     58 1
    59     49     50 2
    60      5     38 am
@<TRIPOS>SUBSTRUCTURE
     1 BB1           5
     2 BB2          38
@<TRIPOS>MOLECULE
EN300-312564_i001_EN300-306118_i001_10_6_1
  58   60   2   0   0
SMALL
USER_CHARGES
@<TRIPOS>ATOM
     1 C1        -0.2511   -15.4058    12.1218 C.3        1 BB1          0.0000
     2 C2        -0.7009   -16.8631    11.9993 C.3        1 BB1          0.0000
     3 C3        -0.0433   -17.4983    10.7724 C.3        1 BB1          0.0000
     4 C4        -0.5756   -16.8307     9.4869 C.3        1 BB1          0.0000
     5 N5         0.3809   -15.8359     8.9835 N.am       1 BB1          0.0000
     6 C6        -0.6977   -18.0227     8.5013 C.3        1 BB1          0.0000
     7 C7        -1.1344   -19.1671     9.4497 C.3        1 BB1          0.0000
     8 N8        -0.3923   -18.9247    10.7003 N.am       1 BB1          0.0000
     9 C9        -0.0845   -19.8564    11.6243 C.2        1 BB1          0.0000
    10 O10       -0.3457   -21.0251    11.4190 O.2        1 BB1          0.0000
    11 O11        0.5122   -19.4919    12.7749 O.3        1 BB1          0.0000
    12 C12        0.4953   -20.4562    13.8604 C.3        1 BB1          0.0000
    13 C13        1.3694   -21.6561    13.4903 C.3        1 BB1          0.0000
    14 C14        1.0390   -19.8020    15.1321 C.3        1 BB1          0.0000
    15 C15       -0.9404   -20.9264    14.1025 C.3        1 BB1          0.0000
    16 H16       -0.7697   -14.9345    12.9566 H          1 BB1          0.0000
    17 H17        0.8244   -15.3709    12.2959 H          1 BB1          0.0000
    18 H18       -0.4874   -14.8739    11.2002 H          1 BB1          0.0000
    19 H19       -0.4058   -17.4109    12.8942 H          1 BB1          0.0000
    20 H20       -1.7847   -16.9009    11.8910 H          1 BB1          0.0000
    21 H21        1.0389   -17.3816    10.8299 H          1 BB1          0.0000
    22 H22       -1.5486   -16.3727     9.6648 H          1 BB1          0.0000
    23 H23       -1.4595   -17.8290     7.7463 H          1 BB1          0.0000
    24 H24        0.2629   -18.2456     8.0367 H          1 BB1          0.0000
    25 H25       -2.2083   -19.1208     9.6307 H          1 BB1          0.0000
    26 H26       -0.8613   -20.1344     9.0280 H          1 BB1          0.0000
    27 H27        2.3922   -21.3211    13.3177 H          1 BB1          0.0000
    28 H28        1.3568   -22.3799    14.3051 H          1 BB1          0.0000
    29 H29        0.9820   -22.1221    12.5843 H          1 BB1          0.0000
    30 H30        0.4162   -18.9472    15.3958 H          1 BB1          0.0000
    31 H31        1.0263   -20.5259    15.9469 H          1 BB1          0.0000
    32 H32        2.0618   -19.4670    14.9596 H          1 BB1          0.0000
    33 H33       -1.3278   -21.3924    13.1964 H          1 BB1          0.0000
    34 H34       -0.9530   -21.6503    14.9173 H          1 BB1          0.0000
    35 H35       -1.5632   -20.0716    14.3661 H          1 BB1          0.0000
    36 H38        0.1830   -15.6397     8.0138 H          1 BB1          0.0000
    37 C2        -0.3996   -13.7304    10.8133 C.2        2 BB2          0.0000
    38 O3         0.0088   -14.6778    11.4700 O.2        2 BB2          0.0000
    39 C4         0.1276   -13.4914     9.4563 C.ar       2 BB2          0.0000
    40 C5         0.3583   -14.5656     8.5936 C.ar       2 BB2          0.0000
    41 C6         0.8514   -14.3346     7.3262 C.ar       2 BB2          0.0000
    42 C7         1.1179   -13.0426     6.9090 C.ar       2 BB2          0.0000
    43 C8         0.8918   -11.9734     7.7582 C.ar       2 BB2          0.0000
    44 C9         0.3932   -12.1888     9.0257 C.ar       2 BB2          0.0000
    45 C10        0.1472   -11.0231     9.9488 C.3        2 BB2          0.0000
    46 N11       -1.2932   -10.7753    10.0492 N.pl3      2 BB2          0.0000
    47 C12       -2.2529   -11.3618     9.2971 C.2        2 BB2          0.0000
    48 C13       -3.4309   -10.8465     9.7198 C.2        2 BB2          0.0000
    49 N14       -3.1380    -9.9810    10.6969 N.2        2 BB2          0.0000
    50 N15       -1.8637    -9.9660    10.8717 N.2        2 BB2          0.0000
    51 H16        0.1514   -15.5747     8.9183 H          2 BB2          0.0000
    52 H17        1.0303   -15.1641     6.6582 H          2 BB2          0.0000
    53 H18        1.5046   -12.8676     5.9157 H          2 BB2          0.0000
    54 H19        1.1024   -10.9676     7.4259 H          2 BB2          0.0000
    55 H20        0.5463   -11.2516    10.9369 H          2 BB2          0.0000
    56 H21        0.6418   -10.1360     9.5534 H          2 BB2          0.0000
    57 H22       -2.1081   -12.0939     8.5164 H          2 BB2          0.0000
    58 H23       -4.4139   -11.0863     9.3423 H          2 BB2          0.0000
@<TRIPOS>BOND
     1      1      2 1
     2      1     16 1
     3      1     17 1
     4      1     18 1
     5      2      3 1
     6      2     19 1
     7      2     20 1
     8      3      4 1
     9      3      8 1
    10      3     21 1
    11      4      5 1
    12      4      6 1
    13      4     22 1
    14      5     36 1
    15      6      7 1
    16      6     23 1
    17      6     24 1
    18      7      8 1
    19      7     25 1
    20      7     26 1
    21      8      9 am
    22      9     10 2
    23      9     11 1
    24     11     12 1
    25     12     13 1
    26     12     14 1
    27     12     15 1
    28     13     27 1
    29     13     28 1
    30     13     29 1
    31     14     30 1
    32     14     31 1
    33     14     32 1
    34     15     33 1
    35     15     34 1
    36     15     35 1
    37     37     38 2
    38     37     39 1
    39     39     40 ar
    40     39     44 ar
    41     40     41 ar
    42     40     51 1
    43     41     42 ar
    44     41     52 1
    45     42     43 ar
    46     42     53 1
    47     43     44 ar
    48     43     54 1
    49     44     45 1
    50     45     46 1
    51     45     55 1
    52     45     56 1
    53     46     47 1
    54     46     50 1
    55     47     48 2
    56     47     57 1
    57     48     49 1
    58     48     58 1
    59     49     50 2
    60      5     37 am
@<TRIPOS>SUBSTRUCTURE
     1 BB1           5
     2 BB2          37
@<TRIPOS>MOLECULE
EN300-312564_i001_EN300-307464_i001_10_18_1
  53   54   2   0   0
SMALL
USER_CHARGES
@<TRIPOS>ATOM
     1 C1        -0.2511   -15.4058    12.1218 C.3        1 BB1          0.0000
     2 C2        -0.7009   -16.8631    11.9993 C.3        1 BB1          0.0000
     3 C3        -0.0433   -17.4983    10.7724 C.3        1 BB1          0.0000
     4 C4        -0.5756   -16.8307     9.4869 C.3        1 BB1          0.0000
     5 N5         0.3809   -15.8359     8.9835 N.am       1 BB1          0.0000
     6 C6        -0.6977   -18.0227     8.5013 C.3        1 BB1          0.0000
     7 C7        -1.1344   -19.1671     9.4497 C.3        1 BB1          0.0000
     8 N8        -0.3923   -18.9247    10.7003 N.am       1 BB1          0.0000
     9 C9        -0.0845   -19.8564    11.6243 C.2        1 BB1          0.0000
    10 O10       -0.3457   -21.0251    11.4190 O.2        1 BB1          0.0000
    11 O11        0.5122   -19.4919    12.7749 O.3        1 BB1          0.0000
    12 C12        0.4953   -20.4562    13.8604 C.3        1 BB1          0.0000
    13 C13        1.3694   -21.6561    13.4903 C.3        1 BB1          0.0000
    14 C14        1.0390   -19.8020    15.1321 C.3        1 BB1          0.0000
    15 C15       -0.9404   -20.9264    14.1025 C.3        1 BB1          0.0000
    16 H16       -0.7697   -14.9345    12.9566 H          1 BB1          0.0000
    17 H17        0.8244   -15.3709    12.2959 H          1 BB1          0.0000
    18 H18       -0.4874   -14.8739    11.2002 H          1 BB1          0.0000
    19 H19       -0.4058   -17.4109    12.8942 H          1 BB1          0.0000
    20 H20       -1.7847   -16.9009    11.8910 H          1 BB1          0.0000
    21 H21        1.0389   -17.3816    10.8299 H          1 BB1          0.0000
    22 H22       -1.5486   -16.3727     9.6648 H          1 BB1          0.0000
    23 H23       -1.4595   -17.8290     7.7463 H          1 BB1          0.0000
    24 H24        0.2629   -18.2456     8.0367 H          1 BB1          0.0000
    25 H25       -2.2083   -19.1208     9.6307 H          1 BB1          0.0000
    26 H26       -0.8613   -20.1344     9.0280 H          1 BB1          0.0000
    27 H27        2.3922   -21.3211    13.3177 H          1 BB1          0.0000
    28 H28        1.3568   -22.3799    14.3051 H          1 BB1          0.0000
    29 H29        0.9820   -22.1221    12.5843 H          1 BB1          0.0000
    30 H30        0.4162   -18.9472    15.3958 H          1 BB1          0.0000
    31 H31        1.0263   -20.5259    15.9469 H          1 BB1          0.0000
    32 H32        2.0618   -19.4670    14.9596 H          1 BB1          0.0000
    33 H33       -1.3278   -21.3924    13.1964 H          1 BB1          0.0000
    34 H34       -0.9530   -21.6503    14.9173 H          1 BB1          0.0000
    35 H35       -1.5632   -20.0716    14.3661 H          1 BB1          0.0000
    36 H36        0.2978   -14.9868     9.5223 H          1 BB1          0.0000
    37 O1         0.5447   -14.1041     6.9230 O.2        2 BB2          0.0000
    38 C2         0.1635   -14.0940     8.0858 C.2        2 BB2          0.0000
    39 C4         0.0253   -12.8209     8.8015 C.2        2 BB2          0.0000
    40 C5         0.5233   -11.7029     8.2744 C.2        2 BB2          0.0000
    41 C6        -0.6798   -12.7774    10.1325 C.3        2 BB2          0.0000
    42 N7        -1.7033   -11.7294    10.1090 N.pl3      2 BB2          0.0000
    43 C8        -1.7077   -10.5815    10.8546 C.2        2 BB2          0.0000
    44 C9        -2.8248    -9.9061    10.5235 C.2        2 BB2          0.0000
    45 N10       -3.4844   -10.6222     9.6009 N.2        2 BB2          0.0000
    46 C11       -2.8156   -11.7127     9.3434 C.2        2 BB2          0.0000
    47 H12        0.4216   -10.7656     8.8013 H          2 BB2          0.0000
    48 H13        1.0287   -11.7340     7.3205 H          2 BB2          0.0000
    49 H14       -1.1510   -13.7411    10.3257 H          2 BB2          0.0000
    50 H15        0.0428   -12.5619    10.9197 H          2 BB2          0.0000
    51 H16       -0.9595   -10.2764    11.5712 H          2 BB2          0.0000
    52 H17       -3.1350    -8.9547    10.9296 H          2 BB2          0.0000
    53 H18       -3.1072   -12.4786     8.6400 H          2 BB2          0.0000
@<TRIPOS>BOND
     1      1      2 1
     2      1     16 1
     3      1     17 1
     4      1     18 1
     5      2      3 1
     6      2     19 1
     7      2     20 1
     8      3      4 1
     9      3      8 1
    10      3     21 1
    11      4      5 1
    12      4      6 1
    13      4     22 1
    14      5     36 1
    15      6      7 1
    16      6     23 1
    17      6     24 1
    18      7      8 1
    19      7     25 1
    20      7     26 1
    21      8      9 am
    22      9     10 2
    23      9     11 1
    24     11     12 1
    25     12     13 1
    26     12     14 1
    27     12     15 1
    28     13     27 1
    29     13     28 1
    30     13     29 1
    31     14     30 1
    32     14     31 1
    33     14     32 1
    34     15     33 1
    35     15     34 1
    36     15     35 1
    37     37     38 2
    38     38     39 1
    39     39     40 2
    40     39     41 1
    41     40     47 1
    42     40     48 1
    43     41     42 1
    44     41     49 1
    45     41     50 1
    46     42     43 1
    47     42     46 1
    48     43     44 2
    49     43     51 1
    50     44     45 1
    51     44     52 1
    52     45     46 2
    53     46     53 1
    54      5     38 am
@<TRIPOS>SUBSTRUCTURE
     1 BB1           5
     2 BB2          38
@<TRIPOS>MOLECULE
EN300-312564_i001_EN300-307464_i001_10_20_1
  53   54   2   0   0
SMALL
USER_CHARGES
@<TRIPOS>ATOM
     1 C1        -0.2511   -15.4058    12.1218 C.3        1 BB1          0.0000
     2 C2        -0.7009   -16.8631    11.9993 C.3        1 BB1          0.0000
     3 C3        -0.0433   -17.4983    10.7724 C.3        1 BB1          0.0000
     4 C4        -0.5756   -16.8307     9.4869 C.3        1 BB1          0.0000
     5 N5         0.3809   -15.8359     8.9835 N.am       1 BB1          0.0000
     6 C6        -0.6977   -18.0227     8.5013 C.3        1 BB1          0.0000
     7 C7        -1.1344   -19.1671     9.4497 C.3        1 BB1          0.0000
     8 N8        -0.3923   -18.9247    10.7003 N.am       1 BB1          0.0000
     9 C9        -0.0845   -19.8564    11.6243 C.2        1 BB1          0.0000
    10 O10       -0.3457   -21.0251    11.4190 O.2        1 BB1          0.0000
    11 O11        0.5122   -19.4919    12.7749 O.3        1 BB1          0.0000
    12 C12        0.4953   -20.4562    13.8604 C.3        1 BB1          0.0000
    13 C13        1.3694   -21.6561    13.4903 C.3        1 BB1          0.0000
    14 C14        1.0390   -19.8020    15.1321 C.3        1 BB1          0.0000
    15 C15       -0.9404   -20.9264    14.1025 C.3        1 BB1          0.0000
    16 H16       -0.7697   -14.9345    12.9566 H          1 BB1          0.0000
    17 H17        0.8244   -15.3709    12.2959 H          1 BB1          0.0000
    18 H18       -0.4874   -14.8739    11.2002 H          1 BB1          0.0000
    19 H19       -0.4058   -17.4109    12.8942 H          1 BB1          0.0000
    20 H20       -1.7847   -16.9009    11.8910 H          1 BB1          0.0000
    21 H21        1.0389   -17.3816    10.8299 H          1 BB1          0.0000
    22 H22       -1.5486   -16.3727     9.6648 H          1 BB1          0.0000
    23 H23       -1.4595   -17.8290     7.7463 H          1 BB1          0.0000
    24 H24        0.2629   -18.2456     8.0367 H          1 BB1          0.0000
    25 H25       -2.2083   -19.1208     9.6307 H          1 BB1          0.0000
    26 H26       -0.8613   -20.1344     9.0280 H          1 BB1          0.0000
    27 H27        2.3922   -21.3211    13.3177 H          1 BB1          0.0000
    28 H28        1.3568   -22.3799    14.3051 H          1 BB1          0.0000
    29 H29        0.9820   -22.1221    12.5843 H          1 BB1          0.0000
    30 H30        0.4162   -18.9472    15.3958 H          1 BB1          0.0000
    31 H31        1.0263   -20.5259    15.9469 H          1 BB1          0.0000
    32 H32        2.0618   -19.4670    14.9596 H          1 BB1          0.0000
    33 H33       -1.3278   -21.3924    13.1964 H          1 BB1          0.0000
    34 H34       -0.9530   -21.6503    14.9173 H          1 BB1          0.0000
    35 H35       -1.5632   -20.0716    14.3661 H          1 BB1          0.0000
    36 H36        0.2978   -14.9868     9.5223 H          1 BB1          0.0000
    37 O1        -0.0767   -14.1904     6.6244 O.2        2 BB2          0.0000
    38 C2        -0.0378   -14.1177     7.8454 C.2        2 BB2          0.0000
    39 C4         0.0826   -12.8098     8.4989 C.2        2 BB2          0.0000
    40 C5         0.5071   -11.7546     7.8046 C.2        2 BB2          0.0000
    41 C6        -0.2738   -12.6596     9.9554 C.3        2 BB2          0.0000
    42 N7        -1.1738   -11.5157    10.1224 N.pl3      2 BB2          0.0000
    43 C8        -2.4332   -11.3902     9.6009 C.2        2 BB2          0.0000
    44 C9        -2.9011   -10.1911     9.9970 C.2        2 BB2          0.0000
    45 N10       -1.9534    -9.6007    10.7401 N.2        2 BB2          0.0000
    46 C11       -0.9182   -10.3909    10.8244 C.2        2 BB2          0.0000
    47 H12        0.5957   -10.7918     8.2857 H          2 BB2          0.0000
    48 H13        0.7626   -11.8623     6.7607 H          2 BB2          0.0000
    49 H14       -0.7695   -13.5658    10.3034 H          2 BB2          0.0000
    50 H15        0.6337   -12.4957    10.5365 H          2 BB2          0.0000
    51 H16       -2.9516   -12.1134     8.9887 H          2 BB2          0.0000
    52 H17       -3.8698    -9.7775     9.7583 H          2 BB2          0.0000
    53 H18       -0.0054   -10.1772    11.3605 H          2 BB2          0.0000
@<TRIPOS>BOND
     1      1      2 1
     2      1     16 1
     3      1     17 1
     4      1     18 1
     5      2      3 1
     6      2     19 1
     7      2     20 1
     8      3      4 1
     9      3      8 1
    10      3     21 1
    11      4      5 1
    12      4      6 1
    13      4     22 1
    14      5     36 1
    15      6      7 1
    16      6     23 1
    17      6     24 1
    18      7      8 1
    19      7     25 1
    20      7     26 1
    21      8      9 am
    22      9     10 2
    23      9     11 1
    24     11     12 1
    25     12     13 1
    26     12     14 1
    27     12     15 1
    28     13     27 1
    29     13     28 1
    30     13     29 1
    31     14     30 1
    32     14     31 1
    33     14     32 1
    34     15     33 1
    35     15     34 1
    36     15     35 1
    37     37     38 2
    38     38     39 1
    39     39     40 2
    40     39     41 1
    41     40     47 1
    42     40     48 1
    43     41     42 1
    44     41     49 1
    45     41     50 1
    46     42     43 1
    47     42     46 1
    48     43     44 2
    49     43     51 1
    50     44     45 1
    51     44     52 1
    52     45     46 2
    53     46     53 1
    54      5     38 am
@<TRIPOS>SUBSTRUCTURE
     1 BB1           5
     2 BB2          38
@<TRIPOS>MOLECULE
EN300-312564_i001_EN300-307464_i001_10_4_1
  53   54   2   0   0
SMALL
USER_CHARGES
@<TRIPOS>ATOM
     1 C1        -0.2511   -15.4058    12.1218 C.3        1 BB1          0.0000
     2 C2        -0.7009   -16.8631    11.9993 C.3        1 BB1          0.0000
     3 C3        -0.0433   -17.4983    10.7724 C.3        1 BB1          0.0000
     4 C4        -0.5756   -16.8307     9.4869 C.3        1 BB1          0.0000
     5 N5         0.3809   -15.8359     8.9835 N.am       1 BB1          0.0000
     6 C6        -0.6977   -18.0227     8.5013 C.3        1 BB1          0.0000
     7 C7        -1.1344   -19.1671     9.4497 C.3        1 BB1          0.0000
     8 N8        -0.3923   -18.9247    10.7003 N.am       1 BB1          0.0000
     9 C9        -0.0845   -19.8564    11.6243 C.2        1 BB1          0.0000
    10 O10       -0.3457   -21.0251    11.4190 O.2        1 BB1          0.0000
    11 O11        0.5122   -19.4919    12.7749 O.3        1 BB1          0.0000
    12 C12        0.4953   -20.4562    13.8604 C.3        1 BB1          0.0000
    13 C13        1.3694   -21.6561    13.4903 C.3        1 BB1          0.0000
    14 C14        1.0390   -19.8020    15.1321 C.3        1 BB1          0.0000
    15 C15       -0.9404   -20.9264    14.1025 C.3        1 BB1          0.0000
    16 H16       -0.7697   -14.9345    12.9566 H          1 BB1          0.0000
    17 H17        0.8244   -15.3709    12.2959 H          1 BB1          0.0000
    18 H18       -0.4874   -14.8739    11.2002 H          1 BB1          0.0000
    19 H19       -0.4058   -17.4109    12.8942 H          1 BB1          0.0000
    20 H20       -1.7847   -16.9009    11.8910 H          1 BB1          0.0000
    21 H21        1.0389   -17.3816    10.8299 H          1 BB1          0.0000
    22 H22       -1.5486   -16.3727     9.6648 H          1 BB1          0.0000
    23 H23       -1.4595   -17.8290     7.7463 H          1 BB1          0.0000
    24 H24        0.2629   -18.2456     8.0367 H          1 BB1          0.0000
    25 H25       -2.2083   -19.1208     9.6307 H          1 BB1          0.0000
    26 H26       -0.8613   -20.1344     9.0280 H          1 BB1          0.0000
    27 H27        2.3922   -21.3211    13.3177 H          1 BB1          0.0000
    28 H28        1.3568   -22.3799    14.3051 H          1 BB1          0.0000
    29 H29        0.9820   -22.1221    12.5843 H          1 BB1          0.0000
    30 H30        0.4162   -18.9472    15.3958 H          1 BB1          0.0000
    31 H31        1.0263   -20.5259    15.9469 H          1 BB1          0.0000
    32 H32        2.0618   -19.4670    14.9596 H          1 BB1          0.0000
    33 H33       -1.3278   -21.3924    13.1964 H          1 BB1          0.0000
    34 H34       -0.9530   -21.6503    14.9173 H          1 BB1          0.0000
    35 H35       -1.5632   -20.0716    14.3661 H          1 BB1          0.0000
    36 H36        0.2978   -14.9868     9.5223 H          1 BB1          0.0000
    37 O1         0.1999   -14.7819     6.7482 O.2        2 BB2          0.0000
    38 C2         0.1537   -14.5388     7.9466 C.2        2 BB2          0.0000
    39 C4         0.3068   -13.1593     8.4217 C.2        2 BB2          0.0000
    40 C5         0.5055   -12.1722     7.5489 C.2        2 BB2          0.0000
    41 C6         0.2394   -12.8585     9.8968 C.3        2 BB2          0.0000
    42 N7        -0.7743   -11.8289    10.1394 N.pl3      2 BB2          0.0000
    43 C8        -0.7177   -10.5223     9.7356 C.2        2 BB2          0.0000
    44 C9        -1.8491    -9.9321    10.1663 C.2        2 BB2          0.0000
    45 N10       -2.5765   -10.8532    10.8153 N.2        2 BB2          0.0000
    46 C11       -1.9416   -11.9933    10.7981 C.2        2 BB2          0.0000
    47 H12        0.6183   -11.1567     7.8986 H          2 BB2          0.0000
    48 H13        0.5539   -12.3878     6.4917 H          2 BB2          0.0000
    49 H14       -0.0260   -13.7650    10.4407 H          2 BB2          0.0000
    50 H15        1.2102   -12.5003    10.2394 H          2 BB2          0.0000
    51 H16        0.0810   -10.0544     9.1791 H          2 BB2          0.0000
    52 H17       -2.1226    -8.8983    10.0154 H          2 BB2          0.0000
    53 H18       -2.2889   -12.9138    11.2435 H          2 BB2          0.0000
@<TRIPOS>BOND
     1      1      2 1
     2      1     16 1
     3      1     17 1
     4      1     18 1
     5      2      3 1
     6      2     19 1
     7      2     20 1
     8      3      4 1
     9      3      8 1
    10      3     21 1
    11      4      5 1
    12      4      6 1
    13      4     22 1
    14      5     36 1
    15      6      7 1
    16      6     23 1
    17      6     24 1
    18      7      8 1
    19      7     25 1
    20      7     26 1
    21      8      9 am
    22      9     10 2
    23      9     11 1
    24     11     12 1
    25     12     13 1
    26     12     14 1
    27     12     15 1
    28     13     27 1
    29     13     28 1
    30     13     29 1
    31     14     30 1
    32     14     31 1
    33     14     32 1
    34     15     33 1
    35     15     34 1
    36     15     35 1
    37     37     38 2
    38     38     39 1
    39     39     40 2
    40     39     41 1
    41     40     47 1
    42     40     48 1
    43     41     42 1
    44     41     49 1
    45     41     50 1
    46     42     43 1
    47     42     46 1
    48     43     44 2
    49     43     51 1
    50     44     45 1
    51     44     52 1
    52     45     46 2
    53     46     53 1
    54      5     38 am
@<TRIPOS>SUBSTRUCTURE
     1 BB1           5
     2 BB2          38
@<TRIPOS>MOLECULE
EN300-312564_i001_EN300-223795_i001_10_13_1
  49   50   2   0   0
SMALL
USER_CHARGES
@<TRIPOS>ATOM
     1 C1        -0.2511   -15.4058    12.1218 C.3        1 BB1          0.0000
     2 C2        -0.7009   -16.8631    11.9993 C.3        1 BB1          0.0000
     3 C3        -0.0433   -17.4983    10.7724 C.3        1 BB1          0.0000
     4 C4        -0.5756   -16.8307     9.4869 C.3        1 BB1          0.0000
     5 N5         0.3809   -15.8359     8.9835 N.am       1 BB1          0.0000
     6 C6        -0.6977   -18.0227     8.5013 C.3        1 BB1          0.0000
     7 C7        -1.1344   -19.1671     9.4497 C.3        1 BB1          0.0000
     8 N8        -0.3923   -18.9247    10.7003 N.am       1 BB1          0.0000
     9 C9        -0.0845   -19.8564    11.6243 C.2        1 BB1          0.0000
    10 O10       -0.3457   -21.0251    11.4190 O.2        1 BB1          0.0000
    11 O11        0.5122   -19.4919    12.7749 O.3        1 BB1          0.0000
    12 C12        0.4953   -20.4562    13.8604 C.3        1 BB1          0.0000
    13 C13        1.3694   -21.6561    13.4903 C.3        1 BB1          0.0000
    14 C14        1.0390   -19.8020    15.1321 C.3        1 BB1          0.0000
    15 C15       -0.9404   -20.9264    14.1025 C.3        1 BB1          0.0000
    16 H16       -0.7697   -14.9345    12.9566 H          1 BB1          0.0000
    17 H17        0.8244   -15.3709    12.2959 H          1 BB1          0.0000
    18 H18       -0.4874   -14.8739    11.2002 H          1 BB1          0.0000
    19 H19       -0.4058   -17.4109    12.8942 H          1 BB1          0.0000
    20 H20       -1.7847   -16.9009    11.8910 H          1 BB1          0.0000
    21 H21        1.0389   -17.3816    10.8299 H          1 BB1          0.0000
    22 H22       -1.5486   -16.3727     9.6648 H          1 BB1          0.0000
    23 H23       -1.4595   -17.8290     7.7463 H          1 BB1          0.0000
    24 H24        0.2629   -18.2456     8.0367 H          1 BB1          0.0000
    25 H25       -2.2083   -19.1208     9.6307 H          1 BB1          0.0000
    26 H26       -0.8613   -20.1344     9.0280 H          1 BB1          0.0000
    27 H27        2.3922   -21.3211    13.3177 H          1 BB1          0.0000
    28 H28        1.3568   -22.3799    14.3051 H          1 BB1          0.0000
    29 H29        0.9820   -22.1221    12.5843 H          1 BB1          0.0000
    30 H30        0.4162   -18.9472    15.3958 H          1 BB1          0.0000
    31 H31        1.0263   -20.5259    15.9469 H          1 BB1          0.0000
    32 H32        2.0618   -19.4670    14.9596 H          1 BB1          0.0000
    33 H33       -1.3278   -21.3924    13.1964 H          1 BB1          0.0000
    34 H34       -0.9530   -21.6503    14.9173 H          1 BB1          0.0000
    35 H35       -1.5632   -20.0716    14.3661 H          1 BB1          0.0000
    36 H38        0.1830   -15.6397     8.0138 H          1 BB1          0.0000
    37 C2        -0.1214   -14.6741    11.0454 C.2        2 BB2          0.0000
    38 O3        -0.1055   -14.8596    12.2551 O.2        2 BB2          0.0000
    39 C4        -0.5198   -13.3679    10.5087 C.2        2 BB2          0.0000
    40 C5        -1.2337   -12.3734    11.2774 C.2        2 BB2          0.0000
    41 C6        -1.4890   -11.2682    10.5893 C.2        2 BB2          0.0000
    42 S7        -0.8614   -11.3974     8.9556 S.3        2 BB2          0.0000
    43 C8        -0.2501   -12.9637     9.2351 C.2        2 BB2          0.0000
    44 C9         0.4817   -13.7924     8.2110 C.3        2 BB2          0.0000
    45 F10        0.6752   -13.0353     7.0506 F          2 BB2          0.0000
    46 F11        1.7227   -14.1815     8.7264 F          2 BB2          0.0000
    47 F12       -0.2737   -14.9296     7.9053 F          2 BB2          0.0000
    48 H13       -1.5292   -12.5156    12.3063 H          2 BB2          0.0000
    49 H14       -2.0113   -10.4077    10.9806 H          2 BB2          0.0000
@<TRIPOS>BOND
     1      1      2 1
     2      1     16 1
     3      1     17 1
     4      1     18 1
     5      2      3 1
     6      2     19 1
     7      2     20 1
     8      3      4 1
     9      3      8 1
    10      3     21 1
    11      4      5 1
    12      4      6 1
    13      4     22 1
    14      5     36 1
    15      6      7 1
    16      6     23 1
    17      6     24 1
    18      7      8 1
    19      7     25 1
    20      7     26 1
    21      8      9 am
    22      9     10 2
    23      9     11 1
    24     11     12 1
    25     12     13 1
    26     12     14 1
    27     12     15 1
    28     13     27 1
    29     13     28 1
    30     13     29 1
    31     14     30 1
    32     14     31 1
    33     14     32 1
    34     15     33 1
    35     15     34 1
    36     15     35 1
    37     37     38 2
    38     37     39 1
    39     39     40 1
    40     39     43 2
    41     40     41 2
    42     40     48 1
    43     41     42 1
    44     41     49 1
    45     42     43 1
    46     43     44 1
    47     44     45 1
    48     44     46 1
    49     44     47 1
    50      5     37 am
@<TRIPOS>SUBSTRUCTURE
     1 BB1           5
     2 BB2          37
@<TRIPOS>MOLECULE
EN300-312564_i001_EN300-344045_i001_10_2_1
  65   67   2   0   0
SMALL
USER_CHARGES
@<TRIPOS>ATOM
     1 C1        -0.2511   -15.4058    12.1218 C.3        1 BB1          0.0000
     2 C2        -0.7009   -16.8631    11.9993 C.3        1 BB1          0.0000
     3 C3        -0.0433   -17.4983    10.7724 C.3        1 BB1          0.0000
     4 C4        -0.5756   -16.8307     9.4869 C.3        1 BB1          0.0000
     5 N5         0.3809   -15.8359     8.9835 N.am       1 BB1          0.0000
     6 C6        -0.6977   -18.0227     8.5013 C.3        1 BB1          0.0000
     7 C7        -1.1344   -19.1671     9.4497 C.3        1 BB1          0.0000
     8 N8        -0.3923   -18.9247    10.7003 N.am       1 BB1          0.0000
     9 C9        -0.0845   -19.8564    11.6243 C.2        1 BB1          0.0000
    10 O10       -0.3457   -21.0251    11.4190 O.2        1 BB1          0.0000
    11 O11        0.5122   -19.4919    12.7749 O.3        1 BB1          0.0000
    12 C12        0.4953   -20.4562    13.8604 C.3        1 BB1          0.0000
    13 C13        1.3694   -21.6561    13.4903 C.3        1 BB1          0.0000
    14 C14        1.0390   -19.8020    15.1321 C.3        1 BB1          0.0000
    15 C15       -0.9404   -20.9264    14.1025 C.3        1 BB1          0.0000
    16 H16       -0.7697   -14.9345    12.9566 H          1 BB1          0.0000
    17 H17        0.8244   -15.3709    12.2959 H          1 BB1          0.0000
    18 H18       -0.4874   -14.8739    11.2002 H          1 BB1          0.0000
    19 H19       -0.4058   -17.4109    12.8942 H          1 BB1          0.0000
    20 H20       -1.7847   -16.9009    11.8910 H          1 BB1          0.0000
    21 H21        1.0389   -17.3816    10.8299 H          1 BB1          0.0000
    22 H22       -1.5486   -16.3727     9.6648 H          1 BB1          0.0000
    23 H23       -1.4595   -17.8290     7.7463 H          1 BB1          0.0000
    24 H24        0.2629   -18.2456     8.0367 H          1 BB1          0.0000
    25 H25       -2.2083   -19.1208     9.6307 H          1 BB1          0.0000
    26 H26       -0.8613   -20.1344     9.0280 H          1 BB1          0.0000
    27 H27        2.3922   -21.3211    13.3177 H          1 BB1          0.0000
    28 H28        1.3568   -22.3799    14.3051 H          1 BB1          0.0000
    29 H29        0.9820   -22.1221    12.5843 H          1 BB1          0.0000
    30 H30        0.4162   -18.9472    15.3958 H          1 BB1          0.0000
    31 H31        1.0263   -20.5259    15.9469 H          1 BB1          0.0000
    32 H32        2.0618   -19.4670    14.9596 H          1 BB1          0.0000
    33 H33       -1.3278   -21.3924    13.1964 H          1 BB1          0.0000
    34 H34       -0.9530   -21.6503    14.9173 H          1 BB1          0.0000
    35 H35       -1.5632   -20.0716    14.3661 H          1 BB1          0.0000
    36 H38        0.1830   -15.6397     8.0138 H          1 BB1          0.0000
    37 O1         0.5661   -15.7707    10.9576 O.2        2 BB2          0.0000
    38 C2         0.2489   -14.5943    11.0019 C.2        2 BB2          0.0000
    39 C4         0.9922   -13.5817    10.1694 C.3        2 BB2          0.0000
    40 C5         0.0568   -13.0163     9.0988 C.3        2 BB2          0.0000
    41 C6         0.8768   -12.3025     8.0042 C.3        2 BB2          0.0000
    42 C7         1.0511   -13.3749     6.9002 C.3        2 BB2          0.0000
    43 C8        -0.3163   -14.1023     6.9114 C.3        2 BB2          0.0000
    44 C9        -0.7017   -14.1605     8.4040 C.3        2 BB2          0.0000
    45 C10       -0.9194   -12.0528     9.7233 C.ar       2 BB2          0.0000
    46 C11       -0.7018   -11.5818    11.0046 C.ar       2 BB2          0.0000
    47 C12       -1.5972   -10.6981    11.5774 C.ar       2 BB2          0.0000
    48 C13       -2.7099   -10.2850    10.8687 C.ar       2 BB2          0.0000
    49 C14       -2.9270   -10.7553     9.5871 C.ar       2 BB2          0.0000
    50 C15       -2.0292   -11.6357     9.0126 C.ar       2 BB2          0.0000
    51 H16        1.3431   -12.7722    10.8096 H          2 BB2          0.0000
    52 H17        1.8455   -14.0614     9.6898 H          2 BB2          0.0000
    53 H18        0.3298   -11.4425     7.6177 H          2 BB2          0.0000
    54 H19        1.8472   -11.9949     8.3939 H          2 BB2          0.0000
    55 H20        1.2319   -12.9071     5.9324 H          2 BB2          0.0000
    56 H21        1.8570   -14.0634     7.1543 H          2 BB2          0.0000
    57 H22       -1.0559   -13.5330     6.3483 H          2 BB2          0.0000
    58 H23       -0.2166   -15.1082     6.5036 H          2 BB2          0.0000
    59 H24       -0.4034   -15.1187     8.8294 H          2 BB2          0.0000
    60 H25       -1.7765   -14.0194     8.5179 H          2 BB2          0.0000
    61 H26        0.1674   -11.9045    11.5583 H          2 BB2          0.0000
    62 H27       -1.4278   -10.3307    12.5787 H          2 BB2          0.0000
    63 H28       -3.4099    -9.5951    11.3165 H          2 BB2          0.0000
    64 H29       -3.7964   -10.4328     9.0334 H          2 BB2          0.0000
    65 H30       -2.1987   -12.0032     8.0113 H          2 BB2          0.0000
@<TRIPOS>BOND
     1      1      2 1
     2      1     16 1
     3      1     17 1
     4      1     18 1
     5      2      3 1
     6      2     19 1
     7      2     20 1
     8      3      4 1
     9      3      8 1
    10      3     21 1
    11      4      5 1
    12      4      6 1
    13      4     22 1
    14      5     36 1
    15      6      7 1
    16      6     23 1
    17      6     24 1
    18      7      8 1
    19      7     25 1
    20      7     26 1
    21      8      9 am
    22      9     10 2
    23      9     11 1
    24     11     12 1
    25     12     13 1
    26     12     14 1
    27     12     15 1
    28     13     27 1
    29     13     28 1
    30     13     29 1
    31     14     30 1
    32     14     31 1
    33     14     32 1
    34     15     33 1
    35     15     34 1
    36     15     35 1
    37     37     38 2
    38     38     39 1
    39     39     40 1
    40     39     51 1
    41     39     52 1
    42     40     41 1
    43     40     44 1
    44     40     45 1
    45     41     42 1
    46     41     53 1
    47     41     54 1
    48     42     43 1
    49     42     55 1
    50     42     56 1
    51     43     44 1
    52     43     57 1
    53     43     58 1
    54     44     59 1
    55     44     60 1
    56     45     46 ar
    57     45     50 ar
    58     46     47 ar
    59     46     61 1
    60     47     48 ar
    61     47     62 1
    62     48     49 ar
    63     48     63 1
    64     49     50 ar
    65     49     64 1
    66     50     65 1
    67      5     38 am
@<TRIPOS>SUBSTRUCTURE
     1 BB1           5
     2 BB2          38
@<TRIPOS>MOLECULE
EN300-312564_i001_EN300-206926_i001_10_9_1
  51   51   2   0   0
SMALL
USER_CHARGES
@<TRIPOS>ATOM
     1 C1        -0.2511   -15.4058    12.1218 C.3        1 BB1          0.0000
     2 C2        -0.7009   -16.8631    11.9993 C.3        1 BB1          0.0000
     3 C3        -0.0433   -17.4983    10.7724 C.3        1 BB1          0.0000
     4 C4        -0.5756   -16.8307     9.4869 C.3        1 BB1          0.0000
     5 N5         0.3809   -15.8359     8.9835 N.am       1 BB1          0.0000
     6 C6        -0.6977   -18.0227     8.5013 C.3        1 BB1          0.0000
     7 C7        -1.1344   -19.1671     9.4497 C.3        1 BB1          0.0000
     8 N8        -0.3923   -18.9247    10.7003 N.am       1 BB1          0.0000
     9 C9        -0.0845   -19.8564    11.6243 C.2        1 BB1          0.0000
    10 O10       -0.3457   -21.0251    11.4190 O.2        1 BB1          0.0000
    11 O11        0.5122   -19.4919    12.7749 O.3        1 BB1          0.0000
    12 C12        0.4953   -20.4562    13.8604 C.3        1 BB1          0.0000
    13 C13        1.3694   -21.6561    13.4903 C.3        1 BB1          0.0000
    14 C14        1.0390   -19.8020    15.1321 C.3        1 BB1          0.0000
    15 C15       -0.9404   -20.9264    14.1025 C.3        1 BB1          0.0000
    16 H16       -0.7697   -14.9345    12.9566 H          1 BB1          0.0000
    17 H17        0.8244   -15.3709    12.2959 H          1 BB1          0.0000
    18 H18       -0.4874   -14.8739    11.2002 H          1 BB1          0.0000
    19 H19       -0.4058   -17.4109    12.8942 H          1 BB1          0.0000
    20 H20       -1.7847   -16.9009    11.8910 H          1 BB1          0.0000
    21 H21        1.0389   -17.3816    10.8299 H          1 BB1          0.0000
    22 H22       -1.5486   -16.3727     9.6648 H          1 BB1          0.0000
    23 H23       -1.4595   -17.8290     7.7463 H          1 BB1          0.0000
    24 H24        0.2629   -18.2456     8.0367 H          1 BB1          0.0000
    25 H25       -2.2083   -19.1208     9.6307 H          1 BB1          0.0000
    26 H26       -0.8613   -20.1344     9.0280 H          1 BB1          0.0000
    27 H27        2.3922   -21.3211    13.3177 H          1 BB1          0.0000
    28 H28        1.3568   -22.3799    14.3051 H          1 BB1          0.0000
    29 H29        0.9820   -22.1221    12.5843 H          1 BB1          0.0000
    30 H30        0.4162   -18.9472    15.3958 H          1 BB1          0.0000
    31 H31        1.0263   -20.5259    15.9469 H          1 BB1          0.0000
    32 H32        2.0618   -19.4670    14.9596 H          1 BB1          0.0000
    33 H33       -1.3278   -21.3924    13.1964 H          1 BB1          0.0000
    34 H34       -0.9530   -21.6503    14.9173 H          1 BB1          0.0000
    35 H35       -1.5632   -20.0716    14.3661 H          1 BB1          0.0000
    36 H36        0.2978   -14.9868     9.5223 H          1 BB1          0.0000
    37 C1        -4.4235   -10.4520    10.0654 C.3        2 BB2          0.0000
    38 C2        -2.9377   -10.2731     9.8882 C.2        2 BB2          0.0000
    39 O3        -2.5093    -9.3009     9.3022 O.2        2 BB2          0.0000
    40 S4        -1.8542   -11.4417    10.5139 S.3        2 BB2          0.0000
    41 C5        -1.0846   -12.0111     8.9778 C.3        2 BB2          0.0000
    42 C6         0.3153   -12.5505     9.2783 C.3        2 BB2          0.0000
    43 C7         0.8842   -13.1897     8.0377 C.2        2 BB2          0.0000
    44 O8         1.0589   -12.5216     7.0330 O.2        2 BB2          0.0000
    45 H10       -4.8255   -11.0110     9.2203 H          2 BB2          0.0000
    46 H11       -4.6162   -10.9997    10.9879 H          2 BB2          0.0000
    47 H12       -4.9037    -9.4748    10.1159 H          2 BB2          0.0000
    48 H13       -1.6923   -12.8021     8.5384 H          2 BB2          0.0000
    49 H14       -1.0107   -11.1785     8.2782 H          2 BB2          0.0000
    50 H15        0.9608   -11.7307     9.5932 H          2 BB2          0.0000
    51 H16        0.2555   -13.2924    10.0745 H          2 BB2          0.0000
@<TRIPOS>BOND
     1      1      2 1
     2      1     16 1
     3      1     17 1
     4      1     18 1
     5      2      3 1
     6      2     19 1
     7      2     20 1
     8      3      4 1
     9      3      8 1
    10      3     21 1
    11      4      5 1
    12      4      6 1
    13      4     22 1
    14      5     36 1
    15      6      7 1
    16      6     23 1
    17      6     24 1
    18      7      8 1
    19      7     25 1
    20      7     26 1
    21      8      9 am
    22      9     10 2
    23      9     11 1
    24     11     12 1
    25     12     13 1
    26     12     14 1
    27     12     15 1
    28     13     27 1
    29     13     28 1
    30     13     29 1
    31     14     30 1
    32     14     31 1
    33     14     32 1
    34     15     33 1
    35     15     34 1
    36     15     35 1
    37     37     38 1
    38     37     45 1
    39     37     46 1
    40     37     47 1
    41     38     39 2
    42     38     40 1
    43     40     41 1
    44     41     42 1
    45     41     48 1
    46     41     49 1
    47     42     43 1
    48     42     50 1
    49     42     51 1
    50     43     44 2
    51      5     43 am
@<TRIPOS>SUBSTRUCTURE
     1 BB1           5
     2 BB2          43
@<TRIPOS>MOLECULE
EN300-312564_i001_EN300-18555_i001_14_6_1
  66   68   2   0   0
SMALL
USER_CHARGES
@<TRIPOS>ATOM
     1 C1         1.9087   -22.4803    14.0994 C.3        1 BB1          0.0000
     2 C2         0.6912   -22.1448    13.2358 C.3        1 BB1          0.0000
     3 C3         0.4426   -20.6354    13.2691 C.3        1 BB1          0.0000
     4 C4         1.5485   -19.9039    12.4796 C.3        1 BB1          0.0000
     5 N5         1.0767   -19.5447    11.1356 N.am       1 BB1          0.0000
     6 C6         1.8000   -18.6317    13.3314 C.3        1 BB1          0.0000
     7 C7         1.6026   -19.1754    14.7684 C.3        1 BB1          0.0000
     8 N8         0.5017   -20.1494    14.6555 N.am       1 BB1          0.0000
     9 C9        -0.3155   -20.5309    15.6571 C.2        1 BB1          0.0000
    10 O10       -1.1343   -21.4093    15.4720 O.2        1 BB1          0.0000
    11 O11       -0.2246   -19.9384    16.8627 O.3        1 BB1          0.0000
    12 C12       -0.8730   -20.6075    17.9764 C.3        1 BB1          0.0000
    13 C13       -0.3982   -22.0603    18.0450 C.3        1 BB1          0.0000
    14 C14       -0.5142   -19.8916    19.2801 C.3        1 BB1          0.0000
    15 C15       -2.3896   -20.5754    17.7776 C.3        1 BB1          0.0000
    16 H16        2.0465   -23.5611    14.1289 H          1 BB1          0.0000
    17 H17        2.7963   -22.0123    13.6736 H          1 BB1          0.0000
    18 H18        1.7508   -22.1064    15.1111 H          1 BB1          0.0000
    19 H19        0.8761   -22.4599    12.2088 H          1 BB1          0.0000
    20 H20       -0.1841   -22.6658    13.6237 H          1 BB1          0.0000
    21 H21       -0.5322   -20.4107    12.8363 H          1 BB1          0.0000
    22 H22        2.4488   -20.5155    12.4201 H          1 BB1          0.0000
    23 H23        2.8152   -18.2611    13.1900 H          1 BB1          0.0000
    24 H24        1.0677   -17.8572    13.1027 H          1 BB1          0.0000
    25 H25        2.5108   -19.6680    15.1157 H          1 BB1          0.0000
    26 H26        1.3259   -18.3670    15.4453 H          1 BB1          0.0000
    27 H27        0.6823   -22.0832    18.1865 H          1 BB1          0.0000
    28 H28       -0.8849   -22.5625    18.8810 H          1 BB1          0.0000
    29 H29       -0.6538   -22.5703    17.1162 H          1 BB1          0.0000
    30 H30       -0.8524   -18.8565    19.2313 H          1 BB1          0.0000
    31 H31       -1.0009   -20.3938    20.1162 H          1 BB1          0.0000
    32 H32        0.5663   -19.9144    19.4217 H          1 BB1          0.0000
    33 H33       -2.6453   -21.0853    16.8488 H          1 BB1          0.0000
    34 H34       -2.8763   -21.0776    18.6137 H          1 BB1          0.0000
    35 H35       -2.7279   -19.5403    17.7287 H          1 BB1          0.0000
    36 H38        1.4812   -18.6618    10.8620 H          1 BB1          0.0000
    37 C1         2.9057   -16.5228    14.9683 C.3        2 BB2          0.0000
    38 C2         1.6414   -16.4882    14.1490 C.2        2 BB2          0.0000
    39 O3         0.5658   -16.3764    14.6983 O.2        2 BB2          0.0000
    40 N4         1.7058   -16.5815    12.8061 N.am       2 BB2          0.0000
    41 C5         0.4767   -16.5479    12.0097 C.3        2 BB2          0.0000
    42 C6        -0.2396   -15.2146    12.2333 C.3        2 BB2          0.0000
    43 C7        -0.1011   -14.3571    11.0018 C.2        2 BB2          0.0000
    44 C8         0.5048   -14.7000     9.8540 C.2        2 BB2          0.0000
    45 N9         0.4323   -13.6657     8.9611 N.pl3      2 BB2          0.0000
    46 C10       -0.2391   -12.6050     9.5268 C.ar       2 BB2          0.0000
    47 C11       -0.5854   -11.3377     9.0703 C.ar       2 BB2          0.0000
    48 C12       -1.2780   -10.4786     9.8956 C.ar       2 BB2          0.0000
    49 C13       -1.6344   -10.8647    11.1802 C.ar       2 BB2          0.0000
    50 C14       -1.3037   -12.1050    11.6492 C.ar       2 BB2          0.0000
    51 C15       -0.6077   -12.9937    10.8279 C.ar       2 BB2          0.0000
    52 C16       -0.4254   -17.6795    12.4301 C.2        2 BB2          0.0000
    53 O18       -0.0536   -18.4728    13.2780 O.2        2 BB2          0.0000
    54 H19        2.6560   -16.4353    16.0258 H          2 BB2          0.0000
    55 H20        3.4257   -17.4648    14.7946 H          2 BB2          0.0000
    56 H21        3.5500   -15.6931    14.6774 H          2 BB2          0.0000
    57 H22        0.7250   -16.6543    10.9537 H          2 BB2          0.0000
    58 H23       -1.2956   -15.3982    12.4313 H          2 BB2          0.0000
    59 H24        0.2060   -14.7012    13.0854 H          2 BB2          0.0000
    60 H25        0.9794   -15.6512     9.6637 H          2 BB2          0.0000
    61 H26       -0.3123   -11.0279     8.0724 H          2 BB2          0.0000
    62 H27       -1.5458    -9.4949     9.5394 H          2 BB2          0.0000
    63 H28       -2.1770   -10.1793    11.8143 H          2 BB2          0.0000
    64 H29       -1.5841   -12.3983    12.6501 H          2 BB2          0.0000
    65 H30        2.5661   -16.6710    12.3669 H          2 BB2          0.0000
    66 H31        0.7993   -13.6779     8.0633 H          2 BB2          0.0000
@<TRIPOS>BOND
     1      1      2 1
     2      1     16 1
     3      1     17 1
     4      1     18 1
     5      2      3 1
     6      2     19 1
     7      2     20 1
     8      3      4 1
     9      3      8 1
    10      3     21 1
    11      4      5 1
    12      4      6 1
    13      4     22 1
    14      5     36 1
    15      6      7 1
    16      6     23 1
    17      6     24 1
    18      7      8 1
    19      7     25 1
    20      7     26 1
    21      8      9 am
    22      9     10 2
    23      9     11 1
    24     11     12 1
    25     12     13 1
    26     12     14 1
    27     12     15 1
    28     13     27 1
    29     13     28 1
    30     13     29 1
    31     14     30 1
    32     14     31 1
    33     14     32 1
    34     15     33 1
    35     15     34 1
    36     15     35 1
    37     37     38 1
    38     37     54 1
    39     37     55 1
    40     37     56 1
    41     38     39 2
    42     38     40 am
    43     40     41 1
    44     40     65 1
    45     41     42 1
    46     41     52 1
    47     41     57 1
    48     42     43 1
    49     42     58 1
    50     42     59 1
    51     43     44 2
    52     43     51 1
    53     44     45 1
    54     44     60 1
    55     45     46 1
    56     45     66 1
    57     46     47 ar
    58     46     51 ar
    59     47     48 ar
    60     47     61 1
    61     48     49 ar
    62     48     62 1
    63     49     50 ar
    64     49     63 1
    65     50     51 ar
    66     50     64 1
    67     52     53 2
    68      5     52 am
@<TRIPOS>SUBSTRUCTURE
     1 BB1           5
     2 BB2          52
@<TRIPOS>MOLECULE
EN300-312564_i001_EN300-1165841_i001_14_15_1
  64   65   2   0   0
SMALL
USER_CHARGES
@<TRIPOS>ATOM
     1 C1         1.9087   -22.4803    14.0994 C.3        1 BB1          0.0000
     2 C2         0.6912   -22.1448    13.2358 C.3        1 BB1          0.0000
     3 C3         0.4426   -20.6354    13.2691 C.3        1 BB1          0.0000
     4 C4         1.5485   -19.9039    12.4796 C.3        1 BB1          0.0000
     5 N5         1.0767   -19.5447    11.1356 N.am       1 BB1          0.0000
     6 C6         1.8000   -18.6317    13.3314 C.3        1 BB1          0.0000
     7 C7         1.6026   -19.1754    14.7684 C.3        1 BB1          0.0000
     8 N8         0.5017   -20.1494    14.6555 N.am       1 BB1          0.0000
     9 C9        -0.3155   -20.5309    15.6571 C.2        1 BB1          0.0000
    10 O10       -1.1343   -21.4093    15.4720 O.2        1 BB1          0.0000
    11 O11       -0.2246   -19.9384    16.8627 O.3        1 BB1          0.0000
    12 C12       -0.8730   -20.6075    17.9764 C.3        1 BB1          0.0000
    13 C13       -0.3982   -22.0603    18.0450 C.3        1 BB1          0.0000
    14 C14       -0.5142   -19.8916    19.2801 C.3        1 BB1          0.0000
    15 C15       -2.3896   -20.5754    17.7776 C.3        1 BB1          0.0000
    16 H16        2.0465   -23.5611    14.1289 H          1 BB1          0.0000
    17 H17        2.7963   -22.0123    13.6736 H          1 BB1          0.0000
    18 H18        1.7508   -22.1064    15.1111 H          1 BB1          0.0000
    19 H19        0.8761   -22.4599    12.2088 H          1 BB1          0.0000
    20 H20       -0.1841   -22.6658    13.6237 H          1 BB1          0.0000
    21 H21       -0.5322   -20.4107    12.8363 H          1 BB1          0.0000
    22 H22        2.4488   -20.5155    12.4201 H          1 BB1          0.0000
    23 H23        2.8152   -18.2611    13.1900 H          1 BB1          0.0000
    24 H24        1.0677   -17.8572    13.1027 H          1 BB1          0.0000
    25 H25        2.5108   -19.6680    15.1157 H          1 BB1          0.0000
    26 H26        1.3259   -18.3670    15.4453 H          1 BB1          0.0000
    27 H27        0.6823   -22.0832    18.1865 H          1 BB1          0.0000
    28 H28       -0.8849   -22.5625    18.8810 H          1 BB1          0.0000
    29 H29       -0.6538   -22.5703    17.1162 H          1 BB1          0.0000
    30 H30       -0.8524   -18.8565    19.2313 H          1 BB1          0.0000
    31 H31       -1.0009   -20.3938    20.1162 H          1 BB1          0.0000
    32 H32        0.5663   -19.9144    19.4217 H          1 BB1          0.0000
    33 H33       -2.6453   -21.0853    16.8488 H          1 BB1          0.0000
    34 H34       -2.8763   -21.0776    18.6137 H          1 BB1          0.0000
    35 H35       -2.7279   -19.5403    17.7287 H          1 BB1          0.0000
    36 H38        1.4812   -18.6618    10.8620 H          1 BB1          0.0000
    37 C1         0.6384   -15.9161    13.9931 C.3        2 BB2          0.0000
    38 C2         1.2587   -16.9663    13.0695 C.3        2 BB2          0.0000
    39 N3         1.2755   -16.4578    11.6914 N.4        2 BB2          1.0000
    40 C4         1.9456   -15.1523    11.6613 C.3        2 BB2          0.0000
    41 C5         2.0379   -14.6552    10.2171 C.3        2 BB2          0.0000
    42 C6         0.6264   -14.5196     9.6385 C.3        2 BB2          0.0000
    43 O7        -0.1000   -13.5351    10.3766 O.3        2 BB2          0.0000
    44 C8        -0.0893   -15.8694     9.7431 C.3        2 BB2          0.0000
    45 C9        -0.1027   -16.3215    11.2050 C.3        2 BB2          0.0000
    46 C10        0.7103   -14.1134     8.2262 C.1        2 BB2          0.0000
    47 C11        0.7773   -13.7894     7.0997 C.1        2 BB2          0.0000
    48 C12        0.4426   -18.2318    13.1281 C.2        2 BB2          0.0000
    49 O14       -0.5672   -18.2751    13.8100 O.2        2 BB2          0.0000
    50 H15       -0.3816   -15.7060    13.6709 H          2 BB2          0.0000
    51 H16        0.6259   -16.2934    15.0157 H          2 BB2          0.0000
    52 H17        1.2287   -15.0008    13.9507 H          2 BB2          0.0000
    53 H18        2.2786   -17.1766    13.3916 H          2 BB2          0.0000
    54 H19        1.3756   -14.4379    12.2553 H          2 BB2          0.0000
    55 H20        2.9488   -15.2497    12.0763 H          2 BB2          0.0000
    56 H21        2.5341   -13.6849    10.1971 H          2 BB2          0.0000
    57 H22        2.6081   -15.3688     9.6222 H          2 BB2          0.0000
    58 H23       -1.1135   -15.7672     9.3844 H          2 BB2          0.0000
    59 H24        0.4368   -16.6082     9.1385 H          2 BB2          0.0000
    60 H25       -0.6118   -17.2822    11.2831 H          2 BB2          0.0000
    61 H26       -0.6292   -15.5823    11.8086 H          2 BB2          0.0000
    62 H27        0.8371   -13.4996     6.0924 H          2 BB2          0.0000
    63 H28        0.4608   -12.9017    10.8452 H          2 BB2          0.0000
    64 H29        1.7758   -17.1053    11.1011 H          2 BB2          0.0000
@<TRIPOS>BOND
     1      1      2 1
     2      1     16 1
     3      1     17 1
     4      1     18 1
     5      2      3 1
     6      2     19 1
     7      2     20 1
     8      3      4 1
     9      3      8 1
    10      3     21 1
    11      4      5 1
    12      4      6 1
    13      4     22 1
    14      5     36 1
    15      6      7 1
    16      6     23 1
    17      6     24 1
    18      7      8 1
    19      7     25 1
    20      7     26 1
    21      8      9 am
    22      9     10 2
    23      9     11 1
    24     11     12 1
    25     12     13 1
    26     12     14 1
    27     12     15 1
    28     13     27 1
    29     13     28 1
    30     13     29 1
    31     14     30 1
    32     14     31 1
    33     14     32 1
    34     15     33 1
    35     15     34 1
    36     15     35 1
    37     37     38 1
    38     37     50 1
    39     37     51 1
    40     37     52 1
    41     38     39 1
    42     38     48 1
    43     38     53 1
    44     39     40 1
    45     39     45 1
    46     39     64 1
    47     40     41 1
    48     40     54 1
    49     40     55 1
    50     41     42 1
    51     41     56 1
    52     41     57 1
    53     42     43 1
    54     42     44 1
    55     42     46 1
    56     43     63 1
    57     44     45 1
    58     44     58 1
    59     44     59 1
    60     45     60 1
    61     45     61 1
    62     46     47 3
    63     47     62 1
    64     48     49 2
    65      5     48 am
@<TRIPOS>SUBSTRUCTURE
     1 BB1           5
     2 BB2          48
@<TRIPOS>MOLECULE
EN300-312564_i001_EN300-1165841_i001_14_8_1
  64   65   2   0   0
SMALL
USER_CHARGES
@<TRIPOS>ATOM
     1 C1         1.9087   -22.4803    14.0994 C.3        1 BB1          0.0000
     2 C2         0.6912   -22.1448    13.2358 C.3        1 BB1          0.0000
     3 C3         0.4426   -20.6354    13.2691 C.3        1 BB1          0.0000
     4 C4         1.5485   -19.9039    12.4796 C.3        1 BB1          0.0000
     5 N5         1.0767   -19.5447    11.1356 N.am       1 BB1          0.0000
     6 C6         1.8000   -18.6317    13.3314 C.3        1 BB1          0.0000
     7 C7         1.6026   -19.1754    14.7684 C.3        1 BB1          0.0000
     8 N8         0.5017   -20.1494    14.6555 N.am       1 BB1          0.0000
     9 C9        -0.3155   -20.5309    15.6571 C.2        1 BB1          0.0000
    10 O10       -1.1343   -21.4093    15.4720 O.2        1 BB1          0.0000
    11 O11       -0.2246   -19.9384    16.8627 O.3        1 BB1          0.0000
    12 C12       -0.8730   -20.6075    17.9764 C.3        1 BB1          0.0000
    13 C13       -0.3982   -22.0603    18.0450 C.3        1 BB1          0.0000
    14 C14       -0.5142   -19.8916    19.2801 C.3        1 BB1          0.0000
    15 C15       -2.3896   -20.5754    17.7776 C.3        1 BB1          0.0000
    16 H16        2.0465   -23.5611    14.1289 H          1 BB1          0.0000
    17 H17        2.7963   -22.0123    13.6736 H          1 BB1          0.0000
    18 H18        1.7508   -22.1064    15.1111 H          1 BB1          0.0000
    19 H19        0.8761   -22.4599    12.2088 H          1 BB1          0.0000
    20 H20       -0.1841   -22.6658    13.6237 H          1 BB1          0.0000
    21 H21       -0.5322   -20.4107    12.8363 H          1 BB1          0.0000
    22 H22        2.4488   -20.5155    12.4201 H          1 BB1          0.0000
    23 H23        2.8152   -18.2611    13.1900 H          1 BB1          0.0000
    24 H24        1.0677   -17.8572    13.1027 H          1 BB1          0.0000
    25 H25        2.5108   -19.6680    15.1157 H          1 BB1          0.0000
    26 H26        1.3259   -18.3670    15.4453 H          1 BB1          0.0000
    27 H27        0.6823   -22.0832    18.1865 H          1 BB1          0.0000
    28 H28       -0.8849   -22.5625    18.8810 H          1 BB1          0.0000
    29 H29       -0.6538   -22.5703    17.1162 H          1 BB1          0.0000
    30 H30       -0.8524   -18.8565    19.2313 H          1 BB1          0.0000
    31 H31       -1.0009   -20.3938    20.1162 H          1 BB1          0.0000
    32 H32        0.5663   -19.9144    19.4217 H          1 BB1          0.0000
    33 H33       -2.6453   -21.0853    16.8488 H          1 BB1          0.0000
    34 H34       -2.8763   -21.0776    18.6137 H          1 BB1          0.0000
    35 H35       -2.7279   -19.5403    17.7287 H          1 BB1          0.0000
    36 H38        1.4812   -18.6618    10.8620 H          1 BB1          0.0000
    37 C1        -0.3818   -16.2066    13.0329 C.3        2 BB2          0.0000
    38 C2         0.5537   -17.0485    12.1630 C.3        2 BB2          0.0000
    39 N3         0.8362   -16.3319    10.9121 N.4        2 BB2          1.0000
    40 C4         1.3775   -15.0033    11.2225 C.3        2 BB2          0.0000
    41 C5         1.7491   -14.2837     9.9243 C.3        2 BB2          0.0000
    42 C6         0.4985   -14.1361     9.0529 C.3        2 BB2          0.0000
    43 O7        -0.4601   -13.3187     9.7273 O.3        2 BB2          0.0000
    44 C8        -0.1000   -15.5224     8.7972 C.3        2 BB2          0.0000
    45 C9        -0.4031   -16.1961    10.1373 C.3        2 BB2          0.0000
    46 C10        0.8628   -13.5114     7.7707 C.1        2 BB2          0.0000
    47 C11        1.1533   -13.0132     6.7481 C.1        2 BB2          0.0000
    48 C12       -0.1037   -18.3676    11.8488 C.2        2 BB2          0.0000
    49 O14       -1.1977   -18.6307    12.3184 O.2        2 BB2          0.0000
    50 H15       -1.3145   -16.0293    12.4972 H          2 BB2          0.0000
    51 H16       -0.5915   -16.7383    13.9611 H          2 BB2          0.0000
    52 H17        0.0937   -15.2526    13.2601 H          2 BB2          0.0000
    53 H18        1.4864   -17.2259    12.6986 H          2 BB2          0.0000
    54 H19        0.6271   -14.4217    11.7579 H          2 BB2          0.0000
    55 H20        2.2657   -15.1099    11.8454 H          2 BB2          0.0000
    56 H21        2.1492   -13.2968    10.1568 H          2 BB2          0.0000
    57 H22        2.4998   -14.8644     9.3882 H          2 BB2          0.0000
    58 H23       -1.0217   -15.4209     8.2242 H          2 BB2          0.0000
    59 H24        0.6123   -16.1288     8.2378 H          2 BB2          0.0000
    60 H25       -0.8295   -17.1832     9.9589 H          2 BB2          0.0000
    61 H26       -1.1156   -15.5891    10.6957 H          2 BB2          0.0000
    62 H27        1.4132   -12.5677     5.8336 H          2 BB2          0.0000
    63 H28       -0.1099   -12.4694    10.0291 H          2 BB2          0.0000
    64 H29        1.5122   -16.8519    10.3731 H          2 BB2          0.0000
@<TRIPOS>BOND
     1      1      2 1
     2      1     16 1
     3      1     17 1
     4      1     18 1
     5      2      3 1
     6      2     19 1
     7      2     20 1
     8      3      4 1
     9      3      8 1
    10      3     21 1
    11      4      5 1
    12      4      6 1
    13      4     22 1
    14      5     36 1
    15      6      7 1
    16      6     23 1
    17      6     24 1
    18      7      8 1
    19      7     25 1
    20      7     26 1
    21      8      9 am
    22      9     10 2
    23      9     11 1
    24     11     12 1
    25     12     13 1
    26     12     14 1
    27     12     15 1
    28     13     27 1
    29     13     28 1
    30     13     29 1
    31     14     30 1
    32     14     31 1
    33     14     32 1
    34     15     33 1
    35     15     34 1
    36     15     35 1
    37     37     38 1
    38     37     50 1
    39     37     51 1
    40     37     52 1
    41     38     39 1
    42     38     48 1
    43     38     53 1
    44     39     40 1
    45     39     45 1
    46     39     64 1
    47     40     41 1
    48     40     54 1
    49     40     55 1
    50     41     42 1
    51     41     56 1
    52     41     57 1
    53     42     43 1
    54     42     44 1
    55     42     46 1
    56     43     63 1
    57     44     45 1
    58     44     58 1
    59     44     59 1
    60     45     60 1
    61     45     61 1
    62     46     47 3
    63     47     62 1
    64     48     49 2
    65      5     48 am
@<TRIPOS>SUBSTRUCTURE
     1 BB1           5
     2 BB2          48
@<TRIPOS>MOLECULE
EN300-312564_i001_EN300-222254_i002_14_5_1
  59   61   2   0   0
SMALL
USER_CHARGES
@<TRIPOS>ATOM
     1 C1         1.9087   -22.4803    14.0994 C.3        1 BB1          0.0000
     2 C2         0.6912   -22.1448    13.2358 C.3        1 BB1          0.0000
     3 C3         0.4426   -20.6354    13.2691 C.3        1 BB1          0.0000
     4 C4         1.5485   -19.9039    12.4796 C.3        1 BB1          0.0000
     5 N5         1.0767   -19.5447    11.1356 N.am       1 BB1          0.0000
     6 C6         1.8000   -18.6317    13.3314 C.3        1 BB1          0.0000
     7 C7         1.6026   -19.1754    14.7684 C.3        1 BB1          0.0000
     8 N8         0.5017   -20.1494    14.6555 N.am       1 BB1          0.0000
     9 C9        -0.3155   -20.5309    15.6571 C.2        1 BB1          0.0000
    10 O10       -1.1343   -21.4093    15.4720 O.2        1 BB1          0.0000
    11 O11       -0.2246   -19.9384    16.8627 O.3        1 BB1          0.0000
    12 C12       -0.8730   -20.6075    17.9764 C.3        1 BB1          0.0000
    13 C13       -0.3982   -22.0603    18.0450 C.3        1 BB1          0.0000
    14 C14       -0.5142   -19.8916    19.2801 C.3        1 BB1          0.0000
    15 C15       -2.3896   -20.5754    17.7776 C.3        1 BB1          0.0000
    16 H16        2.0465   -23.5611    14.1289 H          1 BB1          0.0000
    17 H17        2.7963   -22.0123    13.6736 H          1 BB1          0.0000
    18 H18        1.7508   -22.1064    15.1111 H          1 BB1          0.0000
    19 H19        0.8761   -22.4599    12.2088 H          1 BB1          0.0000
    20 H20       -0.1841   -22.6658    13.6237 H          1 BB1          0.0000
    21 H21       -0.5322   -20.4107    12.8363 H          1 BB1          0.0000
    22 H22        2.4488   -20.5155    12.4201 H          1 BB1          0.0000
    23 H23        2.8152   -18.2611    13.1900 H          1 BB1          0.0000
    24 H24        1.0677   -17.8572    13.1027 H          1 BB1          0.0000
    25 H25        2.5108   -19.6680    15.1157 H          1 BB1          0.0000
    26 H26        1.3259   -18.3670    15.4453 H          1 BB1          0.0000
    27 H27        0.6823   -22.0832    18.1865 H          1 BB1          0.0000
    28 H28       -0.8849   -22.5625    18.8810 H          1 BB1          0.0000
    29 H29       -0.6538   -22.5703    17.1162 H          1 BB1          0.0000
    30 H30       -0.8524   -18.8565    19.2313 H          1 BB1          0.0000
    31 H31       -1.0009   -20.3938    20.1162 H          1 BB1          0.0000
    32 H32        0.5663   -19.9144    19.4217 H          1 BB1          0.0000
    33 H33       -2.6453   -21.0853    16.8488 H          1 BB1          0.0000
    34 H34       -2.8763   -21.0776    18.6137 H          1 BB1          0.0000
    35 H35       -2.7279   -19.5403    17.7287 H          1 BB1          0.0000
    36 H38        1.4812   -18.6618    10.8620 H          1 BB1          0.0000
    37 O1        -1.3026   -18.3279    11.9987 O.2        2 BB2          0.0000
    38 C2        -0.2199   -18.0240    11.5274 C.2        2 BB2          0.0000
    39 C4         0.4513   -16.7417    11.9469 C.3        2 BB2          0.0000
    40 C5         0.3957   -16.4843    13.4620 C.3        2 BB2          0.0000
    41 C6         0.1354   -15.0073    13.1221 C.3        2 BB2          0.0000
    42 C7        -0.4385   -15.4982    11.7826 C.3        2 BB2          0.0000
    43 C8        -0.0565   -14.6334    10.6090 C.ar       2 BB2          0.0000
    44 C9         0.7402   -15.1462     9.6033 C.ar       2 BB2          0.0000
    45 C10        1.0915   -14.3534     8.5266 C.ar       2 BB2          0.0000
    46 C11        0.6453   -13.0460     8.4545 C.ar       2 BB2          0.0000
    47 Cl12       1.0865   -12.0515     7.1016 Cl         2 BB2          0.0000
    48 C13       -0.1529   -12.5311     9.4602 C.ar       2 BB2          0.0000
    49 C14       -0.5089   -13.3266    10.5357 C.ar       2 BB2          0.0000
    50 F15       -1.2887   -12.8251    11.5183 F          2 BB2          0.0000
    51 H16        1.4479   -16.6265    11.5208 H          2 BB2          0.0000
    52 H17       -0.4434   -16.9727    13.9575 H          2 BB2          0.0000
    53 H18        1.3454   -16.6548    13.9691 H          2 BB2          0.0000
    54 H19       -0.6051   -14.5347    13.7674 H          2 BB2          0.0000
    55 H20        1.0454   -14.4165    13.0170 H          2 BB2          0.0000
    56 H21       -1.5057   -15.7171    11.8188 H          2 BB2          0.0000
    57 H22        1.0892   -16.1669     9.6586 H          2 BB2          0.0000
    58 H23        1.7149   -14.7550     7.7413 H          2 BB2          0.0000
    59 H24       -0.5014   -11.5105     9.4043 H          2 BB2          0.0000
@<TRIPOS>BOND
     1      1      2 1
     2      1     16 1
     3      1     17 1
     4      1     18 1
     5      2      3 1
     6      2     19 1
     7      2     20 1
     8      3      4 1
     9      3      8 1
    10      3     21 1
    11      4      5 1
    12      4      6 1
    13      4     22 1
    14      5     36 1
    15      6      7 1
    16      6     23 1
    17      6     24 1
    18      7      8 1
    19      7     25 1
    20      7     26 1
    21      8      9 am
    22      9     10 2
    23      9     11 1
    24     11     12 1
    25     12     13 1
    26     12     14 1
    27     12     15 1
    28     13     27 1
    29     13     28 1
    30     13     29 1
    31     14     30 1
    32     14     31 1
    33     14     32 1
    34     15     33 1
    35     15     34 1
    36     15     35 1
    37     37     38 2
    38     38     39 1
    39     39     40 1
    40     39     42 1
    41     39     51 1
    42     40     41 1
    43     40     52 1
    44     40     53 1
    45     41     42 1
    46     41     54 1
    47     41     55 1
    48     42     43 1
    49     42     56 1
    50     43     44 ar
    51     43     49 ar
    52     44     45 ar
    53     44     57 1
    54     45     46 ar
    55     45     58 1
    56     46     47 1
    57     46     48 ar
    58     48     49 ar
    59     48     59 1
    60     49     50 1
    61      5     38 am
@<TRIPOS>SUBSTRUCTURE
     1 BB1           5
     2 BB2          38
@<TRIPOS>MOLECULE
EN300-312564_i001_EN300-344045_i001_14_1_1
  65   67   2   0   0
SMALL
USER_CHARGES
@<TRIPOS>ATOM
     1 C1         1.9087   -22.4803    14.0994 C.3        1 BB1          0.0000
     2 C2         0.6912   -22.1448    13.2358 C.3        1 BB1          0.0000
     3 C3         0.4426   -20.6354    13.2691 C.3        1 BB1          0.0000
     4 C4         1.5485   -19.9039    12.4796 C.3        1 BB1          0.0000
     5 N5         1.0767   -19.5447    11.1356 N.am       1 BB1          0.0000
     6 C6         1.8000   -18.6317    13.3314 C.3        1 BB1          0.0000
     7 C7         1.6026   -19.1754    14.7684 C.3        1 BB1          0.0000
     8 N8         0.5017   -20.1494    14.6555 N.am       1 BB1          0.0000
     9 C9        -0.3155   -20.5309    15.6571 C.2        1 BB1          0.0000
    10 O10       -1.1343   -21.4093    15.4720 O.2        1 BB1          0.0000
    11 O11       -0.2246   -19.9384    16.8627 O.3        1 BB1          0.0000
    12 C12       -0.8730   -20.6075    17.9764 C.3        1 BB1          0.0000
    13 C13       -0.3982   -22.0603    18.0450 C.3        1 BB1          0.0000
    14 C14       -0.5142   -19.8916    19.2801 C.3        1 BB1          0.0000
    15 C15       -2.3896   -20.5754    17.7776 C.3        1 BB1          0.0000
    16 H16        2.0465   -23.5611    14.1289 H          1 BB1          0.0000
    17 H17        2.7963   -22.0123    13.6736 H          1 BB1          0.0000
    18 H18        1.7508   -22.1064    15.1111 H          1 BB1          0.0000
    19 H19        0.8761   -22.4599    12.2088 H          1 BB1          0.0000
    20 H20       -0.1841   -22.6658    13.6237 H          1 BB1          0.0000
    21 H21       -0.5322   -20.4107    12.8363 H          1 BB1          0.0000
    22 H22        2.4488   -20.5155    12.4201 H          1 BB1          0.0000
    23 H23        2.8152   -18.2611    13.1900 H          1 BB1          0.0000
    24 H24        1.0677   -17.8572    13.1027 H          1 BB1          0.0000
    25 H25        2.5108   -19.6680    15.1157 H          1 BB1          0.0000
    26 H26        1.3259   -18.3670    15.4453 H          1 BB1          0.0000
    27 H27        0.6823   -22.0832    18.1865 H          1 BB1          0.0000
    28 H28       -0.8849   -22.5625    18.8810 H          1 BB1          0.0000
    29 H29       -0.6538   -22.5703    17.1162 H          1 BB1          0.0000
    30 H30       -0.8524   -18.8565    19.2313 H          1 BB1          0.0000
    31 H31       -1.0009   -20.3938    20.1162 H          1 BB1          0.0000
    32 H32        0.5663   -19.9144    19.4217 H          1 BB1          0.0000
    33 H33       -2.6453   -21.0853    16.8488 H          1 BB1          0.0000
    34 H34       -2.8763   -21.0776    18.6137 H          1 BB1          0.0000
    35 H35       -2.7279   -19.5403    17.7287 H          1 BB1          0.0000
    36 H38        1.4812   -18.6618    10.8620 H          1 BB1          0.0000
    37 C2        -0.2137   -18.6006    12.4272 C.2        2 BB2          0.0000
    38 O3        -1.2065   -19.1334    12.8932 O.2        2 BB2          0.0000
    39 C4        -0.3490   -17.3503    11.5969 C.3        2 BB2          0.0000
    40 C5         0.2642   -16.1686    12.3508 C.3        2 BB2          0.0000
    41 C6        -0.3928   -16.0296    13.7397 C.3        2 BB2          0.0000
    42 C7         0.5671   -16.7859    14.6913 C.3        2 BB2          0.0000
    43 C8         1.9633   -16.4253    14.1259 C.3        2 BB2          0.0000
    44 C9         1.7622   -16.4202    12.5964 C.3        2 BB2          0.0000
    45 C10        0.0756   -14.8990    11.5612 C.ar       2 BB2          0.0000
    46 C11       -0.8022   -13.9299    12.0099 C.ar       2 BB2          0.0000
    47 C12       -0.9752   -12.7654    11.2855 C.ar       2 BB2          0.0000
    48 C13       -0.2700   -12.5696    10.1128 C.ar       2 BB2          0.0000
    49 C14        0.6084   -13.5382     9.6645 C.ar       2 BB2          0.0000
    50 C15        0.7846   -14.7010    10.3912 C.ar       2 BB2          0.0000
    51 H16        0.1712   -17.4857    10.6486 H          2 BB2          0.0000
    52 H17       -1.4041   -17.1523    11.4074 H          2 BB2          0.0000
    53 H18       -0.4640   -14.9799    14.0247 H          2 BB2          0.0000
    54 H19       -1.3787   -16.4946    13.7437 H          2 BB2          0.0000
    55 H20        0.4599   -16.4255    15.7146 H          2 BB2          0.0000
    56 H21        0.3951   -17.8610    14.6392 H          2 BB2          0.0000
    57 H22        2.2727   -15.4396    14.4733 H          2 BB2          0.0000
    58 H23        2.6969   -17.1791    14.4117 H          2 BB2          0.0000
    59 H24        2.0523   -17.3841    12.1785 H          2 BB2          0.0000
    60 H25        2.3535   -15.6237    12.1447 H          2 BB2          0.0000
    61 H26       -1.3531   -14.0828    12.9261 H          2 BB2          0.0000
    62 H27       -1.6616   -12.0086    11.6357 H          2 BB2          0.0000
    63 H28       -0.4058   -11.6601     9.5465 H          2 BB2          0.0000
    64 H29        1.1591   -13.3855     8.7481 H          2 BB2          0.0000
    65 H30        1.4710   -15.4578    10.0410 H          2 BB2          0.0000
@<TRIPOS>BOND
     1      1      2 1
     2      1     16 1
     3      1     17 1
     4      1     18 1
     5      2      3 1
     6      2     19 1
     7      2     20 1
     8      3      4 1
     9      3      8 1
    10      3     21 1
    11      4      5 1
    12      4      6 1
    13      4     22 1
    14      5     36 1
    15      6      7 1
    16      6     23 1
    17      6     24 1
    18      7      8 1
    19      7     25 1
    20      7     26 1
    21      8      9 am
    22      9     10 2
    23      9     11 1
    24     11     12 1
    25     12     13 1
    26     12     14 1
    27     12     15 1
    28     13     27 1
    29     13     28 1
    30     13     29 1
    31     14     30 1
    32     14     31 1
    33     14     32 1
    34     15     33 1
    35     15     34 1
    36     15     35 1
    37     37     38 2
    38     37     39 1
    39     39     40 1
    40     39     51 1
    41     39     52 1
    42     40     41 1
    43     40     44 1
    44     40     45 1
    45     41     42 1
    46     41     53 1
    47     41     54 1
    48     42     43 1
    49     42     55 1
    50     42     56 1
    51     43     44 1
    52     43     57 1
    53     43     58 1
    54     44     59 1
    55     44     60 1
    56     45     46 ar
    57     45     50 ar
    58     46     47 ar
    59     46     61 1
    60     47     48 ar
    61     47     62 1
    62     48     49 ar
    63     48     63 1
    64     49     50 ar
    65     49     64 1
    66     50     65 1
    67      5     37 am
@<TRIPOS>SUBSTRUCTURE
     1 BB1           5
     2 BB2          37
@<TRIPOS>MOLECULE
EN300-312564_i001_EN300-344045_i001_14_12_1
  65   67   2   0   0
SMALL
USER_CHARGES
@<TRIPOS>ATOM
     1 C1         1.9087   -22.4803    14.0994 C.3        1 BB1          0.0000
     2 C2         0.6912   -22.1448    13.2358 C.3        1 BB1          0.0000
     3 C3         0.4426   -20.6354    13.2691 C.3        1 BB1          0.0000
     4 C4         1.5485   -19.9039    12.4796 C.3        1 BB1          0.0000
     5 N5         1.0767   -19.5447    11.1356 N.am       1 BB1          0.0000
     6 C6         1.8000   -18.6317    13.3314 C.3        1 BB1          0.0000
     7 C7         1.6026   -19.1754    14.7684 C.3        1 BB1          0.0000
     8 N8         0.5017   -20.1494    14.6555 N.am       1 BB1          0.0000
     9 C9        -0.3155   -20.5309    15.6571 C.2        1 BB1          0.0000
    10 O10       -1.1343   -21.4093    15.4720 O.2        1 BB1          0.0000
    11 O11       -0.2246   -19.9384    16.8627 O.3        1 BB1          0.0000
    12 C12       -0.8730   -20.6075    17.9764 C.3        1 BB1          0.0000
    13 C13       -0.3982   -22.0603    18.0450 C.3        1 BB1          0.0000
    14 C14       -0.5142   -19.8916    19.2801 C.3        1 BB1          0.0000
    15 C15       -2.3896   -20.5754    17.7776 C.3        1 BB1          0.0000
    16 H16        2.0465   -23.5611    14.1289 H          1 BB1          0.0000
    17 H17        2.7963   -22.0123    13.6736 H          1 BB1          0.0000
    18 H18        1.7508   -22.1064    15.1111 H          1 BB1          0.0000
    19 H19        0.8761   -22.4599    12.2088 H          1 BB1          0.0000
    20 H20       -0.1841   -22.6658    13.6237 H          1 BB1          0.0000
    21 H21       -0.5322   -20.4107    12.8363 H          1 BB1          0.0000
    22 H22        2.4488   -20.5155    12.4201 H          1 BB1          0.0000
    23 H23        2.8152   -18.2611    13.1900 H          1 BB1          0.0000
    24 H24        1.0677   -17.8572    13.1027 H          1 BB1          0.0000
    25 H25        2.5108   -19.6680    15.1157 H          1 BB1          0.0000
    26 H26        1.3259   -18.3670    15.4453 H          1 BB1          0.0000
    27 H27        0.6823   -22.0832    18.1865 H          1 BB1          0.0000
    28 H28       -0.8849   -22.5625    18.8810 H          1 BB1          0.0000
    29 H29       -0.6538   -22.5703    17.1162 H          1 BB1          0.0000
    30 H30       -0.8524   -18.8565    19.2313 H          1 BB1          0.0000
    31 H31       -1.0009   -20.3938    20.1162 H          1 BB1          0.0000
    32 H32        0.5663   -19.9144    19.4217 H          1 BB1          0.0000
    33 H33       -2.6453   -21.0853    16.8488 H          1 BB1          0.0000
    34 H34       -2.8763   -21.0776    18.6137 H          1 BB1          0.0000
    35 H35       -2.7279   -19.5403    17.7287 H          1 BB1          0.0000
    36 H38        1.4812   -18.6618    10.8620 H          1 BB1          0.0000
    37 O1        -1.1846   -18.6350    13.0120 O.2        2 BB2          0.0000
    38 C2        -0.2334   -18.4183    12.2808 C.2        2 BB2          0.0000
    39 C4        -0.3910   -17.5103    11.0884 C.3        2 BB2          0.0000
    40 C5         0.1966   -16.1356    11.4131 C.3        2 BB2          0.0000
    41 C6        -0.7206   -15.3895    12.4041 C.3        2 BB2          0.0000
    42 C7        -0.0986   -15.6830    13.7919 C.3        2 BB2          0.0000
    43 C8         1.4221   -15.6418    13.5007 C.3        2 BB2          0.0000
    44 C9         1.5589   -16.2959    12.1103 C.3        2 BB2          0.0000
    45 C10        0.3541   -15.3302    10.1491 C.ar       2 BB2          0.0000
    46 C11       -0.1133   -15.8304     8.9482 C.ar       2 BB2          0.0000
    47 C12        0.0312   -15.0917     7.7887 C.ar       2 BB2          0.0000
    48 C13        0.6427   -13.8526     7.8303 C.ar       2 BB2          0.0000
    49 C14        1.1093   -13.3521     9.0314 C.ar       2 BB2          0.0000
    50 C15        0.9609   -14.0889    10.1916 C.ar       2 BB2          0.0000
    51 H16        0.1345   -17.9376    10.2343 H          2 BB2          0.0000
    52 H17       -1.4492   -17.4057    10.8487 H          2 BB2          0.0000
    53 H18       -0.7110   -14.3187    12.2006 H          2 BB2          0.0000
    54 H19       -1.7369   -15.7798    12.3513 H          2 BB2          0.0000
    55 H20       -0.3755   -14.9114    14.5104 H          2 BB2          0.0000
    56 H21       -0.3971   -16.6690    14.1482 H          2 BB2          0.0000
    57 H22        1.7776   -14.6117    13.4744 H          2 BB2          0.0000
    58 H23        1.9694   -16.2162    14.2481 H          2 BB2          0.0000
    59 H24        1.8013   -17.3532    12.2174 H          2 BB2          0.0000
    60 H25        2.3347   -15.7910    11.5348 H          2 BB2          0.0000
    61 H26       -0.5910   -16.7984     8.9156 H          2 BB2          0.0000
    62 H27       -0.3332   -15.4828     6.8503 H          2 BB2          0.0000
    63 H28        0.7562   -13.2758     6.9244 H          2 BB2          0.0000
    64 H29        1.5873   -12.3841     9.0639 H          2 BB2          0.0000
    65 H30        1.3254   -13.6979    11.1300 H          2 BB2          0.0000
@<TRIPOS>BOND
     1      1      2 1
     2      1     16 1
     3      1     17 1
     4      1     18 1
     5      2      3 1
     6      2     19 1
     7      2     20 1
     8      3      4 1
     9      3      8 1
    10      3     21 1
    11      4      5 1
    12      4      6 1
    13      4     22 1
    14      5     36 1
    15      6      7 1
    16      6     23 1
    17      6     24 1
    18      7      8 1
    19      7     25 1
    20      7     26 1
    21      8      9 am
    22      9     10 2
    23      9     11 1
    24     11     12 1
    25     12     13 1
    26     12     14 1
    27     12     15 1
    28     13     27 1
    29     13     28 1
    30     13     29 1
    31     14     30 1
    32     14     31 1
    33     14     32 1
    34     15     33 1
    35     15     34 1
    36     15     35 1
    37     37     38 2
    38     38     39 1
    39     39     40 1
    40     39     51 1
    41     39     52 1
    42     40     41 1
    43     40     44 1
    44     40     45 1
    45     41     42 1
    46     41     53 1
    47     41     54 1
    48     42     43 1
    49     42     55 1
    50     42     56 1
    51     43     44 1
    52     43     57 1
    53     43     58 1
    54     44     59 1
    55     44     60 1
    56     45     46 ar
    57     45     50 ar
    58     46     47 ar
    59     46     61 1
    60     47     48 ar
    61     47     62 1
    62     48     49 ar
    63     48     63 1
    64     49     50 ar
    65     49     64 1
    66     50     65 1
    67      5     38 am
@<TRIPOS>SUBSTRUCTURE
     1 BB1           5
     2 BB2          38
@<TRIPOS>MOLECULE
EN300-312564_i001_EN300-43851_i001_14_12_1
  58   60   2   0   0
SMALL
USER_CHARGES
@<TRIPOS>ATOM
     1 C1         1.9087   -22.4803    14.0994 C.3        1 BB1          0.0000
     2 C2         0.6912   -22.1448    13.2358 C.3        1 BB1          0.0000
     3 C3         0.4426   -20.6354    13.2691 C.3        1 BB1          0.0000
     4 C4         1.5485   -19.9039    12.4796 C.3        1 BB1          0.0000
     5 N5         1.0767   -19.5447    11.1356 N.am       1 BB1          0.0000
     6 C6         1.8000   -18.6317    13.3314 C.3        1 BB1          0.0000
     7 C7         1.6026   -19.1754    14.7684 C.3        1 BB1          0.0000
     8 N8         0.5017   -20.1494    14.6555 N.am       1 BB1          0.0000
     9 C9        -0.3155   -20.5309    15.6571 C.2        1 BB1          0.0000
    10 O10       -1.1343   -21.4093    15.4720 O.2        1 BB1          0.0000
    11 O11       -0.2246   -19.9384    16.8627 O.3        1 BB1          0.0000
    12 C12       -0.8730   -20.6075    17.9764 C.3        1 BB1          0.0000
    13 C13       -0.3982   -22.0603    18.0450 C.3        1 BB1          0.0000
    14 C14       -0.5142   -19.8916    19.2801 C.3        1 BB1          0.0000
    15 C15       -2.3896   -20.5754    17.7776 C.3        1 BB1          0.0000
    16 H16        2.0465   -23.5611    14.1289 H          1 BB1          0.0000
    17 H17        2.7963   -22.0123    13.6736 H          1 BB1          0.0000
    18 H18        1.7508   -22.1064    15.1111 H          1 BB1          0.0000
    19 H19        0.8761   -22.4599    12.2088 H          1 BB1          0.0000
    20 H20       -0.1841   -22.6658    13.6237 H          1 BB1          0.0000
    21 H21       -0.5322   -20.4107    12.8363 H          1 BB1          0.0000
    22 H22        2.4488   -20.5155    12.4201 H          1 BB1          0.0000
    23 H23        2.8152   -18.2611    13.1900 H          1 BB1          0.0000
    24 H24        1.0677   -17.8572    13.1027 H          1 BB1          0.0000
    25 H25        2.5108   -19.6680    15.1157 H          1 BB1          0.0000
    26 H26        1.3259   -18.3670    15.4453 H          1 BB1          0.0000
    27 H27        0.6823   -22.0832    18.1865 H          1 BB1          0.0000
    28 H28       -0.8849   -22.5625    18.8810 H          1 BB1          0.0000
    29 H29       -0.6538   -22.5703    17.1162 H          1 BB1          0.0000
    30 H30       -0.8524   -18.8565    19.2313 H          1 BB1          0.0000
    31 H31       -1.0009   -20.3938    20.1162 H          1 BB1          0.0000
    32 H32        0.5663   -19.9144    19.4217 H          1 BB1          0.0000
    33 H33       -2.6453   -21.0853    16.8488 H          1 BB1          0.0000
    34 H34       -2.8763   -21.0776    18.6137 H          1 BB1          0.0000
    35 H35       -2.7279   -19.5403    17.7287 H          1 BB1          0.0000
    36 H38        1.4812   -18.6618    10.8620 H          1 BB1          0.0000
    37 C1        -0.1545   -16.5801    14.7002 C.3        2 BB2          0.0000
    38 C2        -0.0923   -16.3980    13.2056 C.2        2 BB2          0.0000
    39 N3         0.1184   -15.2748    12.5608 N.2        2 BB2          0.0000
    40 N4         0.0938   -15.5716    11.1917 N.pl3      2 BB2          0.0000
    41 N5        -0.1249   -16.8312    11.0421 N.2        2 BB2          0.0000
    42 C6        -0.2427   -17.4003    12.2295 C.2        2 BB2          0.0000
    43 C7        -0.4968   -18.8298    12.4854 C.2        2 BB2          0.0000
    44 O8        -0.9774   -19.1840    13.5529 O.2        2 BB2          0.0000
    45 C10        0.2772   -14.6474    10.1542 C.ar       2 BB2          0.0000
    46 C11        0.7894   -15.0657     8.9332 C.ar       2 BB2          0.0000
    47 C12        0.9695   -14.1537     7.9122 C.ar       2 BB2          0.0000
    48 C13        0.6398   -12.8224     8.1054 C.ar       2 BB2          0.0000
    49 F14        0.8164   -11.9316     7.1052 F          2 BB2          0.0000
    50 C15        0.1289   -12.4032     9.3226 C.ar       2 BB2          0.0000
    51 C16       -0.0581   -13.3134    10.3442 C.ar       2 BB2          0.0000
    52 H17       -1.1814   -16.4464    15.0401 H          2 BB2          0.0000
    53 H18        0.1861   -17.5828    14.9586 H          2 BB2          0.0000
    54 H19        0.4870   -15.8429    15.1831 H          2 BB2          0.0000
    55 H20        1.0470   -16.1036     8.7822 H          2 BB2          0.0000
    56 H21        1.3681   -14.4785     6.9625 H          2 BB2          0.0000
    57 H22       -0.1276   -11.3648     9.4714 H          2 BB2          0.0000
    58 H23       -0.4568   -12.9862    11.2931 H          2 BB2          0.0000
@<TRIPOS>BOND
     1      1      2 1
     2      1     16 1
     3      1     17 1
     4      1     18 1
     5      2      3 1
     6      2     19 1
     7      2     20 1
     8      3      4 1
     9      3      8 1
    10      3     21 1
    11      4      5 1
    12      4      6 1
    13      4     22 1
    14      5     36 1
    15      6      7 1
    16      6     23 1
    17      6     24 1
    18      7      8 1
    19      7     25 1
    20      7     26 1
    21      8      9 am
    22      9     10 2
    23      9     11 1
    24     11     12 1
    25     12     13 1
    26     12     14 1
    27     12     15 1
    28     13     27 1
    29     13     28 1
    30     13     29 1
    31     14     30 1
    32     14     31 1
    33     14     32 1
    34     15     33 1
    35     15     34 1
    36     15     35 1
    37     37     38 1
    38     37     52 1
    39     37     53 1
    40     37     54 1
    41     38     39 2
    42     38     42 1
    43     39     40 1
    44     40     41 1
    45     40     45 1
    46     41     42 2
    47     42     43 1
    48     43     44 2
    49     45     46 ar
    50     45     51 ar
    51     46     47 ar
    52     46     55 1
    53     47     48 ar
    54     47     56 1
    55     48     49 1
    56     48     50 ar
    57     50     51 ar
    58     50     57 1
    59     51     58 1
    60      5     43 am
@<TRIPOS>SUBSTRUCTURE
     1 BB1           5
     2 BB2          43
@<TRIPOS>MOLECULE
EN300-312564_i001_EN300-43851_i001_14_19_1
  58   60   2   0   0
SMALL
USER_CHARGES
@<TRIPOS>ATOM
     1 C1         1.9087   -22.4803    14.0994 C.3        1 BB1          0.0000
     2 C2         0.6912   -22.1448    13.2358 C.3        1 BB1          0.0000
     3 C3         0.4426   -20.6354    13.2691 C.3        1 BB1          0.0000
     4 C4         1.5485   -19.9039    12.4796 C.3        1 BB1          0.0000
     5 N5         1.0767   -19.5447    11.1356 N.am       1 BB1          0.0000
     6 C6         1.8000   -18.6317    13.3314 C.3        1 BB1          0.0000
     7 C7         1.6026   -19.1754    14.7684 C.3        1 BB1          0.0000
     8 N8         0.5017   -20.1494    14.6555 N.am       1 BB1          0.0000
     9 C9        -0.3155   -20.5309    15.6571 C.2        1 BB1          0.0000
    10 O10       -1.1343   -21.4093    15.4720 O.2        1 BB1          0.0000
    11 O11       -0.2246   -19.9384    16.8627 O.3        1 BB1          0.0000
    12 C12       -0.8730   -20.6075    17.9764 C.3        1 BB1          0.0000
    13 C13       -0.3982   -22.0603    18.0450 C.3        1 BB1          0.0000
    14 C14       -0.5142   -19.8916    19.2801 C.3        1 BB1          0.0000
    15 C15       -2.3896   -20.5754    17.7776 C.3        1 BB1          0.0000
    16 H16        2.0465   -23.5611    14.1289 H          1 BB1          0.0000
    17 H17        2.7963   -22.0123    13.6736 H          1 BB1          0.0000
    18 H18        1.7508   -22.1064    15.1111 H          1 BB1          0.0000
    19 H19        0.8761   -22.4599    12.2088 H          1 BB1          0.0000
    20 H20       -0.1841   -22.6658    13.6237 H          1 BB1          0.0000
    21 H21       -0.5322   -20.4107    12.8363 H          1 BB1          0.0000
    22 H22        2.4488   -20.5155    12.4201 H          1 BB1          0.0000
    23 H23        2.8152   -18.2611    13.1900 H          1 BB1          0.0000
    24 H24        1.0677   -17.8572    13.1027 H          1 BB1          0.0000
    25 H25        2.5108   -19.6680    15.1157 H          1 BB1          0.0000
    26 H26        1.3259   -18.3670    15.4453 H          1 BB1          0.0000
    27 H27        0.6823   -22.0832    18.1865 H          1 BB1          0.0000
    28 H28       -0.8849   -22.5625    18.8810 H          1 BB1          0.0000
    29 H29       -0.6538   -22.5703    17.1162 H          1 BB1          0.0000
    30 H30       -0.8524   -18.8565    19.2313 H          1 BB1          0.0000
    31 H31       -1.0009   -20.3938    20.1162 H          1 BB1          0.0000
    32 H32        0.5663   -19.9144    19.4217 H          1 BB1          0.0000
    33 H33       -2.6453   -21.0853    16.8488 H          1 BB1          0.0000
    34 H34       -2.8763   -21.0776    18.6137 H          1 BB1          0.0000
    35 H35       -2.7279   -19.5403    17.7287 H          1 BB1          0.0000
    36 H38        1.4812   -18.6618    10.8620 H          1 BB1          0.0000
    37 C1         2.0019   -16.3259    13.9774 C.3        2 BB2          0.0000
    38 C2         1.3228   -16.0664    12.6574 C.2        2 BB2          0.0000
    39 N3         1.6647   -15.1695    11.7628 N.2        2 BB2          0.0000
    40 N4         0.7609   -15.2802    10.6980 N.pl3      2 BB2          0.0000
    41 N5        -0.0838   -16.2143    10.9636 N.2        2 BB2          0.0000
    42 C6         0.2020   -16.7427    12.1413 C.2        2 BB2          0.0000
    43 C7        -0.5299   -17.8391    12.8012 C.2        2 BB2          0.0000
    44 O9        -1.0652   -18.7090    12.1284 O.2        2 BB2          0.0000
    45 C10        0.7743   -14.5006     9.5334 C.ar       2 BB2          0.0000
    46 C11        1.0687   -13.1456     9.6073 C.ar       2 BB2          0.0000
    47 C12        1.0813   -12.3791     8.4589 C.ar       2 BB2          0.0000
    48 C13        0.8007   -12.9610     7.2337 C.ar       2 BB2          0.0000
    49 F14        0.8139   -12.2095     6.1111 F          2 BB2          0.0000
    50 C15        0.5067   -14.3124     7.1579 C.ar       2 BB2          0.0000
    51 C16        0.4988   -15.0834     8.3035 C.ar       2 BB2          0.0000
    52 H17        1.5486   -15.7024    14.7480 H          2 BB2          0.0000
    53 H18        1.8864   -17.3761    14.2452 H          2 BB2          0.0000
    54 H19        3.0621   -16.0868    13.8937 H          2 BB2          0.0000
    55 H20        1.2872   -12.6913    10.5625 H          2 BB2          0.0000
    56 H21        1.3099   -11.3251     8.5159 H          2 BB2          0.0000
    57 H22        0.2881   -14.7643     6.2017 H          2 BB2          0.0000
    58 H23        0.2699   -16.1372     8.2439 H          2 BB2          0.0000
@<TRIPOS>BOND
     1      1      2 1
     2      1     16 1
     3      1     17 1
     4      1     18 1
     5      2      3 1
     6      2     19 1
     7      2     20 1
     8      3      4 1
     9      3      8 1
    10      3     21 1
    11      4      5 1
    12      4      6 1
    13      4     22 1
    14      5     36 1
    15      6      7 1
    16      6     23 1
    17      6     24 1
    18      7      8 1
    19      7     25 1
    20      7     26 1
    21      8      9 am
    22      9     10 2
    23      9     11 1
    24     11     12 1
    25     12     13 1
    26     12     14 1
    27     12     15 1
    28     13     27 1
    29     13     28 1
    30     13     29 1
    31     14     30 1
    32     14     31 1
    33     14     32 1
    34     15     33 1
    35     15     34 1
    36     15     35 1
    37     37     38 1
    38     37     52 1
    39     37     53 1
    40     37     54 1
    41     38     39 2
    42     38     42 1
    43     39     40 1
    44     40     41 1
    45     40     45 1
    46     41     42 2
    47     42     43 1
    48     43     44 2
    49     45     46 ar
    50     45     51 ar
    51     46     47 ar
    52     46     55 1
    53     47     48 ar
    54     47     56 1
    55     48     49 1
    56     48     50 ar
    57     50     51 ar
    58     50     57 1
    59     51     58 1
    60      5     43 am
@<TRIPOS>SUBSTRUCTURE
     1 BB1           5
     2 BB2          43
@<TRIPOS>MOLECULE
EN300-312564_i001_EN300-43851_i001_14_5_1
  58   60   2   0   0
SMALL
USER_CHARGES
@<TRIPOS>ATOM
     1 C1         1.9087   -22.4803    14.0994 C.3        1 BB1          0.0000
     2 C2         0.6912   -22.1448    13.2358 C.3        1 BB1          0.0000
     3 C3         0.4426   -20.6354    13.2691 C.3        1 BB1          0.0000
     4 C4         1.5485   -19.9039    12.4796 C.3        1 BB1          0.0000
     5 N5         1.0767   -19.5447    11.1356 N.am       1 BB1          0.0000
     6 C6         1.8000   -18.6317    13.3314 C.3        1 BB1          0.0000
     7 C7         1.6026   -19.1754    14.7684 C.3        1 BB1          0.0000
     8 N8         0.5017   -20.1494    14.6555 N.am       1 BB1          0.0000
     9 C9        -0.3155   -20.5309    15.6571 C.2        1 BB1          0.0000
    10 O10       -1.1343   -21.4093    15.4720 O.2        1 BB1          0.0000
    11 O11       -0.2246   -19.9384    16.8627 O.3        1 BB1          0.0000
    12 C12       -0.8730   -20.6075    17.9764 C.3        1 BB1          0.0000
    13 C13       -0.3982   -22.0603    18.0450 C.3        1 BB1          0.0000
    14 C14       -0.5142   -19.8916    19.2801 C.3        1 BB1          0.0000
    15 C15       -2.3896   -20.5754    17.7776 C.3        1 BB1          0.0000
    16 H16        2.0465   -23.5611    14.1289 H          1 BB1          0.0000
    17 H17        2.7963   -22.0123    13.6736 H          1 BB1          0.0000
    18 H18        1.7508   -22.1064    15.1111 H          1 BB1          0.0000
    19 H19        0.8761   -22.4599    12.2088 H          1 BB1          0.0000
    20 H20       -0.1841   -22.6658    13.6237 H          1 BB1          0.0000
    21 H21       -0.5322   -20.4107    12.8363 H          1 BB1          0.0000
    22 H22        2.4488   -20.5155    12.4201 H          1 BB1          0.0000
    23 H23        2.8152   -18.2611    13.1900 H          1 BB1          0.0000
    24 H24        1.0677   -17.8572    13.1027 H          1 BB1          0.0000
    25 H25        2.5108   -19.6680    15.1157 H          1 BB1          0.0000
    26 H26        1.3259   -18.3670    15.4453 H          1 BB1          0.0000
    27 H27        0.6823   -22.0832    18.1865 H          1 BB1          0.0000
    28 H28       -0.8849   -22.5625    18.8810 H          1 BB1          0.0000
    29 H29       -0.6538   -22.5703    17.1162 H          1 BB1          0.0000
    30 H30       -0.8524   -18.8565    19.2313 H          1 BB1          0.0000
    31 H31       -1.0009   -20.3938    20.1162 H          1 BB1          0.0000
    32 H32        0.5663   -19.9144    19.4217 H          1 BB1          0.0000
    33 H33       -2.6453   -21.0853    16.8488 H          1 BB1          0.0000
    34 H34       -2.8763   -21.0776    18.6137 H          1 BB1          0.0000
    35 H35       -2.7279   -19.5403    17.7287 H          1 BB1          0.0000
    36 H38        1.4812   -18.6618    10.8620 H          1 BB1          0.0000
    37 C1        -0.4310   -15.6953    13.9759 C.3        2 BB2          0.0000
    38 C2        -0.1974   -15.7006    12.4871 C.2        2 BB2          0.0000
    39 N3         0.0545   -14.6594    11.7295 N.2        2 BB2          0.0000
    40 N4         0.2015   -15.1272    10.4170 N.pl3      2 BB2          0.0000
    41 N5         0.0399   -16.4041    10.4091 N.2        2 BB2          0.0000
    42 C6        -0.2010   -16.8237    11.6395 C.2        2 BB2          0.0000
    43 C7        -0.4407   -18.2195    12.0491 C.2        2 BB2          0.0000
    44 O9        -0.7110   -18.4771    13.2138 O.2        2 BB2          0.0000
    45 C10        0.4790   -14.3340     9.2955 C.ar       2 BB2          0.0000
    46 C11        0.7135   -12.9737     9.4469 C.ar       2 BB2          0.0000
    47 C12        0.9867   -12.1938     8.3407 C.ar       2 BB2          0.0000
    48 C13        1.0269   -12.7673     7.0807 C.ar       2 BB2          0.0000
    49 F14        1.2947   -12.0027     5.9996 F          2 BB2          0.0000
    50 C15        0.7931   -14.1239     6.9275 C.ar       2 BB2          0.0000
    51 C16        0.5253   -14.9083     8.0321 C.ar       2 BB2          0.0000
    52 H17       -1.4945   -15.5661    14.1763 H          2 BB2          0.0000
    53 H18       -0.0937   -16.6411    14.3999 H          2 BB2          0.0000
    54 H19        0.1263   -14.8750    14.4282 H          2 BB2          0.0000
    55 H20        0.6819   -12.5259    10.4293 H          2 BB2          0.0000
    56 H21        1.1688   -11.1358     8.4580 H          2 BB2          0.0000
    57 H22        0.8249   -14.5694     5.9442 H          2 BB2          0.0000
    58 H23        0.3435   -15.9661     7.9122 H          2 BB2          0.0000
@<TRIPOS>BOND
     1      1      2 1
     2      1     16 1
     3      1     17 1
     4      1     18 1
     5      2      3 1
     6      2     19 1
     7      2     20 1
     8      3      4 1
     9      3      8 1
    10      3     21 1
    11      4      5 1
    12      4      6 1
    13      4     22 1
    14      5     36 1
    15      6      7 1
    16      6     23 1
    17      6     24 1
    18      7      8 1
    19      7     25 1
    20      7     26 1
    21      8      9 am
    22      9     10 2
    23      9     11 1
    24     11     12 1
    25     12     13 1
    26     12     14 1
    27     12     15 1
    28     13     27 1
    29     13     28 1
    30     13     29 1
    31     14     30 1
    32     14     31 1
    33     14     32 1
    34     15     33 1
    35     15     34 1
    36     15     35 1
    37     37     38 1
    38     37     52 1
    39     37     53 1
    40     37     54 1
    41     38     39 2
    42     38     42 1
    43     39     40 1
    44     40     41 1
    45     40     45 1
    46     41     42 2
    47     42     43 1
    48     43     44 2
    49     45     46 ar
    50     45     51 ar
    51     46     47 ar
    52     46     55 1
    53     47     48 ar
    54     47     56 1
    55     48     49 1
    56     48     50 ar
    57     50     51 ar
    58     50     57 1
    59     51     58 1
    60      5     43 am
@<TRIPOS>SUBSTRUCTURE
     1 BB1           5
     2 BB2          43
@<TRIPOS>MOLECULE
EN300-312564_i001_EN300-35009_i001_14_10_1
  58   60   2   0   0
SMALL
USER_CHARGES
@<TRIPOS>ATOM
     1 C1         1.9087   -22.4803    14.0994 C.3        1 BB1          0.0000
     2 C2         0.6912   -22.1448    13.2358 C.3        1 BB1          0.0000
     3 C3         0.4426   -20.6354    13.2691 C.3        1 BB1          0.0000
     4 C4         1.5485   -19.9039    12.4796 C.3        1 BB1          0.0000
     5 N5         1.0767   -19.5447    11.1356 N.am       1 BB1          0.0000
     6 C6         1.8000   -18.6317    13.3314 C.3        1 BB1          0.0000
     7 C7         1.6026   -19.1754    14.7684 C.3        1 BB1          0.0000
     8 N8         0.5017   -20.1494    14.6555 N.am       1 BB1          0.0000
     9 C9        -0.3155   -20.5309    15.6571 C.2        1 BB1          0.0000
    10 O10       -1.1343   -21.4093    15.4720 O.2        1 BB1          0.0000
    11 O11       -0.2246   -19.9384    16.8627 O.3        1 BB1          0.0000
    12 C12       -0.8730   -20.6075    17.9764 C.3        1 BB1          0.0000
    13 C13       -0.3982   -22.0603    18.0450 C.3        1 BB1          0.0000
    14 C14       -0.5142   -19.8916    19.2801 C.3        1 BB1          0.0000
    15 C15       -2.3896   -20.5754    17.7776 C.3        1 BB1          0.0000
    16 H16        2.0465   -23.5611    14.1289 H          1 BB1          0.0000
    17 H17        2.7963   -22.0123    13.6736 H          1 BB1          0.0000
    18 H18        1.7508   -22.1064    15.1111 H          1 BB1          0.0000
    19 H19        0.8761   -22.4599    12.2088 H          1 BB1          0.0000
    20 H20       -0.1841   -22.6658    13.6237 H          1 BB1          0.0000
    21 H21       -0.5322   -20.4107    12.8363 H          1 BB1          0.0000
    22 H22        2.4488   -20.5155    12.4201 H          1 BB1          0.0000
    23 H23        2.8152   -18.2611    13.1900 H          1 BB1          0.0000
    24 H24        1.0677   -17.8572    13.1027 H          1 BB1          0.0000
    25 H25        2.5108   -19.6680    15.1157 H          1 BB1          0.0000
    26 H26        1.3259   -18.3670    15.4453 H          1 BB1          0.0000
    27 H27        0.6823   -22.0832    18.1865 H          1 BB1          0.0000
    28 H28       -0.8849   -22.5625    18.8810 H          1 BB1          0.0000
    29 H29       -0.6538   -22.5703    17.1162 H          1 BB1          0.0000
    30 H30       -0.8524   -18.8565    19.2313 H          1 BB1          0.0000
    31 H31       -1.0009   -20.3938    20.1162 H          1 BB1          0.0000
    32 H32        0.5663   -19.9144    19.4217 H          1 BB1          0.0000
    33 H33       -2.6453   -21.0853    16.8488 H          1 BB1          0.0000
    34 H34       -2.8763   -21.0776    18.6137 H          1 BB1          0.0000
    35 H35       -2.7279   -19.5403    17.7287 H          1 BB1          0.0000
    36 H38        1.4812   -18.6618    10.8620 H          1 BB1          0.0000
    37 C1        -1.0730   -18.6694     8.6332 C.3        2 BB2          0.0000
    38 C2        -0.5428   -17.4424     9.3292 C.2        2 BB2          0.0000
    39 N3        -0.2278   -16.3581     8.6293 N.2        2 BB2          0.0000
    40 C4         0.2347   -15.2723     9.1919 C.2        2 BB2          0.0000
    41 N5         0.4282   -15.1660    10.5173 N.am       2 BB2          0.0000
    42 C6         0.1422   -16.2069    11.3306 C.2        2 BB2          0.0000
    43 O7         0.3110   -16.1296    12.5343 O.2        2 BB2          0.0000
    44 C8        -0.3838   -17.4327    10.7152 C.2        2 BB2          0.0000
    45 C9        -0.7192   -18.6071    11.5269 C.2        2 BB2          0.0000
    46 O11       -0.4162   -19.7273    11.1371 O.2        2 BB2          0.0000
    47 C12        0.5650   -14.0905     8.3170 C.3        2 BB2          0.0000
    48 C13       -0.5325   -13.5728     7.3852 C.3        2 BB2          0.0000
    49 C14       -0.1372   -12.7662     8.6238 C.3        2 BB2          0.0000
    50 H15       -1.1299   -18.4826     7.5608 H          2 BB2          0.0000
    51 H16       -0.4056   -19.5104     8.8207 H          2 BB2          0.0000
    52 H17       -2.0672   -18.9024     9.0146 H          2 BB2          0.0000
    53 H18        1.5932   -14.0440     7.9582 H          2 BB2          0.0000
    54 H19       -0.2263   -13.1853     6.4135 H          2 BB2          0.0000
    55 H20       -1.4935   -14.0868     7.4049 H          2 BB2          0.0000
    56 H21       -0.8379   -12.7497     9.4584 H          2 BB2          0.0000
    57 H22        0.4291   -11.8482     8.4670 H          2 BB2          0.0000
    58 H23        0.7742   -14.3406    10.8912 H          2 BB2          0.0000
@<TRIPOS>BOND
     1      1      2 1
     2      1     16 1
     3      1     17 1
     4      1     18 1
     5      2      3 1
     6      2     19 1
     7      2     20 1
     8      3      4 1
     9      3      8 1
    10      3     21 1
    11      4      5 1
    12      4      6 1
    13      4     22 1
    14      5     36 1
    15      6      7 1
    16      6     23 1
    17      6     24 1
    18      7      8 1
    19      7     25 1
    20      7     26 1
    21      8      9 am
    22      9     10 2
    23      9     11 1
    24     11     12 1
    25     12     13 1
    26     12     14 1
    27     12     15 1
    28     13     27 1
    29     13     28 1
    30     13     29 1
    31     14     30 1
    32     14     31 1
    33     14     32 1
    34     15     33 1
    35     15     34 1
    36     15     35 1
    37     37     38 1
    38     37     50 1
    39     37     51 1
    40     37     52 1
    41     38     39 1
    42     38     44 2
    43     39     40 2
    44     40     41 1
    45     40     47 1
    46     41     42 am
    47     41     58 1
    48     42     43 2
    49     42     44 1
    50     44     45 1
    51     45     46 2
    52     47     48 1
    53     47     49 1
    54     47     53 1
    55     48     49 1
    56     48     54 1
    57     48     55 1
    58     49     56 1
    59     49     57 1
    60      5     45 am
@<TRIPOS>SUBSTRUCTURE
     1 BB1           5
     2 BB2          45
@<TRIPOS>MOLECULE
EN300-312564_i001_EN300-35009_i001_14_12_1
  58   60   2   0   0
SMALL
USER_CHARGES
@<TRIPOS>ATOM
     1 C1         1.9087   -22.4803    14.0994 C.3        1 BB1          0.0000
     2 C2         0.6912   -22.1448    13.2358 C.3        1 BB1          0.0000
     3 C3         0.4426   -20.6354    13.2691 C.3        1 BB1          0.0000
     4 C4         1.5485   -19.9039    12.4796 C.3        1 BB1          0.0000
     5 N5         1.0767   -19.5447    11.1356 N.am       1 BB1          0.0000
     6 C6         1.8000   -18.6317    13.3314 C.3        1 BB1          0.0000
     7 C7         1.6026   -19.1754    14.7684 C.3        1 BB1          0.0000
     8 N8         0.5017   -20.1494    14.6555 N.am       1 BB1          0.0000
     9 C9        -0.3155   -20.5309    15.6571 C.2        1 BB1          0.0000
    10 O10       -1.1343   -21.4093    15.4720 O.2        1 BB1          0.0000
    11 O11       -0.2246   -19.9384    16.8627 O.3        1 BB1          0.0000
    12 C12       -0.8730   -20.6075    17.9764 C.3        1 BB1          0.0000
    13 C13       -0.3982   -22.0603    18.0450 C.3        1 BB1          0.0000
    14 C14       -0.5142   -19.8916    19.2801 C.3        1 BB1          0.0000
    15 C15       -2.3896   -20.5754    17.7776 C.3        1 BB1          0.0000
    16 H16        2.0465   -23.5611    14.1289 H          1 BB1          0.0000
    17 H17        2.7963   -22.0123    13.6736 H          1 BB1          0.0000
    18 H18        1.7508   -22.1064    15.1111 H          1 BB1          0.0000
    19 H19        0.8761   -22.4599    12.2088 H          1 BB1          0.0000
    20 H20       -0.1841   -22.6658    13.6237 H          1 BB1          0.0000
    21 H21       -0.5322   -20.4107    12.8363 H          1 BB1          0.0000
    22 H22        2.4488   -20.5155    12.4201 H          1 BB1          0.0000
    23 H23        2.8152   -18.2611    13.1900 H          1 BB1          0.0000
    24 H24        1.0677   -17.8572    13.1027 H          1 BB1          0.0000
    25 H25        2.5108   -19.6680    15.1157 H          1 BB1          0.0000
    26 H26        1.3259   -18.3670    15.4453 H          1 BB1          0.0000
    27 H27        0.6823   -22.0832    18.1865 H          1 BB1          0.0000
    28 H28       -0.8849   -22.5625    18.8810 H          1 BB1          0.0000
    29 H29       -0.6538   -22.5703    17.1162 H          1 BB1          0.0000
    30 H30       -0.8524   -18.8565    19.2313 H          1 BB1          0.0000
    31 H31       -1.0009   -20.3938    20.1162 H          1 BB1          0.0000
    32 H32        0.5663   -19.9144    19.4217 H          1 BB1          0.0000
    33 H33       -2.6453   -21.0853    16.8488 H          1 BB1          0.0000
    34 H34       -2.8763   -21.0776    18.6137 H          1 BB1          0.0000
    35 H35       -2.7279   -19.5403    17.7287 H          1 BB1          0.0000
    36 H36        1.3541   -20.2595    10.4796 H          1 BB1          0.0000
    37 C1         0.1120   -16.3360    12.6253 C.3        2 BB2          0.0000
    38 C2        -0.0421   -16.4337    11.1294 C.2        2 BB2          0.0000
    39 N3         0.0707   -15.3485    10.3716 N.2        2 BB2          0.0000
    40 C4        -0.0551   -15.3875     9.0708 C.2        2 BB2          0.0000
    41 N5        -0.3079   -16.5231     8.3986 N.am       2 BB2          0.0000
    42 C6        -0.4429   -17.6909     9.0654 C.2        2 BB2          0.0000
    43 O7        -0.6722   -18.7304     8.4737 O.2        2 BB2          0.0000
    44 C8        -0.2987   -17.6657    10.5272 C.2        2 BB2          0.0000
    45 C9        -0.4306   -18.8890    11.3252 C.2        2 BB2          0.0000
    46 O11       -1.0062   -18.8561    12.4050 O.2        2 BB2          0.0000
    47 C12        0.0890   -14.1049     8.2928 C.3        2 BB2          0.0000
    48 C13        1.2914   -13.9787     7.3552 C.3        2 BB2          0.0000
    49 C14       -0.1121   -14.1712     6.7775 C.3        2 BB2          0.0000
    50 H15        0.3117   -15.3011    12.9031 H          2 BB2          0.0000
    51 H16       -0.8061   -16.6711    13.1078 H          2 BB2          0.0000
    52 H17        0.9421   -16.9651    12.9470 H          2 BB2          0.0000
    53 H18       -0.2456   -13.2035     8.8062 H          2 BB2          0.0000
    54 H19        1.7477   -12.9942     7.2516 H          2 BB2          0.0000
    55 H20        1.9783   -14.8233     7.3010 H          2 BB2          0.0000
    56 H21       -0.3488   -15.1426     6.3433 H          2 BB2          0.0000
    57 H22       -0.5794   -13.3135     6.2938 H          2 BB2          0.0000
    58 H23       -0.3940   -16.5047     7.4326 H          2 BB2          0.0000
@<TRIPOS>BOND
     1      1      2 1
     2      1     16 1
     3      1     17 1
     4      1     18 1
     5      2      3 1
     6      2     19 1
     7      2     20 1
     8      3      4 1
     9      3      8 1
    10      3     21 1
    11      4      5 1
    12      4      6 1
    13      4     22 1
    14      5     36 1
    15      6      7 1
    16      6     23 1
    17      6     24 1
    18      7      8 1
    19      7     25 1
    20      7     26 1
    21      8      9 am
    22      9     10 2
    23      9     11 1
    24     11     12 1
    25     12     13 1
    26     12     14 1
    27     12     15 1
    28     13     27 1
    29     13     28 1
    30     13     29 1
    31     14     30 1
    32     14     31 1
    33     14     32 1
    34     15     33 1
    35     15     34 1
    36     15     35 1
    37     37     38 1
    38     37     50 1
    39     37     51 1
    40     37     52 1
    41     38     39 1
    42     38     44 2
    43     39     40 2
    44     40     41 1
    45     40     47 1
    46     41     42 am
    47     41     58 1
    48     42     43 2
    49     42     44 1
    50     44     45 1
    51     45     46 2
    52     47     48 1
    53     47     49 1
    54     47     53 1
    55     48     49 1
    56     48     54 1
    57     48     55 1
    58     49     56 1
    59     49     57 1
    60      5     45 am
@<TRIPOS>SUBSTRUCTURE
     1 BB1           5
     2 BB2          45
@<TRIPOS>MOLECULE
EN300-312564_i001_EN300-35009_i001_14_17_1
  58   60   2   0   0
SMALL
USER_CHARGES
@<TRIPOS>ATOM
     1 C1         1.9087   -22.4803    14.0994 C.3        1 BB1          0.0000
     2 C2         0.6912   -22.1448    13.2358 C.3        1 BB1          0.0000
     3 C3         0.4426   -20.6354    13.2691 C.3        1 BB1          0.0000
     4 C4         1.5485   -19.9039    12.4796 C.3        1 BB1          0.0000
     5 N5         1.0767   -19.5447    11.1356 N.am       1 BB1          0.0000
     6 C6         1.8000   -18.6317    13.3314 C.3        1 BB1          0.0000
     7 C7         1.6026   -19.1754    14.7684 C.3        1 BB1          0.0000
     8 N8         0.5017   -20.1494    14.6555 N.am       1 BB1          0.0000
     9 C9        -0.3155   -20.5309    15.6571 C.2        1 BB1          0.0000
    10 O10       -1.1343   -21.4093    15.4720 O.2        1 BB1          0.0000
    11 O11       -0.2246   -19.9384    16.8627 O.3        1 BB1          0.0000
    12 C12       -0.8730   -20.6075    17.9764 C.3        1 BB1          0.0000
    13 C13       -0.3982   -22.0603    18.0450 C.3        1 BB1          0.0000
    14 C14       -0.5142   -19.8916    19.2801 C.3        1 BB1          0.0000
    15 C15       -2.3896   -20.5754    17.7776 C.3        1 BB1          0.0000
    16 H16        2.0465   -23.5611    14.1289 H          1 BB1          0.0000
    17 H17        2.7963   -22.0123    13.6736 H          1 BB1          0.0000
    18 H18        1.7508   -22.1064    15.1111 H          1 BB1          0.0000
    19 H19        0.8761   -22.4599    12.2088 H          1 BB1          0.0000
    20 H20       -0.1841   -22.6658    13.6237 H          1 BB1          0.0000
    21 H21       -0.5322   -20.4107    12.8363 H          1 BB1          0.0000
    22 H22        2.4488   -20.5155    12.4201 H          1 BB1          0.0000
    23 H23        2.8152   -18.2611    13.1900 H          1 BB1          0.0000
    24 H24        1.0677   -17.8572    13.1027 H          1 BB1          0.0000
    25 H25        2.5108   -19.6680    15.1157 H          1 BB1          0.0000
    26 H26        1.3259   -18.3670    15.4453 H          1 BB1          0.0000
    27 H27        0.6823   -22.0832    18.1865 H          1 BB1          0.0000
    28 H28       -0.8849   -22.5625    18.8810 H          1 BB1          0.0000
    29 H29       -0.6538   -22.5703    17.1162 H          1 BB1          0.0000
    30 H30       -0.8524   -18.8565    19.2313 H          1 BB1          0.0000
    31 H31       -1.0009   -20.3938    20.1162 H          1 BB1          0.0000
    32 H32        0.5663   -19.9144    19.4217 H          1 BB1          0.0000
    33 H33       -2.6453   -21.0853    16.8488 H          1 BB1          0.0000
    34 H34       -2.8763   -21.0776    18.6137 H          1 BB1          0.0000
    35 H35       -2.7279   -19.5403    17.7287 H          1 BB1          0.0000
    36 H38        1.4812   -18.6618    10.8620 H          1 BB1          0.0000
    37 C1         0.4156   -15.6043    13.3339 C.3        2 BB2          0.0000
    38 C2         0.2036   -15.9617    11.8853 C.2        2 BB2          0.0000
    39 N3         0.3477   -15.0401    10.9394 N.2        2 BB2          0.0000
    40 C4         0.1740   -15.3062     9.6712 C.2        2 BB2          0.0000
    41 N5        -0.1630   -16.5277     9.2242 N.am       2 BB2          0.0000
    42 C6        -0.3369   -17.5454    10.0962 C.2        2 BB2          0.0000
    43 O7        -0.6425   -18.6594     9.7102 O.2        2 BB2          0.0000
    44 C8        -0.1399   -17.2648    11.5247 C.2        2 BB2          0.0000
    45 C9        -0.3091   -18.3136    12.5357 C.2        2 BB2          0.0000
    46 O11       -0.8280   -18.0480    13.6121 O.2        2 BB2          0.0000
    47 C12        0.3593   -14.1963     8.6687 C.3        2 BB2          0.0000
    48 C13        1.4034   -14.4040     7.5698 C.3        2 BB2          0.0000
    49 C14       -0.0872   -14.4622     7.2296 C.3        2 BB2          0.0000
    50 H15        0.6803   -14.5499    13.4129 H          2 BB2          0.0000
    51 H16       -0.5016   -15.7916    13.8922 H          2 BB2          0.0000
    52 H17        1.2215   -16.2129    13.7441 H          2 BB2          0.0000
    53 H18        0.2315   -13.1859     9.0570 H          2 BB2          0.0000
    54 H19        1.9623   -13.5301     7.2349 H          2 BB2          0.0000
    55 H20        1.9563   -15.3433     7.5718 H          2 BB2          0.0000
    56 H21       -0.5150   -15.4399     7.0080 H          2 BB2          0.0000
    57 H22       -0.5090   -13.6267     6.6711 H          2 BB2          0.0000
    58 H23       -0.2821   -16.6793     8.2735 H          2 BB2          0.0000
@<TRIPOS>BOND
     1      1      2 1
     2      1     16 1
     3      1     17 1
     4      1     18 1
     5      2      3 1
     6      2     19 1
     7      2     20 1
     8      3      4 1
     9      3      8 1
    10      3     21 1
    11      4      5 1
    12      4      6 1
    13      4     22 1
    14      5     36 1
    15      6      7 1
    16      6     23 1
    17      6     24 1
    18      7      8 1
    19      7     25 1
    20      7     26 1
    21      8      9 am
    22      9     10 2
    23      9     11 1
    24     11     12 1
    25     12     13 1
    26     12     14 1
    27     12     15 1
    28     13     27 1
    29     13     28 1
    30     13     29 1
    31     14     30 1
    32     14     31 1
    33     14     32 1
    34     15     33 1
    35     15     34 1
    36     15     35 1
    37     37     38 1
    38     37     50 1
    39     37     51 1
    40     37     52 1
    41     38     39 1
    42     38     44 2
    43     39     40 2
    44     40     41 1
    45     40     47 1
    46     41     42 am
    47     41     58 1
    48     42     43 2
    49     42     44 1
    50     44     45 1
    51     45     46 2
    52     47     48 1
    53     47     49 1
    54     47     53 1
    55     48     49 1
    56     48     54 1
    57     48     55 1
    58     49     56 1
    59     49     57 1
    60      5     45 am
@<TRIPOS>SUBSTRUCTURE
     1 BB1           5
     2 BB2          45
@<TRIPOS>MOLECULE
EN300-312564_i001_EN300-1198129_i001_17_19_1
  60   61   2   0   0
SMALL
USER_CHARGES
@<TRIPOS>ATOM
     1 C1         3.7594   -17.2869    12.3015 C.3        1 BB1          0.0000
     2 C2         2.6581   -17.7566    13.2540 C.3        1 BB1          0.0000
     3 C3         1.2991   -17.2803    12.7368 C.3        1 BB1          0.0000
     4 C4         1.3241   -15.7517    12.5266 C.3        1 BB1          0.0000
     5 N5         1.5258   -15.4253    11.1086 N.am       1 BB1          0.0000
     6 C6        -0.0886   -15.3134    12.9952 C.3        1 BB1          0.0000
     7 C7        -0.3455   -16.2932    14.1672 C.3        1 BB1          0.0000
     8 N8         0.2566   -17.5670    13.7330 N.am       1 BB1          0.0000
     9 C9        -0.0914   -18.7915    14.1757 C.2        1 BB1          0.0000
    10 O10       -1.0306   -18.9185    14.9361 O.2        1 BB1          0.0000
    11 O11        0.6018   -19.8741    13.7755 O.3        1 BB1          0.0000
    12 C12       -0.0860   -21.1520    13.8233 C.3        1 BB1          0.0000
    13 C13        0.7672   -22.2167    13.1311 C.3        1 BB1          0.0000
    14 C14       -0.3169   -21.5525    15.2818 C.3        1 BB1          0.0000
    15 C15       -1.4330   -21.0332    13.1076 C.3        1 BB1          0.0000
    16 H16        4.7323   -17.5693    12.7036 H          1 BB1          0.0000
    17 H17        3.6199   -17.7537    11.3264 H          1 BB1          0.0000
    18 H18        3.7105   -16.2031    12.1958 H          1 BB1          0.0000
    19 H19        2.6648   -18.8453    13.3086 H          1 BB1          0.0000
    20 H20        2.8348   -17.3420    14.2464 H          1 BB1          0.0000
    21 H21        1.0645   -17.7800    11.7970 H          1 BB1          0.0000
    22 H22        2.0974   -15.2905    13.1409 H          1 BB1          0.0000
    23 H23       -0.0817   -14.2807    13.3437 H          1 BB1          0.0000
    24 H24       -0.8237   -15.4516    12.2022 H          1 BB1          0.0000
    25 H25        0.1395   -15.9343    15.0749 H          1 BB1          0.0000
    26 H26       -1.4161   -16.4161    14.3313 H          1 BB1          0.0000
    27 H27        1.7269   -22.3013    13.6409 H          1 BB1          0.0000
    28 H28        0.2510   -23.1759    13.1670 H          1 BB1          0.0000
    29 H29        0.9318   -21.9313    12.0920 H          1 BB1          0.0000
    30 H30       -0.9248   -20.7940    15.7750 H          1 BB1          0.0000
    31 H31       -0.8333   -22.5118    15.3177 H          1 BB1          0.0000
    32 H32        0.6427   -21.6371    15.7917 H          1 BB1          0.0000
    33 H33       -1.2685   -20.7478    12.0686 H          1 BB1          0.0000
    34 H34       -1.9493   -21.9925    13.1436 H          1 BB1          0.0000
    35 H35       -2.0409   -20.2746    13.6008 H          1 BB1          0.0000
    36 H36        2.1742   -14.6562    11.0294 H          1 BB1          0.0000
    37 O1        -0.3046   -17.2320    10.9820 O.2        2 BB2          0.0000
    38 C2        -0.0992   -16.0437    11.1864 C.2        2 BB2          0.0000
    39 C4        -0.0979   -15.0920    10.0614 C.ar       2 BB2          0.0000
    40 C5        -0.0950   -13.7157    10.3052 C.ar       2 BB2          0.0000
    41 C6        -0.0937   -12.8313     9.2479 C.ar       2 BB2          0.0000
    42 C7        -0.0957   -13.3016     7.9456 C.ar       2 BB2          0.0000
    43 C8        -0.0987   -14.6609     7.6932 C.ar       2 BB2          0.0000
    44 C9        -0.0936   -15.5616     8.7423 C.ar       2 BB2          0.0000
    45 F10       -0.0964   -16.8898     8.4955 F          2 BB2          0.0000
    46 S11       -0.0901   -11.0963     9.5546 S.o2       2 BB2          0.0000
    47 O12        1.2590   -10.8027     9.8907 O.2        2 BB2          0.0000
    48 O13       -0.6960   -10.5347     8.3985 O.2        2 BB2          0.0000
    49 C14       -1.1656   -10.8901    11.0008 C.3        2 BB2          0.0000
    50 C15       -2.3179    -9.9470    10.6491 C.3        2 BB2          0.0000
    51 C16       -3.4317   -10.7237    10.0809 C.1        2 BB2          0.0000
    52 C17       -4.3201   -11.3431     9.6277 C.1        2 BB2          0.0000
    53 H18       -0.0940   -13.3459    11.3199 H          2 BB2          0.0000
    54 H19       -0.0955   -12.6026     7.1222 H          2 BB2          0.0000
    55 H20       -0.1002   -15.0199     6.6747 H          2 BB2          0.0000
    56 H21       -1.5669   -11.8595    11.2963 H          2 BB2          0.0000
    57 H22       -0.5898   -10.4688    11.8248 H          2 BB2          0.0000
    58 H23       -2.6551    -9.4338    11.5497 H          2 BB2          0.0000
    59 H24       -1.9769    -9.2132     9.9188 H          2 BB2          0.0000
    60 H25       -5.1147   -11.8971     9.2224 H          2 BB2          0.0000
@<TRIPOS>BOND
     1      1      2 1
     2      1     16 1
     3      1     17 1
     4      1     18 1
     5      2      3 1
     6      2     19 1
     7      2     20 1
     8      3      4 1
     9      3      8 1
    10      3     21 1
    11      4      5 1
    12      4      6 1
    13      4     22 1
    14      5     36 1
    15      6      7 1
    16      6     23 1
    17      6     24 1
    18      7      8 1
    19      7     25 1
    20      7     26 1
    21      8      9 am
    22      9     10 2
    23      9     11 1
    24     11     12 1
    25     12     13 1
    26     12     14 1
    27     12     15 1
    28     13     27 1
    29     13     28 1
    30     13     29 1
    31     14     30 1
    32     14     31 1
    33     14     32 1
    34     15     33 1
    35     15     34 1
    36     15     35 1
    37     37     38 2
    38     38     39 1
    39     39     40 ar
    40     39     44 ar
    41     40     41 ar
    42     40     53 1
    43     41     42 ar
    44     41     46 1
    45     42     43 ar
    46     42     54 1
    47     43     44 ar
    48     43     55 1
    49     44     45 1
    50     46     47 2
    51     46     48 2
    52     46     49 1
    53     49     50 1
    54     49     56 1
    55     49     57 1
    56     50     51 1
    57     50     58 1
    58     50     59 1
    59     51     52 3
    60     52     60 1
    61      5     38 am
@<TRIPOS>SUBSTRUCTURE
     1 BB1           5
     2 BB2          38
@<TRIPOS>MOLECULE
EN300-312564_i001_EN300-19857_i001_17_20_1
  49   50   2   0   0
SMALL
USER_CHARGES
@<TRIPOS>ATOM
     1 C1         3.7594   -17.2869    12.3015 C.3        1 BB1          0.0000
     2 C2         2.6581   -17.7566    13.2540 C.3        1 BB1          0.0000
     3 C3         1.2991   -17.2803    12.7368 C.3        1 BB1          0.0000
     4 C4         1.3241   -15.7517    12.5266 C.3        1 BB1          0.0000
     5 N5         1.5258   -15.4253    11.1086 N.am       1 BB1          0.0000
     6 C6        -0.0886   -15.3134    12.9952 C.3        1 BB1          0.0000
     7 C7        -0.3455   -16.2932    14.1672 C.3        1 BB1          0.0000
     8 N8         0.2566   -17.5670    13.7330 N.am       1 BB1          0.0000
     9 C9        -0.0914   -18.7915    14.1757 C.2        1 BB1          0.0000
    10 O10       -1.0306   -18.9185    14.9361 O.2        1 BB1          0.0000
    11 O11        0.6018   -19.8741    13.7755 O.3        1 BB1          0.0000
    12 C12       -0.0860   -21.1520    13.8233 C.3        1 BB1          0.0000
    13 C13        0.7672   -22.2167    13.1311 C.3        1 BB1          0.0000
    14 C14       -0.3169   -21.5525    15.2818 C.3        1 BB1          0.0000
    15 C15       -1.4330   -21.0332    13.1076 C.3        1 BB1          0.0000
    16 H16        4.7323   -17.5693    12.7036 H          1 BB1          0.0000
    17 H17        3.6199   -17.7537    11.3264 H          1 BB1          0.0000
    18 H18        3.7105   -16.2031    12.1958 H          1 BB1          0.0000
    19 H19        2.6648   -18.8453    13.3086 H          1 BB1          0.0000
    20 H20        2.8348   -17.3420    14.2464 H          1 BB1          0.0000
    21 H21        1.0645   -17.7800    11.7970 H          1 BB1          0.0000
    22 H22        2.0974   -15.2905    13.1409 H          1 BB1          0.0000
    23 H23       -0.0817   -14.2807    13.3437 H          1 BB1          0.0000
    24 H24       -0.8237   -15.4516    12.2022 H          1 BB1          0.0000
    25 H25        0.1395   -15.9343    15.0749 H          1 BB1          0.0000
    26 H26       -1.4161   -16.4161    14.3313 H          1 BB1          0.0000
    27 H27        1.7269   -22.3013    13.6409 H          1 BB1          0.0000
    28 H28        0.2510   -23.1759    13.1670 H          1 BB1          0.0000
    29 H29        0.9318   -21.9313    12.0920 H          1 BB1          0.0000
    30 H30       -0.9248   -20.7940    15.7750 H          1 BB1          0.0000
    31 H31       -0.8333   -22.5118    15.3177 H          1 BB1          0.0000
    32 H32        0.6427   -21.6371    15.7917 H          1 BB1          0.0000
    33 H33       -1.2685   -20.7478    12.0686 H          1 BB1          0.0000
    34 H34       -1.9493   -21.9925    13.1436 H          1 BB1          0.0000
    35 H35       -2.0409   -20.2746    13.6008 H          1 BB1          0.0000
    36 H36        2.1742   -14.6562    11.0294 H          1 BB1          0.0000
    37 O1        -0.6801   -14.7334    12.2748 O.2        2 BB2          0.0000
    38 C2        -0.0612   -14.3703    11.2846 C.2        2 BB2          0.0000
    39 C4        -0.4899   -13.1665    10.5471 C.ar       2 BB2          0.0000
    40 C5         0.2870   -12.6738     9.4958 C.ar       2 BB2          0.0000
    41 C6        -0.1195   -11.5478     8.8104 C.ar       2 BB2          0.0000
    42 C7        -1.2938   -10.9062     9.1618 C.ar       2 BB2          0.0000
    43 C8        -2.0692   -11.3882    10.2031 C.ar       2 BB2          0.0000
    44 Br9       -3.6723   -10.5028    10.6742 Br         2 BB2          0.0000
    45 C10       -1.6778   -12.5173    10.8933 C.ar       2 BB2          0.0000
    46 H11        1.2041   -13.1732     9.2205 H          2 BB2          0.0000
    47 H12        0.4805   -11.1659     7.9978 H          2 BB2          0.0000
    48 H13       -1.6071   -10.0250     8.6216 H          2 BB2          0.0000
    49 H14       -2.2830   -12.8926    11.7053 H          2 BB2          0.0000
@<TRIPOS>BOND
     1      1      2 1
     2      1     16 1
     3      1     17 1
     4      1     18 1
     5      2      3 1
     6      2     19 1
     7      2     20 1
     8      3      4 1
     9      3      8 1
    10      3     21 1
    11      4      5 1
    12      4      6 1
    13      4     22 1
    14      5     36 1
    15      6      7 1
    16      6     23 1
    17      6     24 1
    18      7      8 1
    19      7     25 1
    20      7     26 1
    21      8      9 am
    22      9     10 2
    23      9     11 1
    24     11     12 1
    25     12     13 1
    26     12     14 1
    27     12     15 1
    28     13     27 1
    29     13     28 1
    30     13     29 1
    31     14     30 1
    32     14     31 1
    33     14     32 1
    34     15     33 1
    35     15     34 1
    36     15     35 1
    37     37     38 2
    38     38     39 1
    39     39     40 ar
    40     39     45 ar
    41     40     41 ar
    42     40     46 1
    43     41     42 ar
    44     41     47 1
    45     42     43 ar
    46     42     48 1
    47     43     44 1
    48     43     45 ar
    49     45     49 1
    50      5     38 am
@<TRIPOS>SUBSTRUCTURE
     1 BB1           5
     2 BB2          38
@<TRIPOS>MOLECULE
EN300-312564_i001_EN300-306118_i001_17_10_1
  58   60   2   0   0
SMALL
USER_CHARGES
@<TRIPOS>ATOM
     1 C1         3.7594   -17.2869    12.3015 C.3        1 BB1          0.0000
     2 C2         2.6581   -17.7566    13.2540 C.3        1 BB1          0.0000
     3 C3         1.2991   -17.2803    12.7368 C.3        1 BB1          0.0000
     4 C4         1.3241   -15.7517    12.5266 C.3        1 BB1          0.0000
     5 N5         1.5258   -15.4253    11.1086 N.am       1 BB1          0.0000
     6 C6        -0.0886   -15.3134    12.9952 C.3        1 BB1          0.0000
     7 C7        -0.3455   -16.2932    14.1672 C.3        1 BB1          0.0000
     8 N8         0.2566   -17.5670    13.7330 N.am       1 BB1          0.0000
     9 C9        -0.0914   -18.7915    14.1757 C.2        1 BB1          0.0000
    10 O10       -1.0306   -18.9185    14.9361 O.2        1 BB1          0.0000
    11 O11        0.6018   -19.8741    13.7755 O.3        1 BB1          0.0000
    12 C12       -0.0860   -21.1520    13.8233 C.3        1 BB1          0.0000
    13 C13        0.7672   -22.2167    13.1311 C.3        1 BB1          0.0000
    14 C14       -0.3169   -21.5525    15.2818 C.3        1 BB1          0.0000
    15 C15       -1.4330   -21.0332    13.1076 C.3        1 BB1          0.0000
    16 H16        4.7323   -17.5693    12.7036 H          1 BB1          0.0000
    17 H17        3.6199   -17.7537    11.3264 H          1 BB1          0.0000
    18 H18        3.7105   -16.2031    12.1958 H          1 BB1          0.0000
    19 H19        2.6648   -18.8453    13.3086 H          1 BB1          0.0000
    20 H20        2.8348   -17.3420    14.2464 H          1 BB1          0.0000
    21 H21        1.0645   -17.7800    11.7970 H          1 BB1          0.0000
    22 H22        2.0974   -15.2905    13.1409 H          1 BB1          0.0000
    23 H23       -0.0817   -14.2807    13.3437 H          1 BB1          0.0000
    24 H24       -0.8237   -15.4516    12.2022 H          1 BB1          0.0000
    25 H25        0.1395   -15.9343    15.0749 H          1 BB1          0.0000
    26 H26       -1.4161   -16.4161    14.3313 H          1 BB1          0.0000
    27 H27        1.7269   -22.3013    13.6409 H          1 BB1          0.0000
    28 H28        0.2510   -23.1759    13.1670 H          1 BB1          0.0000
    29 H29        0.9318   -21.9313    12.0920 H          1 BB1          0.0000
    30 H30       -0.9248   -20.7940    15.7750 H          1 BB1          0.0000
    31 H31       -0.8333   -22.5118    15.3177 H          1 BB1          0.0000
    32 H32        0.6427   -21.6371    15.7917 H          1 BB1          0.0000
    33 H33       -1.2685   -20.7478    12.0686 H          1 BB1          0.0000
    34 H34       -1.9493   -21.9925    13.1436 H          1 BB1          0.0000
    35 H35       -2.0409   -20.2746    13.6008 H          1 BB1          0.0000
    36 H37        1.8986   -16.2304    10.6279 H          1 BB1          0.0000
    37 O1        -0.6922   -13.8017    11.4451 O.2        2 BB2          0.0000
    38 C2         0.1195   -14.4038    10.7566 C.2        2 BB2          0.0000
    39 C4         0.4114   -13.9416     9.3863 C.ar       2 BB2          0.0000
    40 C5         0.5717   -14.8674     8.3525 C.ar       2 BB2          0.0000
    41 C6         0.8445   -14.4280     7.0737 C.ar       2 BB2          0.0000
    42 C7         0.9599   -13.0739     6.8139 C.ar       2 BB2          0.0000
    43 C8         0.8024   -12.1509     7.8331 C.ar       2 BB2          0.0000
    44 C9         0.5231   -12.5754     9.1151 C.ar       2 BB2          0.0000
    45 C10        0.3514   -11.5687    10.2234 C.3        2 BB2          0.0000
    46 N11       -1.0436   -11.1231    10.2665 N.pl3      2 BB2          0.0000
    47 C12       -1.4690    -9.8410    10.1885 C.2        2 BB2          0.0000
    48 C13       -2.8194    -9.8863    10.2682 C.2        2 BB2          0.0000
    49 N14       -3.1497   -11.1769    10.3896 N.2        2 BB2          0.0000
    50 N15       -2.0753   -11.8843    10.3797 N.2        2 BB2          0.0000
    51 H16        0.4826   -15.9247     8.5541 H          2 BB2          0.0000
    52 H17        0.9688   -15.1425     6.2735 H          2 BB2          0.0000
    53 H18        1.1744   -12.7356     5.8108 H          2 BB2          0.0000
    54 H19        0.8941   -11.0955     7.6231 H          2 BB2          0.0000
    55 H20        0.6156   -12.0283    11.1758 H          2 BB2          0.0000
    56 H21        1.0008   -10.7127    10.0405 H          2 BB2          0.0000
    57 H22       -0.8546    -8.9590    10.0839 H          2 BB2          0.0000
    58 H23       -3.4970    -9.0458    10.2398 H          2 BB2          0.0000
@<TRIPOS>BOND
     1      1      2 1
     2      1     16 1
     3      1     17 1
     4      1     18 1
     5      2      3 1
     6      2     19 1
     7      2     20 1
     8      3      4 1
     9      3      8 1
    10      3     21 1
    11      4      5 1
    12      4      6 1
    13      4     22 1
    14      5     36 1
    15      6      7 1
    16      6     23 1
    17      6     24 1
    18      7      8 1
    19      7     25 1
    20      7     26 1
    21      8      9 am
    22      9     10 2
    23      9     11 1
    24     11     12 1
    25     12     13 1
    26     12     14 1
    27     12     15 1
    28     13     27 1
    29     13     28 1
    30     13     29 1
    31     14     30 1
    32     14     31 1
    33     14     32 1
    34     15     33 1
    35     15     34 1
    36     15     35 1
    37     37     38 2
    38     38     39 1
    39     39     40 ar
    40     39     44 ar
    41     40     41 ar
    42     40     51 1
    43     41     42 ar
    44     41     52 1
    45     42     43 ar
    46     42     53 1
    47     43     44 ar
    48     43     54 1
    49     44     45 1
    50     45     46 1
    51     45     55 1
    52     45     56 1
    53     46     47 1
    54     46     50 1
    55     47     48 2
    56     47     57 1
    57     48     49 1
    58     48     58 1
    59     49     50 2
    60      5     38 am
@<TRIPOS>SUBSTRUCTURE
     1 BB1           5
     2 BB2          38
@<TRIPOS>MOLECULE
EN300-312564_i001_EN300-306118_i001_17_13_1
  58   60   2   0   0
SMALL
USER_CHARGES
@<TRIPOS>ATOM
     1 C1         3.7594   -17.2869    12.3015 C.3        1 BB1          0.0000
     2 C2         2.6581   -17.7566    13.2540 C.3        1 BB1          0.0000
     3 C3         1.2991   -17.2803    12.7368 C.3        1 BB1          0.0000
     4 C4         1.3241   -15.7517    12.5266 C.3        1 BB1          0.0000
     5 N5         1.5258   -15.4253    11.1086 N.am       1 BB1          0.0000
     6 C6        -0.0886   -15.3134    12.9952 C.3        1 BB1          0.0000
     7 C7        -0.3455   -16.2932    14.1672 C.3        1 BB1          0.0000
     8 N8         0.2566   -17.5670    13.7330 N.am       1 BB1          0.0000
     9 C9        -0.0914   -18.7915    14.1757 C.2        1 BB1          0.0000
    10 O10       -1.0306   -18.9185    14.9361 O.2        1 BB1          0.0000
    11 O11        0.6018   -19.8741    13.7755 O.3        1 BB1          0.0000
    12 C12       -0.0860   -21.1520    13.8233 C.3        1 BB1          0.0000
    13 C13        0.7672   -22.2167    13.1311 C.3        1 BB1          0.0000
    14 C14       -0.3169   -21.5525    15.2818 C.3        1 BB1          0.0000
    15 C15       -1.4330   -21.0332    13.1076 C.3        1 BB1          0.0000
    16 H16        4.7323   -17.5693    12.7036 H          1 BB1          0.0000
    17 H17        3.6199   -17.7537    11.3264 H          1 BB1          0.0000
    18 H18        3.7105   -16.2031    12.1958 H          1 BB1          0.0000
    19 H19        2.6648   -18.8453    13.3086 H          1 BB1          0.0000
    20 H20        2.8348   -17.3420    14.2464 H          1 BB1          0.0000
    21 H21        1.0645   -17.7800    11.7970 H          1 BB1          0.0000
    22 H22        2.0974   -15.2905    13.1409 H          1 BB1          0.0000
    23 H23       -0.0817   -14.2807    13.3437 H          1 BB1          0.0000
    24 H24       -0.8237   -15.4516    12.2022 H          1 BB1          0.0000
    25 H25        0.1395   -15.9343    15.0749 H          1 BB1          0.0000
    26 H26       -1.4161   -16.4161    14.3313 H          1 BB1          0.0000
    27 H27        1.7269   -22.3013    13.6409 H          1 BB1          0.0000
    28 H28        0.2510   -23.1759    13.1670 H          1 BB1          0.0000
    29 H29        0.9318   -21.9313    12.0920 H          1 BB1          0.0000
    30 H30       -0.9248   -20.7940    15.7750 H          1 BB1          0.0000
    31 H31       -0.8333   -22.5118    15.3177 H          1 BB1          0.0000
    32 H32        0.6427   -21.6371    15.7917 H          1 BB1          0.0000
    33 H33       -1.2685   -20.7478    12.0686 H          1 BB1          0.0000
    34 H34       -1.9493   -21.9925    13.1436 H          1 BB1          0.0000
    35 H35       -2.0409   -20.2746    13.6008 H          1 BB1          0.0000
    36 H36        2.1742   -14.6562    11.0294 H          1 BB1          0.0000
    37 O1        -0.3061   -15.6175    10.8075 O.2        2 BB2          0.0000
    38 C2        -0.2542   -14.4147    11.0220 C.2        2 BB2          0.0000
    39 C4        -0.0888   -13.4717     9.8995 C.ar       2 BB2          0.0000
    40 C5         0.7755   -13.7793     8.8460 C.ar       2 BB2          0.0000
    41 C6         0.9252   -12.8927     7.7999 C.ar       2 BB2          0.0000
    42 C7         0.2221   -11.7011     7.7926 C.ar       2 BB2          0.0000
    43 C8        -0.6359   -11.3897     8.8329 C.ar       2 BB2          0.0000
    44 C9        -0.8003   -12.2692     9.8823 C.ar       2 BB2          0.0000
    45 C10       -1.7356   -11.9285    11.0138 C.3        2 BB2          0.0000
    46 N11       -2.8881   -11.1914    10.4898 N.pl3      2 BB2          0.0000
    47 C12       -3.9824   -11.7380     9.9113 C.2        2 BB2          0.0000
    48 C13       -4.7891   -10.7036     9.5780 C.2        2 BB2          0.0000
    49 N14       -4.1572    -9.5894     9.9637 N.2        2 BB2          0.0000
    50 N15       -3.0361    -9.9129    10.5053 N.2        2 BB2          0.0000
    51 H16        1.3254   -14.7088     8.8509 H          2 BB2          0.0000
    52 H17        1.5931   -13.1291     6.9848 H          2 BB2          0.0000
    53 H18        0.3438   -11.0104     6.9712 H          2 BB2          0.0000
    54 H19       -1.1813   -10.4576     8.8207 H          2 BB2          0.0000
    55 H20       -2.0780   -12.8466    11.4912 H          2 BB2          0.0000
    56 H21       -1.2121   -11.3124    11.7448 H          2 BB2          0.0000
    57 H22       -4.1735   -12.7883     9.7481 H          2 BB2          0.0000
    58 H23       -5.7532   -10.7654     9.0952 H          2 BB2          0.0000
@<TRIPOS>BOND
     1      1      2 1
     2      1     16 1
     3      1     17 1
     4      1     18 1
     5      2      3 1
     6      2     19 1
     7      2     20 1
     8      3      4 1
     9      3      8 1
    10      3     21 1
    11      4      5 1
    12      4      6 1
    13      4     22 1
    14      5     36 1
    15      6      7 1
    16      6     23 1
    17      6     24 1
    18      7      8 1
    19      7     25 1
    20      7     26 1
    21      8      9 am
    22      9     10 2
    23      9     11 1
    24     11     12 1
    25     12     13 1
    26     12     14 1
    27     12     15 1
    28     13     27 1
    29     13     28 1
    30     13     29 1
    31     14     30 1
    32     14     31 1
    33     14     32 1
    34     15     33 1
    35     15     34 1
    36     15     35 1
    37     37     38 2
    38     38     39 1
    39     39     40 ar
    40     39     44 ar
    41     40     41 ar
    42     40     51 1
    43     41     42 ar
    44     41     52 1
    45     42     43 ar
    46     42     53 1
    47     43     44 ar
    48     43     54 1
    49     44     45 1
    50     45     46 1
    51     45     55 1
    52     45     56 1
    53     46     47 1
    54     46     50 1
    55     47     48 2
    56     47     57 1
    57     48     49 1
    58     48     58 1
    59     49     50 2
    60      5     38 am
@<TRIPOS>SUBSTRUCTURE
     1 BB1           5
     2 BB2          38
@<TRIPOS>MOLECULE
EN300-312564_i001_EN300-306118_i001_17_17_1
  58   60   2   0   0
SMALL
USER_CHARGES
@<TRIPOS>ATOM
     1 C1         3.7594   -17.2869    12.3015 C.3        1 BB1          0.0000
     2 C2         2.6581   -17.7566    13.2540 C.3        1 BB1          0.0000
     3 C3         1.2991   -17.2803    12.7368 C.3        1 BB1          0.0000
     4 C4         1.3241   -15.7517    12.5266 C.3        1 BB1          0.0000
     5 N5         1.5258   -15.4253    11.1086 N.am       1 BB1          0.0000
     6 C6        -0.0886   -15.3134    12.9952 C.3        1 BB1          0.0000
     7 C7        -0.3455   -16.2932    14.1672 C.3        1 BB1          0.0000
     8 N8         0.2566   -17.5670    13.7330 N.am       1 BB1          0.0000
     9 C9        -0.0914   -18.7915    14.1757 C.2        1 BB1          0.0000
    10 O10       -1.0306   -18.9185    14.9361 O.2        1 BB1          0.0000
    11 O11        0.6018   -19.8741    13.7755 O.3        1 BB1          0.0000
    12 C12       -0.0860   -21.1520    13.8233 C.3        1 BB1          0.0000
    13 C13        0.7672   -22.2167    13.1311 C.3        1 BB1          0.0000
    14 C14       -0.3169   -21.5525    15.2818 C.3        1 BB1          0.0000
    15 C15       -1.4330   -21.0332    13.1076 C.3        1 BB1          0.0000
    16 H16        4.7323   -17.5693    12.7036 H          1 BB1          0.0000
    17 H17        3.6199   -17.7537    11.3264 H          1 BB1          0.0000
    18 H18        3.7105   -16.2031    12.1958 H          1 BB1          0.0000
    19 H19        2.6648   -18.8453    13.3086 H          1 BB1          0.0000
    20 H20        2.8348   -17.3420    14.2464 H          1 BB1          0.0000
    21 H21        1.0645   -17.7800    11.7970 H          1 BB1          0.0000
    22 H22        2.0974   -15.2905    13.1409 H          1 BB1          0.0000
    23 H23       -0.0817   -14.2807    13.3437 H          1 BB1          0.0000
    24 H24       -0.8237   -15.4516    12.2022 H          1 BB1          0.0000
    25 H25        0.1395   -15.9343    15.0749 H          1 BB1          0.0000
    26 H26       -1.4161   -16.4161    14.3313 H          1 BB1          0.0000
    27 H27        1.7269   -22.3013    13.6409 H          1 BB1          0.0000
    28 H28        0.2510   -23.1759    13.1670 H          1 BB1          0.0000
    29 H29        0.9318   -21.9313    12.0920 H          1 BB1          0.0000
    30 H30       -0.9248   -20.7940    15.7750 H          1 BB1          0.0000
    31 H31       -0.8333   -22.5118    15.3177 H          1 BB1          0.0000
    32 H32        0.6427   -21.6371    15.7917 H          1 BB1          0.0000
    33 H33       -1.2685   -20.7478    12.0686 H          1 BB1          0.0000
    34 H34       -1.9493   -21.9925    13.1436 H          1 BB1          0.0000
    35 H35       -2.0409   -20.2746    13.6008 H          1 BB1          0.0000
    36 H36        2.1742   -14.6562    11.0294 H          1 BB1          0.0000
    37 O1        -0.1025   -16.2314     9.1013 O.2        2 BB2          0.0000
    38 C2         0.1377   -15.1500     9.6193 C.2        2 BB2          0.0000
    39 C4         0.3036   -13.9496     8.7778 C.ar       2 BB2          0.0000
    40 C5         0.9945   -14.0317     7.5664 C.ar       2 BB2          0.0000
    41 C6         1.1457   -12.9052     6.7847 C.ar       2 BB2          0.0000
    42 C7         0.6154   -11.6960     7.1982 C.ar       2 BB2          0.0000
    43 C8        -0.0703   -11.6071     8.3972 C.ar       2 BB2          0.0000
    44 C9        -0.2347   -12.7263     9.1858 C.ar       2 BB2          0.0000
    45 C10       -0.9821   -12.6276    10.4908 C.3        2 BB2          0.0000
    46 N11       -2.0934   -11.6839    10.3468 N.pl3      2 BB2          0.0000
    47 C12       -1.9923   -10.3346    10.3447 C.2        2 BB2          0.0000
    48 C13       -3.2511    -9.8624    10.1881 C.2        2 BB2          0.0000
    49 N14       -4.0501   -10.9319    10.1033 N.2        2 BB2          0.0000
    50 N15       -3.3329   -11.9958    10.1953 N.2        2 BB2          0.0000
    51 H16        1.4095   -14.9748     7.2428 H          2 BB2          0.0000
    52 H17        1.6796   -12.9671     5.8480 H          2 BB2          0.0000
    53 H18        0.7375   -10.8170     6.5825 H          2 BB2          0.0000
    54 H19       -0.4813   -10.6599     8.7138 H          2 BB2          0.0000
    55 H20       -1.3716   -13.6090    10.7615 H          2 BB2          0.0000
    56 H21       -0.3064   -12.2770    11.2708 H          2 BB2          0.0000
    57 H22       -1.0890    -9.7516    10.4475 H          2 BB2          0.0000
    58 H23       -3.5514    -8.8261    10.1412 H          2 BB2          0.0000
@<TRIPOS>BOND
     1      1      2 1
     2      1     16 1
     3      1     17 1
     4      1     18 1
     5      2      3 1
     6      2     19 1
     7      2     20 1
     8      3      4 1
     9      3      8 1
    10      3     21 1
    11      4      5 1
    12      4      6 1
    13      4     22 1
    14      5     36 1
    15      6      7 1
    16      6     23 1
    17      6     24 1
    18      7      8 1
    19      7     25 1
    20      7     26 1
    21      8      9 am
    22      9     10 2
    23      9     11 1
    24     11     12 1
    25     12     13 1
    26     12     14 1
    27     12     15 1
    28     13     27 1
    29     13     28 1
    30     13     29 1
    31     14     30 1
    32     14     31 1
    33     14     32 1
    34     15     33 1
    35     15     34 1
    36     15     35 1
    37     37     38 2
    38     38     39 1
    39     39     40 ar
    40     39     44 ar
    41     40     41 ar
    42     40     51 1
    43     41     42 ar
    44     41     52 1
    45     42     43 ar
    46     42     53 1
    47     43     44 ar
    48     43     54 1
    49     44     45 1
    50     45     46 1
    51     45     55 1
    52     45     56 1
    53     46     47 1
    54     46     50 1
    55     47     48 2
    56     47     57 1
    57     48     49 1
    58     48     58 1
    59     49     50 2
    60      5     38 am
@<TRIPOS>SUBSTRUCTURE
     1 BB1           5
     2 BB2          38
@<TRIPOS>MOLECULE
EN300-312564_i001_EN300-306118_i001_17_2_1
  58   60   2   0   0
SMALL
USER_CHARGES
@<TRIPOS>ATOM
     1 C1         3.7594   -17.2869    12.3015 C.3        1 BB1          0.0000
     2 C2         2.6581   -17.7566    13.2540 C.3        1 BB1          0.0000
     3 C3         1.2991   -17.2803    12.7368 C.3        1 BB1          0.0000
     4 C4         1.3241   -15.7517    12.5266 C.3        1 BB1          0.0000
     5 N5         1.5258   -15.4253    11.1086 N.am       1 BB1          0.0000
     6 C6        -0.0886   -15.3134    12.9952 C.3        1 BB1          0.0000
     7 C7        -0.3455   -16.2932    14.1672 C.3        1 BB1          0.0000
     8 N8         0.2566   -17.5670    13.7330 N.am       1 BB1          0.0000
     9 C9        -0.0914   -18.7915    14.1757 C.2        1 BB1          0.0000
    10 O10       -1.0306   -18.9185    14.9361 O.2        1 BB1          0.0000
    11 O11        0.6018   -19.8741    13.7755 O.3        1 BB1          0.0000
    12 C12       -0.0860   -21.1520    13.8233 C.3        1 BB1          0.0000
    13 C13        0.7672   -22.2167    13.1311 C.3        1 BB1          0.0000
    14 C14       -0.3169   -21.5525    15.2818 C.3        1 BB1          0.0000
    15 C15       -1.4330   -21.0332    13.1076 C.3        1 BB1          0.0000
    16 H16        4.7323   -17.5693    12.7036 H          1 BB1          0.0000
    17 H17        3.6199   -17.7537    11.3264 H          1 BB1          0.0000
    18 H18        3.7105   -16.2031    12.1958 H          1 BB1          0.0000
    19 H19        2.6648   -18.8453    13.3086 H          1 BB1          0.0000
    20 H20        2.8348   -17.3420    14.2464 H          1 BB1          0.0000
    21 H21        1.0645   -17.7800    11.7970 H          1 BB1          0.0000
    22 H22        2.0974   -15.2905    13.1409 H          1 BB1          0.0000
    23 H23       -0.0817   -14.2807    13.3437 H          1 BB1          0.0000
    24 H24       -0.8237   -15.4516    12.2022 H          1 BB1          0.0000
    25 H25        0.1395   -15.9343    15.0749 H          1 BB1          0.0000
    26 H26       -1.4161   -16.4161    14.3313 H          1 BB1          0.0000
    27 H27        1.7269   -22.3013    13.6409 H          1 BB1          0.0000
    28 H28        0.2510   -23.1759    13.1670 H          1 BB1          0.0000
    29 H29        0.9318   -21.9313    12.0920 H          1 BB1          0.0000
    30 H30       -0.9248   -20.7940    15.7750 H          1 BB1          0.0000
    31 H31       -0.8333   -22.5118    15.3177 H          1 BB1          0.0000
    32 H32        0.6427   -21.6371    15.7917 H          1 BB1          0.0000
    33 H33       -1.2685   -20.7478    12.0686 H          1 BB1          0.0000
    34 H34       -1.9493   -21.9925    13.1436 H          1 BB1          0.0000
    35 H35       -2.0409   -20.2746    13.6008 H          1 BB1          0.0000
    36 H36        2.1742   -14.6562    11.0294 H          1 BB1          0.0000
    37 O1        -0.3996   -15.0968    11.7939 O.2        2 BB2          0.0000
    38 C2         0.6326   -14.8679    11.1794 C.2        2 BB2          0.0000
    39 C4         0.5817   -14.1401     9.8971 C.ar       2 BB2          0.0000
    40 C5         1.3893   -14.5408     8.8300 C.ar       2 BB2          0.0000
    41 C6         1.3364   -13.8555     7.6340 C.ar       2 BB2          0.0000
    42 C7         0.4864   -12.7733     7.4900 C.ar       2 BB2          0.0000
    43 C8        -0.3166   -12.3706     8.5429 C.ar       2 BB2          0.0000
    44 C9        -0.2789   -13.0501     9.7423 C.ar       2 BB2          0.0000
    45 C10       -1.1546   -12.6104    10.8873 C.3        2 BB2          0.0000
    46 N11       -2.0673   -11.5601    10.4288 N.pl3      2 BB2          0.0000
    47 C12       -1.7295   -10.2775    10.1613 C.2        2 BB2          0.0000
    48 C13       -2.8693    -9.6610     9.7705 C.2        2 BB2          0.0000
    49 N14       -3.8360   -10.5845     9.8175 N.2        2 BB2          0.0000
    50 N15       -3.3272   -11.7003    10.2060 N.2        2 BB2          0.0000
    51 H16        2.0538   -15.3849     8.9414 H          2 BB2          0.0000
    52 H17        1.9603   -14.1641     6.8083 H          2 BB2          0.0000
    53 H18        0.4497   -12.2400     6.5515 H          2 BB2          0.0000
    54 H19       -0.9775   -11.5248     8.4234 H          2 BB2          0.0000
    55 H20       -1.7320   -13.4605    11.2504 H          2 BB2          0.0000
    56 H21       -0.5313   -12.2235    11.6935 H          2 BB2          0.0000
    57 H22       -0.7479    -9.8347    10.2433 H          2 BB2          0.0000
    58 H23       -2.9773    -8.6269     9.4786 H          2 BB2          0.0000
@<TRIPOS>BOND
     1      1      2 1
     2      1     16 1
     3      1     17 1
     4      1     18 1
     5      2      3 1
     6      2     19 1
     7      2     20 1
     8      3      4 1
     9      3      8 1
    10      3     21 1
    11      4      5 1
    12      4      6 1
    13      4     22 1
    14      5     36 1
    15      6      7 1
    16      6     23 1
    17      6     24 1
    18      7      8 1
    19      7     25 1
    20      7     26 1
    21      8      9 am
    22      9     10 2
    23      9     11 1
    24     11     12 1
    25     12     13 1
    26     12     14 1
    27     12     15 1
    28     13     27 1
    29     13     28 1
    30     13     29 1
    31     14     30 1
    32     14     31 1
    33     14     32 1
    34     15     33 1
    35     15     34 1
    36     15     35 1
    37     37     38 2
    38     38     39 1
    39     39     40 ar
    40     39     44 ar
    41     40     41 ar
    42     40     51 1
    43     41     42 ar
    44     41     52 1
    45     42     43 ar
    46     42     53 1
    47     43     44 ar
    48     43     54 1
    49     44     45 1
    50     45     46 1
    51     45     55 1
    52     45     56 1
    53     46     47 1
    54     46     50 1
    55     47     48 2
    56     47     57 1
    57     48     49 1
    58     48     58 1
    59     49     50 2
    60      5     38 am
@<TRIPOS>SUBSTRUCTURE
     1 BB1           5
     2 BB2          38
@<TRIPOS>MOLECULE
EN300-312564_i001_EN300-306118_i001_17_4_1
  58   60   2   0   0
SMALL
USER_CHARGES
@<TRIPOS>ATOM
     1 C1         3.7594   -17.2869    12.3015 C.3        1 BB1          0.0000
     2 C2         2.6581   -17.7566    13.2540 C.3        1 BB1          0.0000
     3 C3         1.2991   -17.2803    12.7368 C.3        1 BB1          0.0000
     4 C4         1.3241   -15.7517    12.5266 C.3        1 BB1          0.0000
     5 N5         1.5258   -15.4253    11.1086 N.am       1 BB1          0.0000
     6 C6        -0.0886   -15.3134    12.9952 C.3        1 BB1          0.0000
     7 C7        -0.3455   -16.2932    14.1672 C.3        1 BB1          0.0000
     8 N8         0.2566   -17.5670    13.7330 N.am       1 BB1          0.0000
     9 C9        -0.0914   -18.7915    14.1757 C.2        1 BB1          0.0000
    10 O10       -1.0306   -18.9185    14.9361 O.2        1 BB1          0.0000
    11 O11        0.6018   -19.8741    13.7755 O.3        1 BB1          0.0000
    12 C12       -0.0860   -21.1520    13.8233 C.3        1 BB1          0.0000
    13 C13        0.7672   -22.2167    13.1311 C.3        1 BB1          0.0000
    14 C14       -0.3169   -21.5525    15.2818 C.3        1 BB1          0.0000
    15 C15       -1.4330   -21.0332    13.1076 C.3        1 BB1          0.0000
    16 H16        4.7323   -17.5693    12.7036 H          1 BB1          0.0000
    17 H17        3.6199   -17.7537    11.3264 H          1 BB1          0.0000
    18 H18        3.7105   -16.2031    12.1958 H          1 BB1          0.0000
    19 H19        2.6648   -18.8453    13.3086 H          1 BB1          0.0000
    20 H20        2.8348   -17.3420    14.2464 H          1 BB1          0.0000
    21 H21        1.0645   -17.7800    11.7970 H          1 BB1          0.0000
    22 H22        2.0974   -15.2905    13.1409 H          1 BB1          0.0000
    23 H23       -0.0817   -14.2807    13.3437 H          1 BB1          0.0000
    24 H24       -0.8237   -15.4516    12.2022 H          1 BB1          0.0000
    25 H25        0.1395   -15.9343    15.0749 H          1 BB1          0.0000
    26 H26       -1.4161   -16.4161    14.3313 H          1 BB1          0.0000
    27 H27        1.7269   -22.3013    13.6409 H          1 BB1          0.0000
    28 H28        0.2510   -23.1759    13.1670 H          1 BB1          0.0000
    29 H29        0.9318   -21.9313    12.0920 H          1 BB1          0.0000
    30 H30       -0.9248   -20.7940    15.7750 H          1 BB1          0.0000
    31 H31       -0.8333   -22.5118    15.3177 H          1 BB1          0.0000
    32 H32        0.6427   -21.6371    15.7917 H          1 BB1          0.0000
    33 H33       -1.2685   -20.7478    12.0686 H          1 BB1          0.0000
    34 H34       -1.9493   -21.9925    13.1436 H          1 BB1          0.0000
    35 H35       -2.0409   -20.2746    13.6008 H          1 BB1          0.0000
    36 H37        1.8986   -16.2304    10.6279 H          1 BB1          0.0000
    37 O1        -0.6959   -13.8083    11.5483 O.2        2 BB2          0.0000
    38 C2         0.0232   -14.5029    10.8440 C.2        2 BB2          0.0000
    39 C4         0.1943   -14.1761     9.4156 C.ar       2 BB2          0.0000
    40 C5         0.2000   -15.1937     8.4585 C.ar       2 BB2          0.0000
    41 C6         0.3606   -14.8807     7.1247 C.ar       2 BB2          0.0000
    42 C7         0.5162   -13.5625     6.7340 C.ar       2 BB2          0.0000
    43 C8         0.5116   -12.5491     7.6766 C.ar       2 BB2          0.0000
    44 C9         0.3458   -12.8466     9.0128 C.ar       2 BB2          0.0000
    45 C10        0.3405   -11.7416    10.0376 C.3        2 BB2          0.0000
    46 N11       -0.8775   -10.9417     9.8869 N.pl3      2 BB2          0.0000
    47 C12       -1.9601   -10.9853    10.6975 C.2        2 BB2          0.0000
    48 C13       -2.8435   -10.0913    10.1954 C.2        2 BB2          0.0000
    49 N14       -2.2659    -9.5516     9.1162 N.2        2 BB2          0.0000
    50 N15       -1.0997   -10.0726     8.9638 N.2        2 BB2          0.0000
    51 H16        0.0794   -16.2231     8.7623 H          2 BB2          0.0000
    52 H17        0.3653   -15.6663     6.3837 H          2 BB2          0.0000
    53 H18        0.6423   -13.3234     5.6883 H          2 BB2          0.0000
    54 H19        0.6339   -11.5225     7.3644 H          2 BB2          0.0000
    55 H20        0.3700   -12.1736    11.0379 H          2 BB2          0.0000
    56 H21        1.2134   -11.1056     9.8906 H          2 BB2          0.0000
    57 H22       -2.0926   -11.6083    11.5697 H          2 BB2          0.0000
    58 H23       -3.8224    -9.8595    10.5883 H          2 BB2          0.0000
@<TRIPOS>BOND
     1      1      2 1
     2      1     16 1
     3      1     17 1
     4      1     18 1
     5      2      3 1
     6      2     19 1
     7      2     20 1
     8      3      4 1
     9      3      8 1
    10      3     21 1
    11      4      5 1
    12      4      6 1
    13      4     22 1
    14      5     36 1
    15      6      7 1
    16      6     23 1
    17      6     24 1
    18      7      8 1
    19      7     25 1
    20      7     26 1
    21      8      9 am
    22      9     10 2
    23      9     11 1
    24     11     12 1
    25     12     13 1
    26     12     14 1
    27     12     15 1
    28     13     27 1
    29     13     28 1
    30     13     29 1
    31     14     30 1
    32     14     31 1
    33     14     32 1
    34     15     33 1
    35     15     34 1
    36     15     35 1
    37     37     38 2
    38     38     39 1
    39     39     40 ar
    40     39     44 ar
    41     40     41 ar
    42     40     51 1
    43     41     42 ar
    44     41     52 1
    45     42     43 ar
    46     42     53 1
    47     43     44 ar
    48     43     54 1
    49     44     45 1
    50     45     46 1
    51     45     55 1
    52     45     56 1
    53     46     47 1
    54     46     50 1
    55     47     48 2
    56     47     57 1
    57     48     49 1
    58     48     58 1
    59     49     50 2
    60      5     38 am
@<TRIPOS>SUBSTRUCTURE
     1 BB1           5
     2 BB2          38
@<TRIPOS>MOLECULE
EN300-312564_i001_EN300-306118_i001_17_6_1
  58   60   2   0   0
SMALL
USER_CHARGES
@<TRIPOS>ATOM
     1 C1         3.7594   -17.2869    12.3015 C.3        1 BB1          0.0000
     2 C2         2.6581   -17.7566    13.2540 C.3        1 BB1          0.0000
     3 C3         1.2991   -17.2803    12.7368 C.3        1 BB1          0.0000
     4 C4         1.3241   -15.7517    12.5266 C.3        1 BB1          0.0000
     5 N5         1.5258   -15.4253    11.1086 N.am       1 BB1          0.0000
     6 C6        -0.0886   -15.3134    12.9952 C.3        1 BB1          0.0000
     7 C7        -0.3455   -16.2932    14.1672 C.3        1 BB1          0.0000
     8 N8         0.2566   -17.5670    13.7330 N.am       1 BB1          0.0000
     9 C9        -0.0914   -18.7915    14.1757 C.2        1 BB1          0.0000
    10 O10       -1.0306   -18.9185    14.9361 O.2        1 BB1          0.0000
    11 O11        0.6018   -19.8741    13.7755 O.3        1 BB1          0.0000
    12 C12       -0.0860   -21.1520    13.8233 C.3        1 BB1          0.0000
    13 C13        0.7672   -22.2167    13.1311 C.3        1 BB1          0.0000
    14 C14       -0.3169   -21.5525    15.2818 C.3        1 BB1          0.0000
    15 C15       -1.4330   -21.0332    13.1076 C.3        1 BB1          0.0000
    16 H16        4.7323   -17.5693    12.7036 H          1 BB1          0.0000
    17 H17        3.6199   -17.7537    11.3264 H          1 BB1          0.0000
    18 H18        3.7105   -16.2031    12.1958 H          1 BB1          0.0000
    19 H19        2.6648   -18.8453    13.3086 H          1 BB1          0.0000
    20 H20        2.8348   -17.3420    14.2464 H          1 BB1          0.0000
    21 H21        1.0645   -17.7800    11.7970 H          1 BB1          0.0000
    22 H22        2.0974   -15.2905    13.1409 H          1 BB1          0.0000
    23 H23       -0.0817   -14.2807    13.3437 H          1 BB1          0.0000
    24 H24       -0.8237   -15.4516    12.2022 H          1 BB1          0.0000
    25 H25        0.1395   -15.9343    15.0749 H          1 BB1          0.0000
    26 H26       -1.4161   -16.4161    14.3313 H          1 BB1          0.0000
    27 H27        1.7269   -22.3013    13.6409 H          1 BB1          0.0000
    28 H28        0.2510   -23.1759    13.1670 H          1 BB1          0.0000
    29 H29        0.9318   -21.9313    12.0920 H          1 BB1          0.0000
    30 H30       -0.9248   -20.7940    15.7750 H          1 BB1          0.0000
    31 H31       -0.8333   -22.5118    15.3177 H          1 BB1          0.0000
    32 H32        0.6427   -21.6371    15.7917 H          1 BB1          0.0000
    33 H33       -1.2685   -20.7478    12.0686 H          1 BB1          0.0000
    34 H34       -1.9493   -21.9925    13.1436 H          1 BB1          0.0000
    35 H35       -2.0409   -20.2746    13.6008 H          1 BB1          0.0000
    36 H37        1.8986   -16.2304    10.6279 H          1 BB1          0.0000
    37 O1        -1.2486   -12.9840    11.2797 O.2        2 BB2          0.0000
    38 C2        -0.3996   -13.7304    10.8133 C.2        2 BB2          0.0000
    39 C4         0.1276   -13.4914     9.4563 C.ar       2 BB2          0.0000
    40 C5         0.3583   -14.5656     8.5936 C.ar       2 BB2          0.0000
    41 C6         0.8514   -14.3346     7.3262 C.ar       2 BB2          0.0000
    42 C7         1.1179   -13.0426     6.9090 C.ar       2 BB2          0.0000
    43 C8         0.8918   -11.9734     7.7582 C.ar       2 BB2          0.0000
    44 C9         0.3932   -12.1888     9.0257 C.ar       2 BB2          0.0000
    45 C10        0.1472   -11.0231     9.9488 C.3        2 BB2          0.0000
    46 N11       -1.2932   -10.7753    10.0492 N.pl3      2 BB2          0.0000
    47 C12       -2.2529   -11.3618     9.2971 C.2        2 BB2          0.0000
    48 C13       -3.4309   -10.8465     9.7198 C.2        2 BB2          0.0000
    49 N14       -3.1380    -9.9810    10.6969 N.2        2 BB2          0.0000
    50 N15       -1.8637    -9.9660    10.8717 N.2        2 BB2          0.0000
    51 H16        0.1514   -15.5747     8.9183 H          2 BB2          0.0000
    52 H17        1.0303   -15.1641     6.6582 H          2 BB2          0.0000
    53 H18        1.5046   -12.8676     5.9157 H          2 BB2          0.0000
    54 H19        1.1024   -10.9676     7.4259 H          2 BB2          0.0000
    55 H20        0.5463   -11.2516    10.9369 H          2 BB2          0.0000
    56 H21        0.6418   -10.1360     9.5534 H          2 BB2          0.0000
    57 H22       -2.1081   -12.0939     8.5164 H          2 BB2          0.0000
    58 H23       -4.4139   -11.0863     9.3423 H          2 BB2          0.0000
@<TRIPOS>BOND
     1      1      2 1
     2      1     16 1
     3      1     17 1
     4      1     18 1
     5      2      3 1
     6      2     19 1
     7      2     20 1
     8      3      4 1
     9      3      8 1
    10      3     21 1
    11      4      5 1
    12      4      6 1
    13      4     22 1
    14      5     36 1
    15      6      7 1
    16      6     23 1
    17      6     24 1
    18      7      8 1
    19      7     25 1
    20      7     26 1
    21      8      9 am
    22      9     10 2
    23      9     11 1
    24     11     12 1
    25     12     13 1
    26     12     14 1
    27     12     15 1
    28     13     27 1
    29     13     28 1
    30     13     29 1
    31     14     30 1
    32     14     31 1
    33     14     32 1
    34     15     33 1
    35     15     34 1
    36     15     35 1
    37     37     38 2
    38     38     39 1
    39     39     40 ar
    40     39     44 ar
    41     40     41 ar
    42     40     51 1
    43     41     42 ar
    44     41     52 1
    45     42     43 ar
    46     42     53 1
    47     43     44 ar
    48     43     54 1
    49     44     45 1
    50     45     46 1
    51     45     55 1
    52     45     56 1
    53     46     47 1
    54     46     50 1
    55     47     48 2
    56     47     57 1
    57     48     49 1
    58     48     58 1
    59     49     50 2
    60      5     38 am
@<TRIPOS>SUBSTRUCTURE
     1 BB1           5
     2 BB2          38
@<TRIPOS>MOLECULE
EN300-312564_i001_EN300-306118_i001_17_7_1
  58   60   2   0   0
SMALL
USER_CHARGES
@<TRIPOS>ATOM
     1 C1         3.7594   -17.2869    12.3015 C.3        1 BB1          0.0000
     2 C2         2.6581   -17.7566    13.2540 C.3        1 BB1          0.0000
     3 C3         1.2991   -17.2803    12.7368 C.3        1 BB1          0.0000
     4 C4         1.3241   -15.7517    12.5266 C.3        1 BB1          0.0000
     5 N5         1.5258   -15.4253    11.1086 N.am       1 BB1          0.0000
     6 C6        -0.0886   -15.3134    12.9952 C.3        1 BB1          0.0000
     7 C7        -0.3455   -16.2932    14.1672 C.3        1 BB1          0.0000
     8 N8         0.2566   -17.5670    13.7330 N.am       1 BB1          0.0000
     9 C9        -0.0914   -18.7915    14.1757 C.2        1 BB1          0.0000
    10 O10       -1.0306   -18.9185    14.9361 O.2        1 BB1          0.0000
    11 O11        0.6018   -19.8741    13.7755 O.3        1 BB1          0.0000
    12 C12       -0.0860   -21.1520    13.8233 C.3        1 BB1          0.0000
    13 C13        0.7672   -22.2167    13.1311 C.3        1 BB1          0.0000
    14 C14       -0.3169   -21.5525    15.2818 C.3        1 BB1          0.0000
    15 C15       -1.4330   -21.0332    13.1076 C.3        1 BB1          0.0000
    16 H16        4.7323   -17.5693    12.7036 H          1 BB1          0.0000
    17 H17        3.6199   -17.7537    11.3264 H          1 BB1          0.0000
    18 H18        3.7105   -16.2031    12.1958 H          1 BB1          0.0000
    19 H19        2.6648   -18.8453    13.3086 H          1 BB1          0.0000
    20 H20        2.8348   -17.3420    14.2464 H          1 BB1          0.0000
    21 H21        1.0645   -17.7800    11.7970 H          1 BB1          0.0000
    22 H22        2.0974   -15.2905    13.1409 H          1 BB1          0.0000
    23 H23       -0.0817   -14.2807    13.3437 H          1 BB1          0.0000
    24 H24       -0.8237   -15.4516    12.2022 H          1 BB1          0.0000
    25 H25        0.1395   -15.9343    15.0749 H          1 BB1          0.0000
    26 H26       -1.4161   -16.4161    14.3313 H          1 BB1          0.0000
    27 H27        1.7269   -22.3013    13.6409 H          1 BB1          0.0000
    28 H28        0.2510   -23.1759    13.1670 H          1 BB1          0.0000
    29 H29        0.9318   -21.9313    12.0920 H          1 BB1          0.0000
    30 H30       -0.9248   -20.7940    15.7750 H          1 BB1          0.0000
    31 H31       -0.8333   -22.5118    15.3177 H          1 BB1          0.0000
    32 H32        0.6427   -21.6371    15.7917 H          1 BB1          0.0000
    33 H33       -1.2685   -20.7478    12.0686 H          1 BB1          0.0000
    34 H34       -1.9493   -21.9925    13.1436 H          1 BB1          0.0000
    35 H35       -2.0409   -20.2746    13.6008 H          1 BB1          0.0000
    36 H36        2.1742   -14.6562    11.0294 H          1 BB1          0.0000
    37 O1        -0.6971   -14.7557    11.9521 O.2        2 BB2          0.0000
    38 C2         0.3107   -14.7692    11.2595 C.2        2 BB2          0.0000
    39 C4         0.2910   -14.1590     9.9165 C.ar       2 BB2          0.0000
    40 C5         0.9400   -14.7869     8.8506 C.ar       2 BB2          0.0000
    41 C6         0.9175   -14.2104     7.5976 C.ar       2 BB2          0.0000
    42 C7         0.2545   -13.0130     7.3953 C.ar       2 BB2          0.0000
    43 C8        -0.3907   -12.3851     8.4465 C.ar       2 BB2          0.0000
    44 C9        -0.3818   -12.9530     9.7032 C.ar       2 BB2          0.0000
    45 C10       -1.0854   -12.2680    10.8464 C.3        2 BB2          0.0000
    46 N11       -1.9001   -11.1660    10.3286 N.pl3      2 BB2          0.0000
    47 C12       -3.2480   -11.0736    10.4030 C.2        2 BB2          0.0000
    48 C13       -3.5794    -9.9055     9.8051 C.2        2 BB2          0.0000
    49 N14       -2.4331    -9.3478     9.3992 N.2        2 BB2          0.0000
    50 N15       -1.4563   -10.1169     9.7294 N.2        2 BB2          0.0000
    51 H16        1.4585   -15.7213     9.0074 H          2 BB2          0.0000
    52 H17        1.4188   -14.6947     6.7727 H          2 BB2          0.0000
    53 H18        0.2408   -12.5658     6.4122 H          2 BB2          0.0000
    54 H19       -0.9059   -11.4505     8.2813 H          2 BB2          0.0000
    55 H20       -1.7270   -12.9843    11.3596 H          2 BB2          0.0000
    56 H21       -0.3465   -11.8763    11.5454 H          2 BB2          0.0000
    57 H22       -3.9235   -11.7882    10.8496 H          2 BB2          0.0000
    58 H23       -4.5737    -9.5029     9.6797 H          2 BB2          0.0000
@<TRIPOS>BOND
     1      1      2 1
     2      1     16 1
     3      1     17 1
     4      1     18 1
     5      2      3 1
     6      2     19 1
     7      2     20 1
     8      3      4 1
     9      3      8 1
    10      3     21 1
    11      4      5 1
    12      4      6 1
    13      4     22 1
    14      5     36 1
    15      6      7 1
    16      6     23 1
    17      6     24 1
    18      7      8 1
    19      7     25 1
    20      7     26 1
    21      8      9 am
    22      9     10 2
    23      9     11 1
    24     11     12 1
    25     12     13 1
    26     12     14 1
    27     12     15 1
    28     13     27 1
    29     13     28 1
    30     13     29 1
    31     14     30 1
    32     14     31 1
    33     14     32 1
    34     15     33 1
    35     15     34 1
    36     15     35 1
    37     37     38 2
    38     38     39 1
    39     39     40 ar
    40     39     44 ar
    41     40     41 ar
    42     40     51 1
    43     41     42 ar
    44     41     52 1
    45     42     43 ar
    46     42     53 1
    47     43     44 ar
    48     43     54 1
    49     44     45 1
    50     45     46 1
    51     45     55 1
    52     45     56 1
    53     46     47 1
    54     46     50 1
    55     47     48 2
    56     47     57 1
    57     48     49 1
    58     48     58 1
    59     49     50 2
    60      5     38 am
@<TRIPOS>SUBSTRUCTURE
     1 BB1           5
     2 BB2          38
@<TRIPOS>MOLECULE
EN300-312564_i001_EN300-223795_i001_17_13_1
  49   50   2   0   0
SMALL
USER_CHARGES
@<TRIPOS>ATOM
     1 C1         3.7594   -17.2869    12.3015 C.3        1 BB1          0.0000
     2 C2         2.6581   -17.7566    13.2540 C.3        1 BB1          0.0000
     3 C3         1.2991   -17.2803    12.7368 C.3        1 BB1          0.0000
     4 C4         1.3241   -15.7517    12.5266 C.3        1 BB1          0.0000
     5 N5         1.5258   -15.4253    11.1086 N.am       1 BB1          0.0000
     6 C6        -0.0886   -15.3134    12.9952 C.3        1 BB1          0.0000
     7 C7        -0.3455   -16.2932    14.1672 C.3        1 BB1          0.0000
     8 N8         0.2566   -17.5670    13.7330 N.am       1 BB1          0.0000
     9 C9        -0.0914   -18.7915    14.1757 C.2        1 BB1          0.0000
    10 O10       -1.0306   -18.9185    14.9361 O.2        1 BB1          0.0000
    11 O11        0.6018   -19.8741    13.7755 O.3        1 BB1          0.0000
    12 C12       -0.0860   -21.1520    13.8233 C.3        1 BB1          0.0000
    13 C13        0.7672   -22.2167    13.1311 C.3        1 BB1          0.0000
    14 C14       -0.3169   -21.5525    15.2818 C.3        1 BB1          0.0000
    15 C15       -1.4330   -21.0332    13.1076 C.3        1 BB1          0.0000
    16 H16        4.7323   -17.5693    12.7036 H          1 BB1          0.0000
    17 H17        3.6199   -17.7537    11.3264 H          1 BB1          0.0000
    18 H18        3.7105   -16.2031    12.1958 H          1 BB1          0.0000
    19 H19        2.6648   -18.8453    13.3086 H          1 BB1          0.0000
    20 H20        2.8348   -17.3420    14.2464 H          1 BB1          0.0000
    21 H21        1.0645   -17.7800    11.7970 H          1 BB1          0.0000
    22 H22        2.0974   -15.2905    13.1409 H          1 BB1          0.0000
    23 H23       -0.0817   -14.2807    13.3437 H          1 BB1          0.0000
    24 H24       -0.8237   -15.4516    12.2022 H          1 BB1          0.0000
    25 H25        0.1395   -15.9343    15.0749 H          1 BB1          0.0000
    26 H26       -1.4161   -16.4161    14.3313 H          1 BB1          0.0000
    27 H27        1.7269   -22.3013    13.6409 H          1 BB1          0.0000
    28 H28        0.2510   -23.1759    13.1670 H          1 BB1          0.0000
    29 H29        0.9318   -21.9313    12.0920 H          1 BB1          0.0000
    30 H30       -0.9248   -20.7940    15.7750 H          1 BB1          0.0000
    31 H31       -0.8333   -22.5118    15.3177 H          1 BB1          0.0000
    32 H32        0.6427   -21.6371    15.7917 H          1 BB1          0.0000
    33 H33       -1.2685   -20.7478    12.0686 H          1 BB1          0.0000
    34 H34       -1.9493   -21.9925    13.1436 H          1 BB1          0.0000
    35 H35       -2.0409   -20.2746    13.6008 H          1 BB1          0.0000
    36 H36        2.1742   -14.6562    11.0294 H          1 BB1          0.0000
    37 O1         0.1998   -15.5767    10.2835 O.2        2 BB2          0.0000
    38 C2        -0.1214   -14.6741    11.0454 C.2        2 BB2          0.0000
    39 C4        -0.5198   -13.3679    10.5087 C.2        2 BB2          0.0000
    40 C5        -1.2337   -12.3734    11.2774 C.2        2 BB2          0.0000
    41 C6        -1.4890   -11.2682    10.5893 C.2        2 BB2          0.0000
    42 S7        -0.8614   -11.3974     8.9556 S.3        2 BB2          0.0000
    43 C8        -0.2501   -12.9637     9.2351 C.2        2 BB2          0.0000
    44 C9         0.4817   -13.7924     8.2110 C.3        2 BB2          0.0000
    45 F10        0.6752   -13.0353     7.0506 F          2 BB2          0.0000
    46 F11        1.7227   -14.1815     8.7264 F          2 BB2          0.0000
    47 F12       -0.2737   -14.9296     7.9053 F          2 BB2          0.0000
    48 H13       -1.5292   -12.5156    12.3063 H          2 BB2          0.0000
    49 H14       -2.0113   -10.4077    10.9806 H          2 BB2          0.0000
@<TRIPOS>BOND
     1      1      2 1
     2      1     16 1
     3      1     17 1
     4      1     18 1
     5      2      3 1
     6      2     19 1
     7      2     20 1
     8      3      4 1
     9      3      8 1
    10      3     21 1
    11      4      5 1
    12      4      6 1
    13      4     22 1
    14      5     36 1
    15      6      7 1
    16      6     23 1
    17      6     24 1
    18      7      8 1
    19      7     25 1
    20      7     26 1
    21      8      9 am
    22      9     10 2
    23      9     11 1
    24     11     12 1
    25     12     13 1
    26     12     14 1
    27     12     15 1
    28     13     27 1
    29     13     28 1
    30     13     29 1
    31     14     30 1
    32     14     31 1
    33     14     32 1
    34     15     33 1
    35     15     34 1
    36     15     35 1
    37     37     38 2
    38     38     39 1
    39     39     40 1
    40     39     43 2
    41     40     41 2
    42     40     48 1
    43     41     42 1
    44     41     49 1
    45     42     43 1
    46     43     44 1
    47     44     45 1
    48     44     46 1
    49     44     47 1
    50      5     38 am
@<TRIPOS>SUBSTRUCTURE
     1 BB1           5
     2 BB2          38
@<TRIPOS>MOLECULE
EN300-312564_i001_EN300-344045_i001_17_2_1
  65   67   2   0   0
SMALL
USER_CHARGES
@<TRIPOS>ATOM
     1 C1         3.7594   -17.2869    12.3015 C.3        1 BB1          0.0000
     2 C2         2.6581   -17.7566    13.2540 C.3        1 BB1          0.0000
     3 C3         1.2991   -17.2803    12.7368 C.3        1 BB1          0.0000
     4 C4         1.3241   -15.7517    12.5266 C.3        1 BB1          0.0000
     5 N5         1.5258   -15.4253    11.1086 N.am       1 BB1          0.0000
     6 C6        -0.0886   -15.3134    12.9952 C.3        1 BB1          0.0000
     7 C7        -0.3455   -16.2932    14.1672 C.3        1 BB1          0.0000
     8 N8         0.2566   -17.5670    13.7330 N.am       1 BB1          0.0000
     9 C9        -0.0914   -18.7915    14.1757 C.2        1 BB1          0.0000
    10 O10       -1.0306   -18.9185    14.9361 O.2        1 BB1          0.0000
    11 O11        0.6018   -19.8741    13.7755 O.3        1 BB1          0.0000
    12 C12       -0.0860   -21.1520    13.8233 C.3        1 BB1          0.0000
    13 C13        0.7672   -22.2167    13.1311 C.3        1 BB1          0.0000
    14 C14       -0.3169   -21.5525    15.2818 C.3        1 BB1          0.0000
    15 C15       -1.4330   -21.0332    13.1076 C.3        1 BB1          0.0000
    16 H16        4.7323   -17.5693    12.7036 H          1 BB1          0.0000
    17 H17        3.6199   -17.7537    11.3264 H          1 BB1          0.0000
    18 H18        3.7105   -16.2031    12.1958 H          1 BB1          0.0000
    19 H19        2.6648   -18.8453    13.3086 H          1 BB1          0.0000
    20 H20        2.8348   -17.3420    14.2464 H          1 BB1          0.0000
    21 H21        1.0645   -17.7800    11.7970 H          1 BB1          0.0000
    22 H22        2.0974   -15.2905    13.1409 H          1 BB1          0.0000
    23 H23       -0.0817   -14.2807    13.3437 H          1 BB1          0.0000
    24 H24       -0.8237   -15.4516    12.2022 H          1 BB1          0.0000
    25 H25        0.1395   -15.9343    15.0749 H          1 BB1          0.0000
    26 H26       -1.4161   -16.4161    14.3313 H          1 BB1          0.0000
    27 H27        1.7269   -22.3013    13.6409 H          1 BB1          0.0000
    28 H28        0.2510   -23.1759    13.1670 H          1 BB1          0.0000
    29 H29        0.9318   -21.9313    12.0920 H          1 BB1          0.0000
    30 H30       -0.9248   -20.7940    15.7750 H          1 BB1          0.0000
    31 H31       -0.8333   -22.5118    15.3177 H          1 BB1          0.0000
    32 H32        0.6427   -21.6371    15.7917 H          1 BB1          0.0000
    33 H33       -1.2685   -20.7478    12.0686 H          1 BB1          0.0000
    34 H34       -1.9493   -21.9925    13.1436 H          1 BB1          0.0000
    35 H35       -2.0409   -20.2746    13.6008 H          1 BB1          0.0000
    36 H37        1.8986   -16.2304    10.6279 H          1 BB1          0.0000
    37 C2         0.2489   -14.5943    11.0019 C.2        2 BB2          0.0000
    38 O3        -0.6663   -14.2364    11.7237 O.2        2 BB2          0.0000
    39 C4         0.9922   -13.5817    10.1694 C.3        2 BB2          0.0000
    40 C5         0.0568   -13.0163     9.0988 C.3        2 BB2          0.0000
    41 C6         0.8768   -12.3025     8.0042 C.3        2 BB2          0.0000
    42 C7         1.0511   -13.3749     6.9002 C.3        2 BB2          0.0000
    43 C8        -0.3163   -14.1023     6.9114 C.3        2 BB2          0.0000
    44 C9        -0.7017   -14.1605     8.4040 C.3        2 BB2          0.0000
    45 C10       -0.9194   -12.0528     9.7233 C.ar       2 BB2          0.0000
    46 C11       -0.7018   -11.5818    11.0046 C.ar       2 BB2          0.0000
    47 C12       -1.5972   -10.6981    11.5774 C.ar       2 BB2          0.0000
    48 C13       -2.7099   -10.2850    10.8687 C.ar       2 BB2          0.0000
    49 C14       -2.9270   -10.7553     9.5871 C.ar       2 BB2          0.0000
    50 C15       -2.0292   -11.6357     9.0126 C.ar       2 BB2          0.0000
    51 H16        1.3431   -12.7722    10.8096 H          2 BB2          0.0000
    52 H17        1.8455   -14.0614     9.6898 H          2 BB2          0.0000
    53 H18        0.3298   -11.4425     7.6177 H          2 BB2          0.0000
    54 H19        1.8472   -11.9949     8.3939 H          2 BB2          0.0000
    55 H20        1.2319   -12.9071     5.9324 H          2 BB2          0.0000
    56 H21        1.8570   -14.0634     7.1543 H          2 BB2          0.0000
    57 H22       -1.0559   -13.5330     6.3483 H          2 BB2          0.0000
    58 H23       -0.2166   -15.1082     6.5036 H          2 BB2          0.0000
    59 H24       -0.4034   -15.1187     8.8294 H          2 BB2          0.0000
    60 H25       -1.7765   -14.0194     8.5179 H          2 BB2          0.0000
    61 H26        0.1674   -11.9045    11.5583 H          2 BB2          0.0000
    62 H27       -1.4278   -10.3307    12.5787 H          2 BB2          0.0000
    63 H28       -3.4099    -9.5951    11.3165 H          2 BB2          0.0000
    64 H29       -3.7964   -10.4328     9.0334 H          2 BB2          0.0000
    65 H30       -2.1987   -12.0032     8.0113 H          2 BB2          0.0000
@<TRIPOS>BOND
     1      1      2 1
     2      1     16 1
     3      1     17 1
     4      1     18 1
     5      2      3 1
     6      2     19 1
     7      2     20 1
     8      3      4 1
     9      3      8 1
    10      3     21 1
    11      4      5 1
    12      4      6 1
    13      4     22 1
    14      5     36 1
    15      6      7 1
    16      6     23 1
    17      6     24 1
    18      7      8 1
    19      7     25 1
    20      7     26 1
    21      8      9 am
    22      9     10 2
    23      9     11 1
    24     11     12 1
    25     12     13 1
    26     12     14 1
    27     12     15 1
    28     13     27 1
    29     13     28 1
    30     13     29 1
    31     14     30 1
    32     14     31 1
    33     14     32 1
    34     15     33 1
    35     15     34 1
    36     15     35 1
    37     37     38 2
    38     37     39 1
    39     39     40 1
    40     39     51 1
    41     39     52 1
    42     40     41 1
    43     40     44 1
    44     40     45 1
    45     41     42 1
    46     41     53 1
    47     41     54 1
    48     42     43 1
    49     42     55 1
    50     42     56 1
    51     43     44 1
    52     43     57 1
    53     43     58 1
    54     44     59 1
    55     44     60 1
    56     45     46 ar
    57     45     50 ar
    58     46     47 ar
    59     46     61 1
    60     47     48 ar
    61     47     62 1
    62     48     49 ar
    63     48     63 1
    64     49     50 ar
    65     49     64 1
    66     50     65 1
    67      5     37 am
@<TRIPOS>SUBSTRUCTURE
     1 BB1           5
     2 BB2          37
@<TRIPOS>MOLECULE
EN300-312564_i001_EN300-4287209_i001_18_3_1
  51   52   2   0   0
SMALL
USER_CHARGES
@<TRIPOS>ATOM
     1 C1        -0.3627   -16.4996    14.6991 C.3        1 BB1          0.0000
     2 C2         1.0848   -16.7000    14.2457 C.3        1 BB1          0.0000
     3 C3         1.1009   -17.2290    12.8101 C.3        1 BB1          0.0000
     4 C4         0.3499   -16.2511    11.8820 C.3        1 BB1          0.0000
     5 N5         1.2962   -15.3985    11.1503 N.am       1 BB1          0.0000
     6 C6        -0.3987   -17.2005    10.9096 C.3        1 BB1          0.0000
     7 C7        -0.7607   -18.3812    11.8448 C.3        1 BB1          0.0000
     8 N8         0.3989   -18.5191    12.7447 N.am       1 BB1          0.0000
     9 C9         0.7564   -19.6420    13.3988 C.2        1 BB1          0.0000
    10 O10        1.6813   -19.6179    14.1864 O.2        1 BB1          0.0000
    11 O11        0.0888   -20.7904    13.1793 O.3        1 BB1          0.0000
    12 C12        0.3039   -21.8693    14.1270 C.3        1 BB1          0.0000
    13 C13        0.0433   -21.3610    15.5464 C.3        1 BB1          0.0000
    14 C14       -0.6532   -23.0212    13.8142 C.3        1 BB1          0.0000
    15 C15        1.7481   -22.3626    14.0190 C.3        1 BB1          0.0000
    16 H16       -0.3762   -16.1856    15.7428 H          1 BB1          0.0000
    17 H17       -0.8336   -15.7335    14.0831 H          1 BB1          0.0000
    18 H18       -0.9093   -17.4368    14.5944 H          1 BB1          0.0000
    19 H19        1.6140   -15.7479    14.2880 H          1 BB1          0.0000
    20 H20        1.5753   -17.4179    14.9029 H          1 BB1          0.0000
    21 H21        2.1297   -17.3465    12.4700 H          1 BB1          0.0000
    22 H22       -0.3543   -15.6436    12.4506 H          1 BB1          0.0000
    23 H23       -1.2967   -16.7259    10.5141 H          1 BB1          0.0000
    24 H24        0.2560   -17.5283    10.1021 H          1 BB1          0.0000
    25 H25       -1.6594   -18.1505    12.4167 H          1 BB1          0.0000
    26 H26       -0.9024   -19.2940    11.2660 H          1 BB1          0.0000
    27 H27       -0.9855   -21.0095    15.6233 H          1 BB1          0.0000
    28 H28        0.2048   -22.1708    16.2577 H          1 BB1          0.0000
    29 H29        0.7252   -20.5403    15.7692 H          1 BB1          0.0000
    30 H30       -0.4676   -23.3834    12.8030 H          1 BB1          0.0000
    31 H31       -0.4917   -23.8311    14.5255 H          1 BB1          0.0000
    32 H32       -1.6822   -22.6698    13.8910 H          1 BB1          0.0000
    33 H33        2.4300   -21.5419    14.2418 H          1 BB1          0.0000
    34 H34        1.9096   -23.1725    14.7304 H          1 BB1          0.0000
    35 H35        1.9338   -22.7247    13.0078 H          1 BB1          0.0000
    36 H37        0.7963   -14.8528    10.4644 H          1 BB1          0.0000
    37 C2        -0.0043   -14.5201    11.5040 C.2        2 BB2          0.0000
    38 O3        -0.5778   -14.6411    12.5774 O.2        2 BB2          0.0000
    39 C4        -0.4017   -13.4480    10.5724 C.ar       2 BB2          0.0000
    40 C5        -1.5033   -12.6425    10.8617 C.ar       2 BB2          0.0000
    41 C6        -1.8709   -11.6325     9.9767 C.ar       2 BB2          0.0000
    42 C7        -3.0001   -10.8010    10.2667 C.1        2 BB2          0.0000
    43 C8        -3.9259   -10.1193    10.5044 C.1        2 BB2          0.0000
    44 C9        -1.1364   -11.4311     8.8058 C.ar       2 BB2          0.0000
    45 C10       -0.0472   -12.2308     8.5230 C.ar       2 BB2          0.0000
    46 C11        0.3287   -13.2319     9.3982 C.ar       2 BB2          0.0000
    47 Cl12       1.6998   -14.2324     9.0338 Cl         2 BB2          0.0000
    48 H13       -2.0687   -12.8018    11.7680 H          2 BB2          0.0000
    49 H14       -4.7538    -9.5095    10.7170 H          2 BB2          0.0000
    50 H15       -1.4217   -10.6476     8.1195 H          2 BB2          0.0000
    51 H16        0.5164   -12.0702     7.6158 H          2 BB2          0.0000
@<TRIPOS>BOND
     1      1      2 1
     2      1     16 1
     3      1     17 1
     4      1     18 1
     5      2      3 1
     6      2     19 1
     7      2     20 1
     8      3      4 1
     9      3      8 1
    10      3     21 1
    11      4      5 1
    12      4      6 1
    13      4     22 1
    14      5     36 1
    15      6      7 1
    16      6     23 1
    17      6     24 1
    18      7      8 1
    19      7     25 1
    20      7     26 1
    21      8      9 am
    22      9     10 2
    23      9     11 1
    24     11     12 1
    25     12     13 1
    26     12     14 1
    27     12     15 1
    28     13     27 1
    29     13     28 1
    30     13     29 1
    31     14     30 1
    32     14     31 1
    33     14     32 1
    34     15     33 1
    35     15     34 1
    36     15     35 1
    37     37     38 2
    38     37     39 1
    39     39     40 ar
    40     39     46 ar
    41     40     41 ar
    42     40     48 1
    43     41     42 1
    44     41     44 ar
    45     42     43 3
    46     43     49 1
    47     44     45 ar
    48     44     50 1
    49     45     46 ar
    50     45     51 1
    51     46     47 1
    52      5     37 am
@<TRIPOS>SUBSTRUCTURE
     1 BB1           5
     2 BB2          37
@<TRIPOS>MOLECULE
EN300-312564_i001_EN300-19857_i001_18_20_1
  49   50   2   0   0
SMALL
USER_CHARGES
@<TRIPOS>ATOM
     1 C1        -0.3627   -16.4996    14.6991 C.3        1 BB1          0.0000
     2 C2         1.0848   -16.7000    14.2457 C.3        1 BB1          0.0000
     3 C3         1.1009   -17.2290    12.8101 C.3        1 BB1          0.0000
     4 C4         0.3499   -16.2511    11.8820 C.3        1 BB1          0.0000
     5 N5         1.2962   -15.3985    11.1503 N.am       1 BB1          0.0000
     6 C6        -0.3987   -17.2005    10.9096 C.3        1 BB1          0.0000
     7 C7        -0.7607   -18.3812    11.8448 C.3        1 BB1          0.0000
     8 N8         0.3989   -18.5191    12.7447 N.am       1 BB1          0.0000
     9 C9         0.7564   -19.6420    13.3988 C.2        1 BB1          0.0000
    10 O10        1.6813   -19.6179    14.1864 O.2        1 BB1          0.0000
    11 O11        0.0888   -20.7904    13.1793 O.3        1 BB1          0.0000
    12 C12        0.3039   -21.8693    14.1270 C.3        1 BB1          0.0000
    13 C13        0.0433   -21.3610    15.5464 C.3        1 BB1          0.0000
    14 C14       -0.6532   -23.0212    13.8142 C.3        1 BB1          0.0000
    15 C15        1.7481   -22.3626    14.0190 C.3        1 BB1          0.0000
    16 H16       -0.3762   -16.1856    15.7428 H          1 BB1          0.0000
    17 H17       -0.8336   -15.7335    14.0831 H          1 BB1          0.0000
    18 H18       -0.9093   -17.4368    14.5944 H          1 BB1          0.0000
    19 H19        1.6140   -15.7479    14.2880 H          1 BB1          0.0000
    20 H20        1.5753   -17.4179    14.9029 H          1 BB1          0.0000
    21 H21        2.1297   -17.3465    12.4700 H          1 BB1          0.0000
    22 H22       -0.3543   -15.6436    12.4506 H          1 BB1          0.0000
    23 H23       -1.2967   -16.7259    10.5141 H          1 BB1          0.0000
    24 H24        0.2560   -17.5283    10.1021 H          1 BB1          0.0000
    25 H25       -1.6594   -18.1505    12.4167 H          1 BB1          0.0000
    26 H26       -0.9024   -19.2940    11.2660 H          1 BB1          0.0000
    27 H27       -0.9855   -21.0095    15.6233 H          1 BB1          0.0000
    28 H28        0.2048   -22.1708    16.2577 H          1 BB1          0.0000
    29 H29        0.7252   -20.5403    15.7692 H          1 BB1          0.0000
    30 H30       -0.4676   -23.3834    12.8030 H          1 BB1          0.0000
    31 H31       -0.4917   -23.8311    14.5255 H          1 BB1          0.0000
    32 H32       -1.6822   -22.6698    13.8910 H          1 BB1          0.0000
    33 H33        2.4300   -21.5419    14.2418 H          1 BB1          0.0000
    34 H34        1.9096   -23.1725    14.7304 H          1 BB1          0.0000
    35 H35        1.9338   -22.7247    13.0078 H          1 BB1          0.0000
    36 H37        0.7963   -14.8528    10.4644 H          1 BB1          0.0000
    37 O1        -0.6801   -14.7334    12.2748 O.2        2 BB2          0.0000
    38 C2        -0.0612   -14.3703    11.2846 C.2        2 BB2          0.0000
    39 C4        -0.4899   -13.1665    10.5471 C.ar       2 BB2          0.0000
    40 C5         0.2870   -12.6738     9.4958 C.ar       2 BB2          0.0000
    41 C6        -0.1195   -11.5478     8.8104 C.ar       2 BB2          0.0000
    42 C7        -1.2938   -10.9062     9.1618 C.ar       2 BB2          0.0000
    43 C8        -2.0692   -11.3882    10.2031 C.ar       2 BB2          0.0000
    44 Br9       -3.6723   -10.5028    10.6742 Br         2 BB2          0.0000
    45 C10       -1.6778   -12.5173    10.8933 C.ar       2 BB2          0.0000
    46 H11        1.2041   -13.1732     9.2205 H          2 BB2          0.0000
    47 H12        0.4805   -11.1659     7.9978 H          2 BB2          0.0000
    48 H13       -1.6071   -10.0250     8.6216 H          2 BB2          0.0000
    49 H14       -2.2830   -12.8926    11.7053 H          2 BB2          0.0000
@<TRIPOS>BOND
     1      1      2 1
     2      1     16 1
     3      1     17 1
     4      1     18 1
     5      2      3 1
     6      2     19 1
     7      2     20 1
     8      3      4 1
     9      3      8 1
    10      3     21 1
    11      4      5 1
    12      4      6 1
    13      4     22 1
    14      5     36 1
    15      6      7 1
    16      6     23 1
    17      6     24 1
    18      7      8 1
    19      7     25 1
    20      7     26 1
    21      8      9 am
    22      9     10 2
    23      9     11 1
    24     11     12 1
    25     12     13 1
    26     12     14 1
    27     12     15 1
    28     13     27 1
    29     13     28 1
    30     13     29 1
    31     14     30 1
    32     14     31 1
    33     14     32 1
    34     15     33 1
    35     15     34 1
    36     15     35 1
    37     37     38 2
    38     38     39 1
    39     39     40 ar
    40     39     45 ar
    41     40     41 ar
    42     40     46 1
    43     41     42 ar
    44     41     47 1
    45     42     43 ar
    46     42     48 1
    47     43     44 1
    48     43     45 ar
    49     45     49 1
    50      5     38 am
@<TRIPOS>SUBSTRUCTURE
     1 BB1           5
     2 BB2          38
@<TRIPOS>MOLECULE
EN300-312564_i001_EN300-222254_i002_18_7_1
  59   61   2   0   0
SMALL
USER_CHARGES
@<TRIPOS>ATOM
     1 C1        -0.3627   -16.4996    14.6991 C.3        1 BB1          0.0000
     2 C2         1.0848   -16.7000    14.2457 C.3        1 BB1          0.0000
     3 C3         1.1009   -17.2290    12.8101 C.3        1 BB1          0.0000
     4 C4         0.3499   -16.2511    11.8820 C.3        1 BB1          0.0000
     5 N5         1.2962   -15.3985    11.1503 N.am       1 BB1          0.0000
     6 C6        -0.3987   -17.2005    10.9096 C.3        1 BB1          0.0000
     7 C7        -0.7607   -18.3812    11.8448 C.3        1 BB1          0.0000
     8 N8         0.3989   -18.5191    12.7447 N.am       1 BB1          0.0000
     9 C9         0.7564   -19.6420    13.3988 C.2        1 BB1          0.0000
    10 O10        1.6813   -19.6179    14.1864 O.2        1 BB1          0.0000
    11 O11        0.0888   -20.7904    13.1793 O.3        1 BB1          0.0000
    12 C12        0.3039   -21.8693    14.1270 C.3        1 BB1          0.0000
    13 C13        0.0433   -21.3610    15.5464 C.3        1 BB1          0.0000
    14 C14       -0.6532   -23.0212    13.8142 C.3        1 BB1          0.0000
    15 C15        1.7481   -22.3626    14.0190 C.3        1 BB1          0.0000
    16 H16       -0.3762   -16.1856    15.7428 H          1 BB1          0.0000
    17 H17       -0.8336   -15.7335    14.0831 H          1 BB1          0.0000
    18 H18       -0.9093   -17.4368    14.5944 H          1 BB1          0.0000
    19 H19        1.6140   -15.7479    14.2880 H          1 BB1          0.0000
    20 H20        1.5753   -17.4179    14.9029 H          1 BB1          0.0000
    21 H21        2.1297   -17.3465    12.4700 H          1 BB1          0.0000
    22 H22       -0.3543   -15.6436    12.4506 H          1 BB1          0.0000
    23 H23       -1.2967   -16.7259    10.5141 H          1 BB1          0.0000
    24 H24        0.2560   -17.5283    10.1021 H          1 BB1          0.0000
    25 H25       -1.6594   -18.1505    12.4167 H          1 BB1          0.0000
    26 H26       -0.9024   -19.2940    11.2660 H          1 BB1          0.0000
    27 H27       -0.9855   -21.0095    15.6233 H          1 BB1          0.0000
    28 H28        0.2048   -22.1708    16.2577 H          1 BB1          0.0000
    29 H29        0.7252   -20.5403    15.7692 H          1 BB1          0.0000
    30 H30       -0.4676   -23.3834    12.8030 H          1 BB1          0.0000
    31 H31       -0.4917   -23.8311    14.5255 H          1 BB1          0.0000
    32 H32       -1.6822   -22.6698    13.8910 H          1 BB1          0.0000
    33 H33        2.4300   -21.5419    14.2418 H          1 BB1          0.0000
    34 H34        1.9096   -23.1725    14.7304 H          1 BB1          0.0000
    35 H35        1.9338   -22.7247    13.0078 H          1 BB1          0.0000
    36 H37        0.7963   -14.8528    10.4644 H          1 BB1          0.0000
    37 C2         0.0691   -14.5794    11.3943 C.2        2 BB2          0.0000
    38 O3        -0.6133   -14.3621    12.3811 O.2        2 BB2          0.0000
    39 C4        -0.3286   -14.0010    10.0609 C.3        2 BB2          0.0000
    40 C5         0.7881   -14.0614     9.0053 C.3        2 BB2          0.0000
    41 C6         0.3404   -12.6575     8.5654 C.3        2 BB2          0.0000
    42 C7        -0.2035   -12.4698     9.9915 C.3        2 BB2          0.0000
    43 C8        -1.5280   -11.7529    10.0428 C.ar       2 BB2          0.0000
    44 C9        -2.6243   -12.2791     9.3866 C.ar       2 BB2          0.0000
    45 C10       -3.8397   -11.6218     9.4328 C.ar       2 BB2          0.0000
    46 C11       -3.9599   -10.4369    10.1366 C.ar       2 BB2          0.0000
    47 Cl12      -5.4867    -9.6127    10.1944 Cl         2 BB2          0.0000
    48 C13       -2.8635    -9.9090    10.7946 C.ar       2 BB2          0.0000
    49 C14       -1.6479   -10.5698    10.7526 C.ar       2 BB2          0.0000
    50 F15       -0.5765   -10.0555    11.3951 F          2 BB2          0.0000
    51 H16       -1.2870   -14.3786     9.7046 H          2 BB2          0.0000
    52 H17        1.7910   -14.0862     9.4316 H          2 BB2          0.0000
    53 H18        0.6306   -14.8277     8.2463 H          2 BB2          0.0000
    54 H19        1.1683   -11.9913     8.3226 H          2 BB2          0.0000
    55 H20       -0.4354   -12.6666     7.7998 H          2 BB2          0.0000
    56 H21        0.5283   -12.0595    10.6874 H          2 BB2          0.0000
    57 H22       -2.5316   -13.2041     8.8369 H          2 BB2          0.0000
    58 H23       -4.6958   -12.0336     8.9190 H          2 BB2          0.0000
    59 H24       -2.9569    -8.9840    11.3440 H          2 BB2          0.0000
@<TRIPOS>BOND
     1      1      2 1
     2      1     16 1
     3      1     17 1
     4      1     18 1
     5      2      3 1
     6      2     19 1
     7      2     20 1
     8      3      4 1
     9      3      8 1
    10      3     21 1
    11      4      5 1
    12      4      6 1
    13      4     22 1
    14      5     36 1
    15      6      7 1
    16      6     23 1
    17      6     24 1
    18      7      8 1
    19      7     25 1
    20      7     26 1
    21      8      9 am
    22      9     10 2
    23      9     11 1
    24     11     12 1
    25     12     13 1
    26     12     14 1
    27     12     15 1
    28     13     27 1
    29     13     28 1
    30     13     29 1
    31     14     30 1
    32     14     31 1
    33     14     32 1
    34     15     33 1
    35     15     34 1
    36     15     35 1
    37     37     38 2
    38     37     39 1
    39     39     40 1
    40     39     42 1
    41     39     51 1
    42     40     41 1
    43     40     52 1
    44     40     53 1
    45     41     42 1
    46     41     54 1
    47     41     55 1
    48     42     43 1
    49     42     56 1
    50     43     44 ar
    51     43     49 ar
    52     44     45 ar
    53     44     57 1
    54     45     46 ar
    55     45     58 1
    56     46     47 1
    57     46     48 ar
    58     48     49 ar
    59     48     59 1
    60     49     50 1
    61      5     37 am
@<TRIPOS>SUBSTRUCTURE
     1 BB1           5
     2 BB2          37
@<TRIPOS>MOLECULE
EN300-312564_i001_EN300-306118_i001_18_4_1
  58   60   2   0   0
SMALL
USER_CHARGES
@<TRIPOS>ATOM
     1 C1        -0.3627   -16.4996    14.6991 C.3        1 BB1          0.0000
     2 C2         1.0848   -16.7000    14.2457 C.3        1 BB1          0.0000
     3 C3         1.1009   -17.2290    12.8101 C.3        1 BB1          0.0000
     4 C4         0.3499   -16.2511    11.8820 C.3        1 BB1          0.0000
     5 N5         1.2962   -15.3985    11.1503 N.am       1 BB1          0.0000
     6 C6        -0.3987   -17.2005    10.9096 C.3        1 BB1          0.0000
     7 C7        -0.7607   -18.3812    11.8448 C.3        1 BB1          0.0000
     8 N8         0.3989   -18.5191    12.7447 N.am       1 BB1          0.0000
     9 C9         0.7564   -19.6420    13.3988 C.2        1 BB1          0.0000
    10 O10        1.6813   -19.6179    14.1864 O.2        1 BB1          0.0000
    11 O11        0.0888   -20.7904    13.1793 O.3        1 BB1          0.0000
    12 C12        0.3039   -21.8693    14.1270 C.3        1 BB1          0.0000
    13 C13        0.0433   -21.3610    15.5464 C.3        1 BB1          0.0000
    14 C14       -0.6532   -23.0212    13.8142 C.3        1 BB1          0.0000
    15 C15        1.7481   -22.3626    14.0190 C.3        1 BB1          0.0000
    16 H16       -0.3762   -16.1856    15.7428 H          1 BB1          0.0000
    17 H17       -0.8336   -15.7335    14.0831 H          1 BB1          0.0000
    18 H18       -0.9093   -17.4368    14.5944 H          1 BB1          0.0000
    19 H19        1.6140   -15.7479    14.2880 H          1 BB1          0.0000
    20 H20        1.5753   -17.4179    14.9029 H          1 BB1          0.0000
    21 H21        2.1297   -17.3465    12.4700 H          1 BB1          0.0000
    22 H22       -0.3543   -15.6436    12.4506 H          1 BB1          0.0000
    23 H23       -1.2967   -16.7259    10.5141 H          1 BB1          0.0000
    24 H24        0.2560   -17.5283    10.1021 H          1 BB1          0.0000
    25 H25       -1.6594   -18.1505    12.4167 H          1 BB1          0.0000
    26 H26       -0.9024   -19.2940    11.2660 H          1 BB1          0.0000
    27 H27       -0.9855   -21.0095    15.6233 H          1 BB1          0.0000
    28 H28        0.2048   -22.1708    16.2577 H          1 BB1          0.0000
    29 H29        0.7252   -20.5403    15.7692 H          1 BB1          0.0000
    30 H30       -0.4676   -23.3834    12.8030 H          1 BB1          0.0000
    31 H31       -0.4917   -23.8311    14.5255 H          1 BB1          0.0000
    32 H32       -1.6822   -22.6698    13.8910 H          1 BB1          0.0000
    33 H33        2.4300   -21.5419    14.2418 H          1 BB1          0.0000
    34 H34        1.9096   -23.1725    14.7304 H          1 BB1          0.0000
    35 H35        1.9338   -22.7247    13.0078 H          1 BB1          0.0000
    36 H36        1.9806   -15.9768    10.6863 H          1 BB1          0.0000
    37 O1        -0.6959   -13.8083    11.5483 O.2        2 BB2          0.0000
    38 C2         0.0232   -14.5029    10.8440 C.2        2 BB2          0.0000
    39 C4         0.1943   -14.1761     9.4156 C.ar       2 BB2          0.0000
    40 C5         0.2000   -15.1937     8.4585 C.ar       2 BB2          0.0000
    41 C6         0.3606   -14.8807     7.1247 C.ar       2 BB2          0.0000
    42 C7         0.5162   -13.5625     6.7340 C.ar       2 BB2          0.0000
    43 C8         0.5116   -12.5491     7.6766 C.ar       2 BB2          0.0000
    44 C9         0.3458   -12.8466     9.0128 C.ar       2 BB2          0.0000
    45 C10        0.3405   -11.7416    10.0376 C.3        2 BB2          0.0000
    46 N11       -0.8775   -10.9417     9.8869 N.pl3      2 BB2          0.0000
    47 C12       -1.9601   -10.9853    10.6975 C.2        2 BB2          0.0000
    48 C13       -2.8435   -10.0913    10.1954 C.2        2 BB2          0.0000
    49 N14       -2.2659    -9.5516     9.1162 N.2        2 BB2          0.0000
    50 N15       -1.0997   -10.0726     8.9638 N.2        2 BB2          0.0000
    51 H16        0.0794   -16.2231     8.7623 H          2 BB2          0.0000
    52 H17        0.3653   -15.6663     6.3837 H          2 BB2          0.0000
    53 H18        0.6423   -13.3234     5.6883 H          2 BB2          0.0000
    54 H19        0.6339   -11.5225     7.3644 H          2 BB2          0.0000
    55 H20        0.3700   -12.1736    11.0379 H          2 BB2          0.0000
    56 H21        1.2134   -11.1056     9.8906 H          2 BB2          0.0000
    57 H22       -2.0926   -11.6083    11.5697 H          2 BB2          0.0000
    58 H23       -3.8224    -9.8595    10.5883 H          2 BB2          0.0000
@<TRIPOS>BOND
     1      1      2 1
     2      1     16 1
     3      1     17 1
     4      1     18 1
     5      2      3 1
     6      2     19 1
     7      2     20 1
     8      3      4 1
     9      3      8 1
    10      3     21 1
    11      4      5 1
    12      4      6 1
    13      4     22 1
    14      5     36 1
    15      6      7 1
    16      6     23 1
    17      6     24 1
    18      7      8 1
    19      7     25 1
    20      7     26 1
    21      8      9 am
    22      9     10 2
    23      9     11 1
    24     11     12 1
    25     12     13 1
    26     12     14 1
    27     12     15 1
    28     13     27 1
    29     13     28 1
    30     13     29 1
    31     14     30 1
    32     14     31 1
    33     14     32 1
    34     15     33 1
    35     15     34 1
    36     15     35 1
    37     37     38 2
    38     38     39 1
    39     39     40 ar
    40     39     44 ar
    41     40     41 ar
    42     40     51 1
    43     41     42 ar
    44     41     52 1
    45     42     43 ar
    46     42     53 1
    47     43     44 ar
    48     43     54 1
    49     44     45 1
    50     45     46 1
    51     45     55 1
    52     45     56 1
    53     46     47 1
    54     46     50 1
    55     47     48 2
    56     47     57 1
    57     48     49 1
    58     48     58 1
    59     49     50 2
    60      5     38 am
@<TRIPOS>SUBSTRUCTURE
     1 BB1           5
     2 BB2          38
@<TRIPOS>MOLECULE
EN300-312564_i001_EN300-306118_i001_18_7_1
  58   60   2   0   0
SMALL
USER_CHARGES
@<TRIPOS>ATOM
     1 C1        -0.3627   -16.4996    14.6991 C.3        1 BB1          0.0000
     2 C2         1.0848   -16.7000    14.2457 C.3        1 BB1          0.0000
     3 C3         1.1009   -17.2290    12.8101 C.3        1 BB1          0.0000
     4 C4         0.3499   -16.2511    11.8820 C.3        1 BB1          0.0000
     5 N5         1.2962   -15.3985    11.1503 N.am       1 BB1          0.0000
     6 C6        -0.3987   -17.2005    10.9096 C.3        1 BB1          0.0000
     7 C7        -0.7607   -18.3812    11.8448 C.3        1 BB1          0.0000
     8 N8         0.3989   -18.5191    12.7447 N.am       1 BB1          0.0000
     9 C9         0.7564   -19.6420    13.3988 C.2        1 BB1          0.0000
    10 O10        1.6813   -19.6179    14.1864 O.2        1 BB1          0.0000
    11 O11        0.0888   -20.7904    13.1793 O.3        1 BB1          0.0000
    12 C12        0.3039   -21.8693    14.1270 C.3        1 BB1          0.0000
    13 C13        0.0433   -21.3610    15.5464 C.3        1 BB1          0.0000
    14 C14       -0.6532   -23.0212    13.8142 C.3        1 BB1          0.0000
    15 C15        1.7481   -22.3626    14.0190 C.3        1 BB1          0.0000
    16 H16       -0.3762   -16.1856    15.7428 H          1 BB1          0.0000
    17 H17       -0.8336   -15.7335    14.0831 H          1 BB1          0.0000
    18 H18       -0.9093   -17.4368    14.5944 H          1 BB1          0.0000
    19 H19        1.6140   -15.7479    14.2880 H          1 BB1          0.0000
    20 H20        1.5753   -17.4179    14.9029 H          1 BB1          0.0000
    21 H21        2.1297   -17.3465    12.4700 H          1 BB1          0.0000
    22 H22       -0.3543   -15.6436    12.4506 H          1 BB1          0.0000
    23 H23       -1.2967   -16.7259    10.5141 H          1 BB1          0.0000
    24 H24        0.2560   -17.5283    10.1021 H          1 BB1          0.0000
    25 H25       -1.6594   -18.1505    12.4167 H          1 BB1          0.0000
    26 H26       -0.9024   -19.2940    11.2660 H          1 BB1          0.0000
    27 H27       -0.9855   -21.0095    15.6233 H          1 BB1          0.0000
    28 H28        0.2048   -22.1708    16.2577 H          1 BB1          0.0000
    29 H29        0.7252   -20.5403    15.7692 H          1 BB1          0.0000
    30 H30       -0.4676   -23.3834    12.8030 H          1 BB1          0.0000
    31 H31       -0.4917   -23.8311    14.5255 H          1 BB1          0.0000
    32 H32       -1.6822   -22.6698    13.8910 H          1 BB1          0.0000
    33 H33        2.4300   -21.5419    14.2418 H          1 BB1          0.0000
    34 H34        1.9096   -23.1725    14.7304 H          1 BB1          0.0000
    35 H35        1.9338   -22.7247    13.0078 H          1 BB1          0.0000
    36 H37        0.7963   -14.8528    10.4644 H          1 BB1          0.0000
    37 O1        -0.6971   -14.7557    11.9521 O.2        2 BB2          0.0000
    38 C2         0.3107   -14.7692    11.2595 C.2        2 BB2          0.0000
    39 C4         0.2910   -14.1590     9.9165 C.ar       2 BB2          0.0000
    40 C5         0.9400   -14.7869     8.8506 C.ar       2 BB2          0.0000
    41 C6         0.9175   -14.2104     7.5976 C.ar       2 BB2          0.0000
    42 C7         0.2545   -13.0130     7.3953 C.ar       2 BB2          0.0000
    43 C8        -0.3907   -12.3851     8.4465 C.ar       2 BB2          0.0000
    44 C9        -0.3818   -12.9530     9.7032 C.ar       2 BB2          0.0000
    45 C10       -1.0854   -12.2680    10.8464 C.3        2 BB2          0.0000
    46 N11       -1.9001   -11.1660    10.3286 N.pl3      2 BB2          0.0000
    47 C12       -3.2480   -11.0736    10.4030 C.2        2 BB2          0.0000
    48 C13       -3.5794    -9.9055     9.8051 C.2        2 BB2          0.0000
    49 N14       -2.4331    -9.3478     9.3992 N.2        2 BB2          0.0000
    50 N15       -1.4563   -10.1169     9.7294 N.2        2 BB2          0.0000
    51 H16        1.4585   -15.7213     9.0074 H          2 BB2          0.0000
    52 H17        1.4188   -14.6947     6.7727 H          2 BB2          0.0000
    53 H18        0.2408   -12.5658     6.4122 H          2 BB2          0.0000
    54 H19       -0.9059   -11.4505     8.2813 H          2 BB2          0.0000
    55 H20       -1.7270   -12.9843    11.3596 H          2 BB2          0.0000
    56 H21       -0.3465   -11.8763    11.5454 H          2 BB2          0.0000
    57 H22       -3.9235   -11.7882    10.8496 H          2 BB2          0.0000
    58 H23       -4.5737    -9.5029     9.6797 H          2 BB2          0.0000
@<TRIPOS>BOND
     1      1      2 1
     2      1     16 1
     3      1     17 1
     4      1     18 1
     5      2      3 1
     6      2     19 1
     7      2     20 1
     8      3      4 1
     9      3      8 1
    10      3     21 1
    11      4      5 1
    12      4      6 1
    13      4     22 1
    14      5     36 1
    15      6      7 1
    16      6     23 1
    17      6     24 1
    18      7      8 1
    19      7     25 1
    20      7     26 1
    21      8      9 am
    22      9     10 2
    23      9     11 1
    24     11     12 1
    25     12     13 1
    26     12     14 1
    27     12     15 1
    28     13     27 1
    29     13     28 1
    30     13     29 1
    31     14     30 1
    32     14     31 1
    33     14     32 1
    34     15     33 1
    35     15     34 1
    36     15     35 1
    37     37     38 2
    38     38     39 1
    39     39     40 ar
    40     39     44 ar
    41     40     41 ar
    42     40     51 1
    43     41     42 ar
    44     41     52 1
    45     42     43 ar
    46     42     53 1
    47     43     44 ar
    48     43     54 1
    49     44     45 1
    50     45     46 1
    51     45     55 1
    52     45     56 1
    53     46     47 1
    54     46     50 1
    55     47     48 2
    56     47     57 1
    57     48     49 1
    58     48     58 1
    59     49     50 2
    60      5     38 am
@<TRIPOS>SUBSTRUCTURE
     1 BB1           5
     2 BB2          38
@<TRIPOS>MOLECULE
EN300-312564_i001_EN300-223795_i001_18_13_1
  49   50   2   0   0
SMALL
USER_CHARGES
@<TRIPOS>ATOM
     1 C1        -0.3627   -16.4996    14.6991 C.3        1 BB1          0.0000
     2 C2         1.0848   -16.7000    14.2457 C.3        1 BB1          0.0000
     3 C3         1.1009   -17.2290    12.8101 C.3        1 BB1          0.0000
     4 C4         0.3499   -16.2511    11.8820 C.3        1 BB1          0.0000
     5 N5         1.2962   -15.3985    11.1503 N.am       1 BB1          0.0000
     6 C6        -0.3987   -17.2005    10.9096 C.3        1 BB1          0.0000
     7 C7        -0.7607   -18.3812    11.8448 C.3        1 BB1          0.0000
     8 N8         0.3989   -18.5191    12.7447 N.am       1 BB1          0.0000
     9 C9         0.7564   -19.6420    13.3988 C.2        1 BB1          0.0000
    10 O10        1.6813   -19.6179    14.1864 O.2        1 BB1          0.0000
    11 O11        0.0888   -20.7904    13.1793 O.3        1 BB1          0.0000
    12 C12        0.3039   -21.8693    14.1270 C.3        1 BB1          0.0000
    13 C13        0.0433   -21.3610    15.5464 C.3        1 BB1          0.0000
    14 C14       -0.6532   -23.0212    13.8142 C.3        1 BB1          0.0000
    15 C15        1.7481   -22.3626    14.0190 C.3        1 BB1          0.0000
    16 H16       -0.3762   -16.1856    15.7428 H          1 BB1          0.0000
    17 H17       -0.8336   -15.7335    14.0831 H          1 BB1          0.0000
    18 H18       -0.9093   -17.4368    14.5944 H          1 BB1          0.0000
    19 H19        1.6140   -15.7479    14.2880 H          1 BB1          0.0000
    20 H20        1.5753   -17.4179    14.9029 H          1 BB1          0.0000
    21 H21        2.1297   -17.3465    12.4700 H          1 BB1          0.0000
    22 H22       -0.3543   -15.6436    12.4506 H          1 BB1          0.0000
    23 H23       -1.2967   -16.7259    10.5141 H          1 BB1          0.0000
    24 H24        0.2560   -17.5283    10.1021 H          1 BB1          0.0000
    25 H25       -1.6594   -18.1505    12.4167 H          1 BB1          0.0000
    26 H26       -0.9024   -19.2940    11.2660 H          1 BB1          0.0000
    27 H27       -0.9855   -21.0095    15.6233 H          1 BB1          0.0000
    28 H28        0.2048   -22.1708    16.2577 H          1 BB1          0.0000
    29 H29        0.7252   -20.5403    15.7692 H          1 BB1          0.0000
    30 H30       -0.4676   -23.3834    12.8030 H          1 BB1          0.0000
    31 H31       -0.4917   -23.8311    14.5255 H          1 BB1          0.0000
    32 H32       -1.6822   -22.6698    13.8910 H          1 BB1          0.0000
    33 H33        2.4300   -21.5419    14.2418 H          1 BB1          0.0000
    34 H34        1.9096   -23.1725    14.7304 H          1 BB1          0.0000
    35 H35        1.9338   -22.7247    13.0078 H          1 BB1          0.0000
    36 H38        1.7618   -14.7802    11.7977 H          1 BB1          0.0000
    37 O1         0.1998   -15.5767    10.2835 O.2        2 BB2          0.0000
    38 C2        -0.1214   -14.6741    11.0454 C.2        2 BB2          0.0000
    39 C4        -0.5198   -13.3679    10.5087 C.2        2 BB2          0.0000
    40 C5        -1.2337   -12.3734    11.2774 C.2        2 BB2          0.0000
    41 C6        -1.4890   -11.2682    10.5893 C.2        2 BB2          0.0000
    42 S7        -0.8614   -11.3974     8.9556 S.3        2 BB2          0.0000
    43 C8        -0.2501   -12.9637     9.2351 C.2        2 BB2          0.0000
    44 C9         0.4817   -13.7924     8.2110 C.3        2 BB2          0.0000
    45 F10        0.6752   -13.0353     7.0506 F          2 BB2          0.0000
    46 F11        1.7227   -14.1815     8.7264 F          2 BB2          0.0000
    47 F12       -0.2737   -14.9296     7.9053 F          2 BB2          0.0000
    48 H13       -1.5292   -12.5156    12.3063 H          2 BB2          0.0000
    49 H14       -2.0113   -10.4077    10.9806 H          2 BB2          0.0000
@<TRIPOS>BOND
     1      1      2 1
     2      1     16 1
     3      1     17 1
     4      1     18 1
     5      2      3 1
     6      2     19 1
     7      2     20 1
     8      3      4 1
     9      3      8 1
    10      3     21 1
    11      4      5 1
    12      4      6 1
    13      4     22 1
    14      5     36 1
    15      6      7 1
    16      6     23 1
    17      6     24 1
    18      7      8 1
    19      7     25 1
    20      7     26 1
    21      8      9 am
    22      9     10 2
    23      9     11 1
    24     11     12 1
    25     12     13 1
    26     12     14 1
    27     12     15 1
    28     13     27 1
    29     13     28 1
    30     13     29 1
    31     14     30 1
    32     14     31 1
    33     14     32 1
    34     15     33 1
    35     15     34 1
    36     15     35 1
    37     37     38 2
    38     38     39 1
    39     39     40 1
    40     39     43 2
    41     40     41 2
    42     40     48 1
    43     41     42 1
    44     41     49 1
    45     42     43 1
    46     43     44 1
    47     44     45 1
    48     44     46 1
    49     44     47 1
    50      5     38 am
@<TRIPOS>SUBSTRUCTURE
     1 BB1           5
     2 BB2          38
@<TRIPOS>MOLECULE
EN300-312564_i001_EN300-344045_i001_18_2_1
  65   67   2   0   0
SMALL
USER_CHARGES
@<TRIPOS>ATOM
     1 C1        -0.3627   -16.4996    14.6991 C.3        1 BB1          0.0000
     2 C2         1.0848   -16.7000    14.2457 C.3        1 BB1          0.0000
     3 C3         1.1009   -17.2290    12.8101 C.3        1 BB1          0.0000
     4 C4         0.3499   -16.2511    11.8820 C.3        1 BB1          0.0000
     5 N5         1.2962   -15.3985    11.1503 N.am       1 BB1          0.0000
     6 C6        -0.3987   -17.2005    10.9096 C.3        1 BB1          0.0000
     7 C7        -0.7607   -18.3812    11.8448 C.3        1 BB1          0.0000
     8 N8         0.3989   -18.5191    12.7447 N.am       1 BB1          0.0000
     9 C9         0.7564   -19.6420    13.3988 C.2        1 BB1          0.0000
    10 O10        1.6813   -19.6179    14.1864 O.2        1 BB1          0.0000
    11 O11        0.0888   -20.7904    13.1793 O.3        1 BB1          0.0000
    12 C12        0.3039   -21.8693    14.1270 C.3        1 BB1          0.0000
    13 C13        0.0433   -21.3610    15.5464 C.3        1 BB1          0.0000
    14 C14       -0.6532   -23.0212    13.8142 C.3        1 BB1          0.0000
    15 C15        1.7481   -22.3626    14.0190 C.3        1 BB1          0.0000
    16 H16       -0.3762   -16.1856    15.7428 H          1 BB1          0.0000
    17 H17       -0.8336   -15.7335    14.0831 H          1 BB1          0.0000
    18 H18       -0.9093   -17.4368    14.5944 H          1 BB1          0.0000
    19 H19        1.6140   -15.7479    14.2880 H          1 BB1          0.0000
    20 H20        1.5753   -17.4179    14.9029 H          1 BB1          0.0000
    21 H21        2.1297   -17.3465    12.4700 H          1 BB1          0.0000
    22 H22       -0.3543   -15.6436    12.4506 H          1 BB1          0.0000
    23 H23       -1.2967   -16.7259    10.5141 H          1 BB1          0.0000
    24 H24        0.2560   -17.5283    10.1021 H          1 BB1          0.0000
    25 H25       -1.6594   -18.1505    12.4167 H          1 BB1          0.0000
    26 H26       -0.9024   -19.2940    11.2660 H          1 BB1          0.0000
    27 H27       -0.9855   -21.0095    15.6233 H          1 BB1          0.0000
    28 H28        0.2048   -22.1708    16.2577 H          1 BB1          0.0000
    29 H29        0.7252   -20.5403    15.7692 H          1 BB1          0.0000
    30 H30       -0.4676   -23.3834    12.8030 H          1 BB1          0.0000
    31 H31       -0.4917   -23.8311    14.5255 H          1 BB1          0.0000
    32 H32       -1.6822   -22.6698    13.8910 H          1 BB1          0.0000
    33 H33        2.4300   -21.5419    14.2418 H          1 BB1          0.0000
    34 H34        1.9096   -23.1725    14.7304 H          1 BB1          0.0000
    35 H35        1.9338   -22.7247    13.0078 H          1 BB1          0.0000
    36 H36        1.9806   -15.9768    10.6863 H          1 BB1          0.0000
    37 C2         0.2489   -14.5943    11.0019 C.2        2 BB2          0.0000
    38 O3        -0.6663   -14.2364    11.7237 O.2        2 BB2          0.0000
    39 C4         0.9922   -13.5817    10.1694 C.3        2 BB2          0.0000
    40 C5         0.0568   -13.0163     9.0988 C.3        2 BB2          0.0000
    41 C6         0.8768   -12.3025     8.0042 C.3        2 BB2          0.0000
    42 C7         1.0511   -13.3749     6.9002 C.3        2 BB2          0.0000
    43 C8        -0.3163   -14.1023     6.9114 C.3        2 BB2          0.0000
    44 C9        -0.7017   -14.1605     8.4040 C.3        2 BB2          0.0000
    45 C10       -0.9194   -12.0528     9.7233 C.ar       2 BB2          0.0000
    46 C11       -0.7018   -11.5818    11.0046 C.ar       2 BB2          0.0000
    47 C12       -1.5972   -10.6981    11.5774 C.ar       2 BB2          0.0000
    48 C13       -2.7099   -10.2850    10.8687 C.ar       2 BB2          0.0000
    49 C14       -2.9270   -10.7553     9.5871 C.ar       2 BB2          0.0000
    50 C15       -2.0292   -11.6357     9.0126 C.ar       2 BB2          0.0000
    51 H16        1.3431   -12.7722    10.8096 H          2 BB2          0.0000
    52 H17        1.8455   -14.0614     9.6898 H          2 BB2          0.0000
    53 H18        0.3298   -11.4425     7.6177 H          2 BB2          0.0000
    54 H19        1.8472   -11.9949     8.3939 H          2 BB2          0.0000
    55 H20        1.2319   -12.9071     5.9324 H          2 BB2          0.0000
    56 H21        1.8570   -14.0634     7.1543 H          2 BB2          0.0000
    57 H22       -1.0559   -13.5330     6.3483 H          2 BB2          0.0000
    58 H23       -0.2166   -15.1082     6.5036 H          2 BB2          0.0000
    59 H24       -0.4034   -15.1187     8.8294 H          2 BB2          0.0000
    60 H25       -1.7765   -14.0194     8.5179 H          2 BB2          0.0000
    61 H26        0.1674   -11.9045    11.5583 H          2 BB2          0.0000
    62 H27       -1.4278   -10.3307    12.5787 H          2 BB2          0.0000
    63 H28       -3.4099    -9.5951    11.3165 H          2 BB2          0.0000
    64 H29       -3.7964   -10.4328     9.0334 H          2 BB2          0.0000
    65 H30       -2.1987   -12.0032     8.0113 H          2 BB2          0.0000
@<TRIPOS>BOND
     1      1      2 1
     2      1     16 1
     3      1     17 1
     4      1     18 1
     5      2      3 1
     6      2     19 1
     7      2     20 1
     8      3      4 1
     9      3      8 1
    10      3     21 1
    11      4      5 1
    12      4      6 1
    13      4     22 1
    14      5     36 1
    15      6      7 1
    16      6     23 1
    17      6     24 1
    18      7      8 1
    19      7     25 1
    20      7     26 1
    21      8      9 am
    22      9     10 2
    23      9     11 1
    24     11     12 1
    25     12     13 1
    26     12     14 1
    27     12     15 1
    28     13     27 1
    29     13     28 1
    30     13     29 1
    31     14     30 1
    32     14     31 1
    33     14     32 1
    34     15     33 1
    35     15     34 1
    36     15     35 1
    37     37     38 2
    38     37     39 1
    39     39     40 1
    40     39     51 1
    41     39     52 1
    42     40     41 1
    43     40     44 1
    44     40     45 1
    45     41     42 1
    46     41     53 1
    47     41     54 1
    48     42     43 1
    49     42     55 1
    50     42     56 1
    51     43     44 1
    52     43     57 1
    53     43     58 1
    54     44     59 1
    55     44     60 1
    56     45     46 ar
    57     45     50 ar
    58     46     47 ar
    59     46     61 1
    60     47     48 ar
    61     47     62 1
    62     48     49 ar
    63     48     63 1
    64     49     50 ar
    65     49     64 1
    66     50     65 1
    67      5     37 am
@<TRIPOS>SUBSTRUCTURE
     1 BB1           5
     2 BB2          37
@<TRIPOS>MOLECULE
EN300-312564_i001_EN300-4287209_i001_19_6_1
  51   52   2   0   0
SMALL
USER_CHARGES
@<TRIPOS>ATOM
     1 C1        -0.3237   -21.2219    11.3771 C.3        1 BB1          0.0000
     2 C2         0.4170   -21.1327    12.7128 C.3        1 BB1          0.0000
     3 C3         0.2287   -19.7358    13.3081 C.3        1 BB1          0.0000
     4 C4         1.2093   -18.7460    12.6446 C.3        1 BB1          0.0000
     5 N5         0.5295   -17.9564    11.6090 N.am       1 BB1          0.0000
     6 C6         1.6438   -17.8415    13.8279 C.3        1 BB1          0.0000
     7 C7         1.6739   -18.8547    14.9993 C.3        1 BB1          0.0000
     8 N8         0.5375   -19.7590    14.7454 N.am       1 BB1          0.0000
     9 C9        -0.1110   -20.4861    15.6765 C.2        1 BB1          0.0000
    10 O10       -0.9785   -21.2680    15.3412 O.2        1 BB1          0.0000
    11 O11        0.2022   -20.3459    16.9785 O.3        1 BB1          0.0000
    12 C12       -0.7226   -20.9129    17.9437 C.3        1 BB1          0.0000
    13 C13       -0.2899   -20.5185    19.3572 C.3        1 BB1          0.0000
    14 C14       -2.1312   -20.3801    17.6742 C.3        1 BB1          0.0000
    15 C15       -0.7210   -22.4376    17.8166 C.3        1 BB1          0.0000
    16 H16       -0.1358   -22.1942    10.9217 H          1 BB1          0.0000
    17 H17       -1.3937   -21.1007    11.5461 H          1 BB1          0.0000
    18 H18        0.0305   -20.4344    10.7119 H          1 BB1          0.0000
    19 H19        0.0169   -21.8777    13.4007 H          1 BB1          0.0000
    20 H20        1.4788   -21.3192    12.5526 H          1 BB1          0.0000
    21 H21       -0.7971   -19.4018    13.1524 H          1 BB1          0.0000
    22 H22        2.0655   -19.2743    12.2249 H          1 BB1          0.0000
    23 H23        2.6324   -17.4172    13.6529 H          1 BB1          0.0000
    24 H24        0.9099   -17.0561    14.0094 H          1 BB1          0.0000
    25 H25        2.6106   -19.4121    14.9948 H          1 BB1          0.0000
    26 H26        1.5430   -18.3389    15.9506 H          1 BB1          0.0000
    27 H27       -0.2909   -19.4323    19.4477 H          1 BB1          0.0000
    28 H28       -0.9841   -20.9441    20.0817 H          1 BB1          0.0000
    29 H29        0.7136   -20.8981    19.5492 H          1 BB1          0.0000
    30 H30       -2.4395   -20.6611    16.6671 H          1 BB1          0.0000
    31 H31       -2.8254   -20.8058    18.3987 H          1 BB1          0.0000
    32 H32       -2.1323   -19.2938    17.7646 H          1 BB1          0.0000
    33 H33        0.2825   -22.8172    18.0086 H          1 BB1          0.0000
    34 H34       -1.4153   -22.8632    18.5412 H          1 BB1          0.0000
    35 H35       -1.0293   -22.7187    16.8095 H          1 BB1          0.0000
    36 H36        1.1596   -17.8017    10.8363 H          1 BB1          0.0000
    37 O1        -0.7080   -17.4711    12.5580 O.2        2 BB2          0.0000
    38 C2        -0.1536   -16.4857    12.0918 C.2        2 BB2          0.0000
    39 C4        -0.1204   -16.2800    10.6318 C.ar       2 BB2          0.0000
    40 C5         0.2132   -15.0305    10.1087 C.ar       2 BB2          0.0000
    41 C6         0.2425   -14.8456     8.7290 C.ar       2 BB2          0.0000
    42 C7         0.5845   -13.5663     8.1842 C.1        2 BB2          0.0000
    43 C8         0.8649   -12.5175     7.7374 C.1        2 BB2          0.0000
    44 C9        -0.0616   -15.9100     7.8771 C.ar       2 BB2          0.0000
    45 C10       -0.3916   -17.1448     8.3989 C.ar       2 BB2          0.0000
    46 C11       -0.4177   -17.3393     9.7667 C.ar       2 BB2          0.0000
    47 Cl12      -0.8340   -18.8957    10.4133 Cl         2 BB2          0.0000
    48 H13        0.4473   -14.2101    10.7709 H          2 BB2          0.0000
    49 H14        1.1157   -11.5794     7.3378 H          2 BB2          0.0000
    50 H15       -0.0387   -15.7663     6.8069 H          2 BB2          0.0000
    51 H16       -0.6261   -17.9636     7.7348 H          2 BB2          0.0000
@<TRIPOS>BOND
     1      1      2 1
     2      1     16 1
     3      1     17 1
     4      1     18 1
     5      2      3 1
     6      2     19 1
     7      2     20 1
     8      3      4 1
     9      3      8 1
    10      3     21 1
    11      4      5 1
    12      4      6 1
    13      4     22 1
    14      5     36 1
    15      6      7 1
    16      6     23 1
    17      6     24 1
    18      7      8 1
    19      7     25 1
    20      7     26 1
    21      8      9 am
    22      9     10 2
    23      9     11 1
    24     11     12 1
    25     12     13 1
    26     12     14 1
    27     12     15 1
    28     13     27 1
    29     13     28 1
    30     13     29 1
    31     14     30 1
    32     14     31 1
    33     14     32 1
    34     15     33 1
    35     15     34 1
    36     15     35 1
    37     37     38 2
    38     38     39 1
    39     39     40 ar
    40     39     46 ar
    41     40     41 ar
    42     40     48 1
    43     41     42 1
    44     41     44 ar
    45     42     43 3
    46     43     49 1
    47     44     45 ar
    48     44     50 1
    49     45     46 ar
    50     45     51 1
    51     46     47 1
    52      5     38 am
@<TRIPOS>SUBSTRUCTURE
     1 BB1           5
     2 BB2          38
@<TRIPOS>MOLECULE
EN300-312564_i001_EN300-1231025_i001_19_1_1
  51   51   2   0   0
SMALL
USER_CHARGES
@<TRIPOS>ATOM
     1 C1        -0.3237   -21.2219    11.3771 C.3        1 BB1          0.0000
     2 C2         0.4170   -21.1327    12.7128 C.3        1 BB1          0.0000
     3 C3         0.2287   -19.7358    13.3081 C.3        1 BB1          0.0000
     4 C4         1.2093   -18.7460    12.6446 C.3        1 BB1          0.0000
     5 N5         0.5295   -17.9564    11.6090 N.am       1 BB1          0.0000
     6 C6         1.6438   -17.8415    13.8279 C.3        1 BB1          0.0000
     7 C7         1.6739   -18.8547    14.9993 C.3        1 BB1          0.0000
     8 N8         0.5375   -19.7590    14.7454 N.am       1 BB1          0.0000
     9 C9        -0.1110   -20.4861    15.6765 C.2        1 BB1          0.0000
    10 O10       -0.9785   -21.2680    15.3412 O.2        1 BB1          0.0000
    11 O11        0.2022   -20.3459    16.9785 O.3        1 BB1          0.0000
    12 C12       -0.7226   -20.9129    17.9437 C.3        1 BB1          0.0000
    13 C13       -0.2899   -20.5185    19.3572 C.3        1 BB1          0.0000
    14 C14       -2.1312   -20.3801    17.6742 C.3        1 BB1          0.0000
    15 C15       -0.7210   -22.4376    17.8166 C.3        1 BB1          0.0000
    16 H16       -0.1358   -22.1942    10.9217 H          1 BB1          0.0000
    17 H17       -1.3937   -21.1007    11.5461 H          1 BB1          0.0000
    18 H18        0.0305   -20.4344    10.7119 H          1 BB1          0.0000
    19 H19        0.0169   -21.8777    13.4007 H          1 BB1          0.0000
    20 H20        1.4788   -21.3192    12.5526 H          1 BB1          0.0000
    21 H21       -0.7971   -19.4018    13.1524 H          1 BB1          0.0000
    22 H22        2.0655   -19.2743    12.2249 H          1 BB1          0.0000
    23 H23        2.6324   -17.4172    13.6529 H          1 BB1          0.0000
    24 H24        0.9099   -17.0561    14.0094 H          1 BB1          0.0000
    25 H25        2.6106   -19.4121    14.9948 H          1 BB1          0.0000
    26 H26        1.5430   -18.3389    15.9506 H          1 BB1          0.0000
    27 H27       -0.2909   -19.4323    19.4477 H          1 BB1          0.0000
    28 H28       -0.9841   -20.9441    20.0817 H          1 BB1          0.0000
    29 H29        0.7136   -20.8981    19.5492 H          1 BB1          0.0000
    30 H30       -2.4395   -20.6611    16.6671 H          1 BB1          0.0000
    31 H31       -2.8254   -20.8058    18.3987 H          1 BB1          0.0000
    32 H32       -2.1323   -19.2938    17.7646 H          1 BB1          0.0000
    33 H33        0.2825   -22.8172    18.0086 H          1 BB1          0.0000
    34 H34       -1.4153   -22.8632    18.5412 H          1 BB1          0.0000
    35 H35       -1.0293   -22.7187    16.8095 H          1 BB1          0.0000
    36 H36        1.1596   -17.8017    10.8363 H          1 BB1          0.0000
    37 O1         1.5533   -15.7809    11.7534 O.3        2 BB2          0.0000
    38 C2         0.1671   -15.8328    12.0963 C.3        2 BB2          0.0000
    39 C3        -0.3909   -14.4108    12.1812 C.3        2 BB2          0.0000
    40 C4        -0.4040   -13.7839    10.7856 C.3        2 BB2          0.0000
    41 C5        -1.0947   -12.4851    10.8376 C.1        2 BB2          0.0000
    42 C6        -1.6456   -11.4492    10.8792 C.1        2 BB2          0.0000
    43 C7         0.0047   -16.5167    13.4294 C.2        2 BB2          0.0000
    44 O9        -0.6232   -17.5588    13.5075 O.2        2 BB2          0.0000
    45 H10       -0.3753   -16.3911    11.3332 H          2 BB2          0.0000
    46 H11       -1.4068   -14.4421    12.5750 H          2 BB2          0.0000
    47 H12        0.2367   -13.8131    12.8421 H          2 BB2          0.0000
    48 H13        0.6204   -13.6371    10.4436 H          2 BB2          0.0000
    49 H14       -0.9264   -14.4458    10.0948 H          2 BB2          0.0000
    50 H15       -2.1384   -10.5227    10.9163 H          2 BB2          0.0000
    51 H16        1.7824   -16.2892    10.9633 H          2 BB2          0.0000
@<TRIPOS>BOND
     1      1      2 1
     2      1     16 1
     3      1     17 1
     4      1     18 1
     5      2      3 1
     6      2     19 1
     7      2     20 1
     8      3      4 1
     9      3      8 1
    10      3     21 1
    11      4      5 1
    12      4      6 1
    13      4     22 1
    14      5     36 1
    15      6      7 1
    16      6     23 1
    17      6     24 1
    18      7      8 1
    19      7     25 1
    20      7     26 1
    21      8      9 am
    22      9     10 2
    23      9     11 1
    24     11     12 1
    25     12     13 1
    26     12     14 1
    27     12     15 1
    28     13     27 1
    29     13     28 1
    30     13     29 1
    31     14     30 1
    32     14     31 1
    33     14     32 1
    34     15     33 1
    35     15     34 1
    36     15     35 1
    37     37     38 1
    38     37     51 1
    39     38     39 1
    40     38     43 1
    41     38     45 1
    42     39     40 1
    43     39     46 1
    44     39     47 1
    45     40     41 1
    46     40     48 1
    47     40     49 1
    48     41     42 3
    49     42     50 1
    50     43     44 2
    51      5     43 am
@<TRIPOS>SUBSTRUCTURE
     1 BB1           5
     2 BB2          43
@<TRIPOS>MOLECULE
EN300-312564_i001_EN300-19857_i001_19_14_1
  49   50   2   0   0
SMALL
USER_CHARGES
@<TRIPOS>ATOM
     1 C1        -0.3237   -21.2219    11.3771 C.3        1 BB1          0.0000
     2 C2         0.4170   -21.1327    12.7128 C.3        1 BB1          0.0000
     3 C3         0.2287   -19.7358    13.3081 C.3        1 BB1          0.0000
     4 C4         1.2093   -18.7460    12.6446 C.3        1 BB1          0.0000
     5 N5         0.5295   -17.9564    11.6090 N.am       1 BB1          0.0000
     6 C6         1.6438   -17.8415    13.8279 C.3        1 BB1          0.0000
     7 C7         1.6739   -18.8547    14.9993 C.3        1 BB1          0.0000
     8 N8         0.5375   -19.7590    14.7454 N.am       1 BB1          0.0000
     9 C9        -0.1110   -20.4861    15.6765 C.2        1 BB1          0.0000
    10 O10       -0.9785   -21.2680    15.3412 O.2        1 BB1          0.0000
    11 O11        0.2022   -20.3459    16.9785 O.3        1 BB1          0.0000
    12 C12       -0.7226   -20.9129    17.9437 C.3        1 BB1          0.0000
    13 C13       -0.2899   -20.5185    19.3572 C.3        1 BB1          0.0000
    14 C14       -2.1312   -20.3801    17.6742 C.3        1 BB1          0.0000
    15 C15       -0.7210   -22.4376    17.8166 C.3        1 BB1          0.0000
    16 H16       -0.1358   -22.1942    10.9217 H          1 BB1          0.0000
    17 H17       -1.3937   -21.1007    11.5461 H          1 BB1          0.0000
    18 H18        0.0305   -20.4344    10.7119 H          1 BB1          0.0000
    19 H19        0.0169   -21.8777    13.4007 H          1 BB1          0.0000
    20 H20        1.4788   -21.3192    12.5526 H          1 BB1          0.0000
    21 H21       -0.7971   -19.4018    13.1524 H          1 BB1          0.0000
    22 H22        2.0655   -19.2743    12.2249 H          1 BB1          0.0000
    23 H23        2.6324   -17.4172    13.6529 H          1 BB1          0.0000
    24 H24        0.9099   -17.0561    14.0094 H          1 BB1          0.0000
    25 H25        2.6106   -19.4121    14.9948 H          1 BB1          0.0000
    26 H26        1.5430   -18.3389    15.9506 H          1 BB1          0.0000
    27 H27       -0.2909   -19.4323    19.4477 H          1 BB1          0.0000
    28 H28       -0.9841   -20.9441    20.0817 H          1 BB1          0.0000
    29 H29        0.7136   -20.8981    19.5492 H          1 BB1          0.0000
    30 H30       -2.4395   -20.6611    16.6671 H          1 BB1          0.0000
    31 H31       -2.8254   -20.8058    18.3987 H          1 BB1          0.0000
    32 H32       -2.1323   -19.2938    17.7646 H          1 BB1          0.0000
    33 H33        0.2825   -22.8172    18.0086 H          1 BB1          0.0000
    34 H34       -1.4153   -22.8632    18.5412 H          1 BB1          0.0000
    35 H35       -1.0293   -22.7187    16.8095 H          1 BB1          0.0000
    36 H36        1.1596   -17.8017    10.8363 H          1 BB1          0.0000
    37 O1        -0.5707   -17.3163    13.2432 O.2        2 BB2          0.0000
    38 C2        -0.2271   -16.1459    13.3298 C.2        2 BB2          0.0000
    39 C4        -0.2357   -15.2840    12.1323 C.ar       2 BB2          0.0000
    40 C5         0.2150   -15.7808    10.9070 C.ar       2 BB2          0.0000
    41 C6         0.2045   -14.9696     9.7912 C.ar       2 BB2          0.0000
    42 C7        -0.2510   -13.6665     9.8834 C.ar       2 BB2          0.0000
    43 C8        -0.6989   -13.1666    11.0947 C.ar       2 BB2          0.0000
    44 Br9       -1.3191   -11.3838    11.2084 Br         2 BB2          0.0000
    45 C10       -0.6998   -13.9688    12.2175 C.ar       2 BB2          0.0000
    46 H11        0.5712   -16.7977    10.8333 H          2 BB2          0.0000
    47 H12        0.5529   -15.3526     8.8435 H          2 BB2          0.0000
    48 H13       -0.2570   -13.0361     9.0065 H          2 BB2          0.0000
    49 H14       -1.0492   -13.5781    13.1619 H          2 BB2          0.0000
@<TRIPOS>BOND
     1      1      2 1
     2      1     16 1
     3      1     17 1
     4      1     18 1
     5      2      3 1
     6      2     19 1
     7      2     20 1
     8      3      4 1
     9      3      8 1
    10      3     21 1
    11      4      5 1
    12      4      6 1
    13      4     22 1
    14      5     36 1
    15      6      7 1
    16      6     23 1
    17      6     24 1
    18      7      8 1
    19      7     25 1
    20      7     26 1
    21      8      9 am
    22      9     10 2
    23      9     11 1
    24     11     12 1
    25     12     13 1
    26     12     14 1
    27     12     15 1
    28     13     27 1
    29     13     28 1
    30     13     29 1
    31     14     30 1
    32     14     31 1
    33     14     32 1
    34     15     33 1
    35     15     34 1
    36     15     35 1
    37     37     38 2
    38     38     39 1
    39     39     40 ar
    40     39     45 ar
    41     40     41 ar
    42     40     46 1
    43     41     42 ar
    44     41     47 1
    45     42     43 ar
    46     42     48 1
    47     43     44 1
    48     43     45 ar
    49     45     49 1
    50      5     38 am
@<TRIPOS>SUBSTRUCTURE
     1 BB1           5
     2 BB2          38
@<TRIPOS>MOLECULE
EN300-312564_i001_EN300-19857_i001_19_15_1
  49   50   2   0   0
SMALL
USER_CHARGES
@<TRIPOS>ATOM
     1 C1        -0.3237   -21.2219    11.3771 C.3        1 BB1          0.0000
     2 C2         0.4170   -21.1327    12.7128 C.3        1 BB1          0.0000
     3 C3         0.2287   -19.7358    13.3081 C.3        1 BB1          0.0000
     4 C4         1.2093   -18.7460    12.6446 C.3        1 BB1          0.0000
     5 N5         0.5295   -17.9564    11.6090 N.am       1 BB1          0.0000
     6 C6         1.6438   -17.8415    13.8279 C.3        1 BB1          0.0000
     7 C7         1.6739   -18.8547    14.9993 C.3        1 BB1          0.0000
     8 N8         0.5375   -19.7590    14.7454 N.am       1 BB1          0.0000
     9 C9        -0.1110   -20.4861    15.6765 C.2        1 BB1          0.0000
    10 O10       -0.9785   -21.2680    15.3412 O.2        1 BB1          0.0000
    11 O11        0.2022   -20.3459    16.9785 O.3        1 BB1          0.0000
    12 C12       -0.7226   -20.9129    17.9437 C.3        1 BB1          0.0000
    13 C13       -0.2899   -20.5185    19.3572 C.3        1 BB1          0.0000
    14 C14       -2.1312   -20.3801    17.6742 C.3        1 BB1          0.0000
    15 C15       -0.7210   -22.4376    17.8166 C.3        1 BB1          0.0000
    16 H16       -0.1358   -22.1942    10.9217 H          1 BB1          0.0000
    17 H17       -1.3937   -21.1007    11.5461 H          1 BB1          0.0000
    18 H18        0.0305   -20.4344    10.7119 H          1 BB1          0.0000
    19 H19        0.0169   -21.8777    13.4007 H          1 BB1          0.0000
    20 H20        1.4788   -21.3192    12.5526 H          1 BB1          0.0000
    21 H21       -0.7971   -19.4018    13.1524 H          1 BB1          0.0000
    22 H22        2.0655   -19.2743    12.2249 H          1 BB1          0.0000
    23 H23        2.6324   -17.4172    13.6529 H          1 BB1          0.0000
    24 H24        0.9099   -17.0561    14.0094 H          1 BB1          0.0000
    25 H25        2.6106   -19.4121    14.9948 H          1 BB1          0.0000
    26 H26        1.5430   -18.3389    15.9506 H          1 BB1          0.0000
    27 H27       -0.2909   -19.4323    19.4477 H          1 BB1          0.0000
    28 H28       -0.9841   -20.9441    20.0817 H          1 BB1          0.0000
    29 H29        0.7136   -20.8981    19.5492 H          1 BB1          0.0000
    30 H30       -2.4395   -20.6611    16.6671 H          1 BB1          0.0000
    31 H31       -2.8254   -20.8058    18.3987 H          1 BB1          0.0000
    32 H32       -2.1323   -19.2938    17.7646 H          1 BB1          0.0000
    33 H33        0.2825   -22.8172    18.0086 H          1 BB1          0.0000
    34 H34       -1.4153   -22.8632    18.5412 H          1 BB1          0.0000
    35 H35       -1.0293   -22.7187    16.8095 H          1 BB1          0.0000
    36 H36        1.1596   -17.8017    10.8363 H          1 BB1          0.0000
    37 O1         0.1896   -15.4612    14.0997 O.2        2 BB2          0.0000
    38 C2         0.4308   -15.7600    12.9387 C.2        2 BB2          0.0000
    39 C4         0.1148   -14.8131    11.8522 C.ar       2 BB2          0.0000
    40 C5        -0.7069   -13.7107    12.0991 C.ar       2 BB2          0.0000
    41 C6        -0.9985   -12.8293    11.0788 C.ar       2 BB2          0.0000
    42 C7        -0.4794   -13.0347     9.8130 C.ar       2 BB2          0.0000
    43 C8         0.3356   -14.1255     9.5602 C.ar       2 BB2          0.0000
    44 Br9        1.0393   -14.3958     7.8260 Br         2 BB2          0.0000
    45 C10        0.6406   -15.0118    10.5730 C.ar       2 BB2          0.0000
    46 H11       -1.1132   -13.5490    13.0866 H          2 BB2          0.0000
    47 H12       -1.6339   -11.9768    11.2686 H          2 BB2          0.0000
    48 H13       -0.7111   -12.3413     9.0181 H          2 BB2          0.0000
    49 H14        1.2763   -15.8623    10.3750 H          2 BB2          0.0000
@<TRIPOS>BOND
     1      1      2 1
     2      1     16 1
     3      1     17 1
     4      1     18 1
     5      2      3 1
     6      2     19 1
     7      2     20 1
     8      3      4 1
     9      3      8 1
    10      3     21 1
    11      4      5 1
    12      4      6 1
    13      4     22 1
    14      5     36 1
    15      6      7 1
    16      6     23 1
    17      6     24 1
    18      7      8 1
    19      7     25 1
    20      7     26 1
    21      8      9 am
    22      9     10 2
    23      9     11 1
    24     11     12 1
    25     12     13 1
    26     12     14 1
    27     12     15 1
    28     13     27 1
    29     13     28 1
    30     13     29 1
    31     14     30 1
    32     14     31 1
    33     14     32 1
    34     15     33 1
    35     15     34 1
    36     15     35 1
    37     37     38 2
    38     38     39 1
    39     39     40 ar
    40     39     45 ar
    41     40     41 ar
    42     40     46 1
    43     41     42 ar
    44     41     47 1
    45     42     43 ar
    46     42     48 1
    47     43     44 1
    48     43     45 ar
    49     45     49 1
    50      5     38 am
@<TRIPOS>SUBSTRUCTURE
     1 BB1           5
     2 BB2          38
@<TRIPOS>MOLECULE
EN300-312564_i001_EN300-1165841_i001_19_9_1
  64   65   2   0   0
SMALL
USER_CHARGES
@<TRIPOS>ATOM
     1 C1        -0.3237   -21.2219    11.3771 C.3        1 BB1          0.0000
     2 C2         0.4170   -21.1327    12.7128 C.3        1 BB1          0.0000
     3 C3         0.2287   -19.7358    13.3081 C.3        1 BB1          0.0000
     4 C4         1.2093   -18.7460    12.6446 C.3        1 BB1          0.0000
     5 N5         0.5295   -17.9564    11.6090 N.am       1 BB1          0.0000
     6 C6         1.6438   -17.8415    13.8279 C.3        1 BB1          0.0000
     7 C7         1.6739   -18.8547    14.9993 C.3        1 BB1          0.0000
     8 N8         0.5375   -19.7590    14.7454 N.am       1 BB1          0.0000
     9 C9        -0.1110   -20.4861    15.6765 C.2        1 BB1          0.0000
    10 O10       -0.9785   -21.2680    15.3412 O.2        1 BB1          0.0000
    11 O11        0.2022   -20.3459    16.9785 O.3        1 BB1          0.0000
    12 C12       -0.7226   -20.9129    17.9437 C.3        1 BB1          0.0000
    13 C13       -0.2899   -20.5185    19.3572 C.3        1 BB1          0.0000
    14 C14       -2.1312   -20.3801    17.6742 C.3        1 BB1          0.0000
    15 C15       -0.7210   -22.4376    17.8166 C.3        1 BB1          0.0000
    16 H16       -0.1358   -22.1942    10.9217 H          1 BB1          0.0000
    17 H17       -1.3937   -21.1007    11.5461 H          1 BB1          0.0000
    18 H18        0.0305   -20.4344    10.7119 H          1 BB1          0.0000
    19 H19        0.0169   -21.8777    13.4007 H          1 BB1          0.0000
    20 H20        1.4788   -21.3192    12.5526 H          1 BB1          0.0000
    21 H21       -0.7971   -19.4018    13.1524 H          1 BB1          0.0000
    22 H22        2.0655   -19.2743    12.2249 H          1 BB1          0.0000
    23 H23        2.6324   -17.4172    13.6529 H          1 BB1          0.0000
    24 H24        0.9099   -17.0561    14.0094 H          1 BB1          0.0000
    25 H25        2.6106   -19.4121    14.9948 H          1 BB1          0.0000
    26 H26        1.5430   -18.3389    15.9506 H          1 BB1          0.0000
    27 H27       -0.2909   -19.4323    19.4477 H          1 BB1          0.0000
    28 H28       -0.9841   -20.9441    20.0817 H          1 BB1          0.0000
    29 H29        0.7136   -20.8981    19.5492 H          1 BB1          0.0000
    30 H30       -2.4395   -20.6611    16.6671 H          1 BB1          0.0000
    31 H31       -2.8254   -20.8058    18.3987 H          1 BB1          0.0000
    32 H32       -2.1323   -19.2938    17.7646 H          1 BB1          0.0000
    33 H33        0.2825   -22.8172    18.0086 H          1 BB1          0.0000
    34 H34       -1.4153   -22.8632    18.5412 H          1 BB1          0.0000
    35 H35       -1.0293   -22.7187    16.8095 H          1 BB1          0.0000
    36 H37       -0.2843   -18.4569    11.2845 H          1 BB1          0.0000
    37 C1        -0.4775   -18.1700    10.2903 C.3        2 BB2          0.0000
    38 C2        -0.3453   -16.7630    10.8767 C.3        2 BB2          0.0000
    39 N3         0.3038   -15.8828     9.8960 N.4        2 BB2          1.0000
    40 C4         0.2669   -14.4986    10.3832 C.3        2 BB2          0.0000
    41 C5         1.0128   -13.5892     9.4043 C.3        2 BB2          0.0000
    42 C6         0.3403   -13.6667     8.0306 C.3        2 BB2          0.0000
    43 O7        -0.9980   -13.1748     8.1253 O.3        2 BB2          0.0000
    44 C8         0.3180   -15.1256     7.5655 C.3        2 BB2          0.0000
    45 C9        -0.4021   -15.9780     8.6126 C.3        2 BB2          0.0000
    46 C10        1.0969   -12.8523     7.0656 C.1        2 BB2          0.0000
    47 C11        1.7003   -12.2027     6.2959 C.1        2 BB2          0.0000
    48 C12        0.4877   -16.8178    12.1313 C.2        2 BB2          0.0000
    49 O14        0.6985   -15.7997    12.7683 O.2        2 BB2          0.0000
    50 H15        0.5126   -18.5589    10.0524 H          2 BB2          0.0000
    51 H16       -0.9591   -18.8231    11.0180 H          2 BB2          0.0000
    52 H17       -1.0800   -18.1303     9.3829 H          2 BB2          0.0000
    53 H18       -1.3354   -16.3740    11.1147 H          2 BB2          0.0000
    54 H19       -0.7692   -14.1705    10.4658 H          2 BB2          0.0000
    55 H20        0.7430   -14.4457    11.3623 H          2 BB2          0.0000
    56 H21        0.9827   -12.5618     9.7668 H          2 BB2          0.0000
    57 H22        2.0492   -13.9164     9.3211 H          2 BB2          0.0000
    58 H23       -0.2086   -15.1963     6.6138 H          2 BB2          0.0000
    59 H24        1.3401   -15.4846     7.4442 H          2 BB2          0.0000
    60 H25       -0.4200   -17.0173     8.2846 H          2 BB2          0.0000
    61 H26       -1.4240   -15.6184     8.7329 H          2 BB2          0.0000
    62 H27        2.2399   -11.6219     5.6077 H          2 BB2          0.0000
    63 H28       -1.1530   -12.6008     8.8879 H          2 BB2          0.0000
    64 H29        1.2633   -16.1691     9.7718 H          2 BB2          0.0000
@<TRIPOS>BOND
     1      1      2 1
     2      1     16 1
     3      1     17 1
     4      1     18 1
     5      2      3 1
     6      2     19 1
     7      2     20 1
     8      3      4 1
     9      3      8 1
    10      3     21 1
    11      4      5 1
    12      4      6 1
    13      4     22 1
    14      5     36 1
    15      6      7 1
    16      6     23 1
    17      6     24 1
    18      7      8 1
    19      7     25 1
    20      7     26 1
    21      8      9 am
    22      9     10 2
    23      9     11 1
    24     11     12 1
    25     12     13 1
    26     12     14 1
    27     12     15 1
    28     13     27 1
    29     13     28 1
    30     13     29 1
    31     14     30 1
    32     14     31 1
    33     14     32 1
    34     15     33 1
    35     15     34 1
    36     15     35 1
    37     37     38 1
    38     37     50 1
    39     37     51 1
    40     37     52 1
    41     38     39 1
    42     38     48 1
    43     38     53 1
    44     39     40 1
    45     39     45 1
    46     39     64 1
    47     40     41 1
    48     40     54 1
    49     40     55 1
    50     41     42 1
    51     41     56 1
    52     41     57 1
    53     42     43 1
    54     42     44 1
    55     42     46 1
    56     43     63 1
    57     44     45 1
    58     44     58 1
    59     44     59 1
    60     45     60 1
    61     45     61 1
    62     46     47 3
    63     47     62 1
    64     48     49 2
    65      5     48 am
@<TRIPOS>SUBSTRUCTURE
     1 BB1           5
     2 BB2          48
@<TRIPOS>MOLECULE
EN300-312564_i001_EN300-194291_i002_19_10_1
  60   62   2   0   0
SMALL
USER_CHARGES
@<TRIPOS>ATOM
     1 C1        -0.3237   -21.2219    11.3771 C.3        1 BB1          0.0000
     2 C2         0.4170   -21.1327    12.7128 C.3        1 BB1          0.0000
     3 C3         0.2287   -19.7358    13.3081 C.3        1 BB1          0.0000
     4 C4         1.2093   -18.7460    12.6446 C.3        1 BB1          0.0000
     5 N5         0.5295   -17.9564    11.6090 N.am       1 BB1          0.0000
     6 C6         1.6438   -17.8415    13.8279 C.3        1 BB1          0.0000
     7 C7         1.6739   -18.8547    14.9993 C.3        1 BB1          0.0000
     8 N8         0.5375   -19.7590    14.7454 N.am       1 BB1          0.0000
     9 C9        -0.1110   -20.4861    15.6765 C.2        1 BB1          0.0000
    10 O10       -0.9785   -21.2680    15.3412 O.2        1 BB1          0.0000
    11 O11        0.2022   -20.3459    16.9785 O.3        1 BB1          0.0000
    12 C12       -0.7226   -20.9129    17.9437 C.3        1 BB1          0.0000
    13 C13       -0.2899   -20.5185    19.3572 C.3        1 BB1          0.0000
    14 C14       -2.1312   -20.3801    17.6742 C.3        1 BB1          0.0000
    15 C15       -0.7210   -22.4376    17.8166 C.3        1 BB1          0.0000
    16 H16       -0.1358   -22.1942    10.9217 H          1 BB1          0.0000
    17 H17       -1.3937   -21.1007    11.5461 H          1 BB1          0.0000
    18 H18        0.0305   -20.4344    10.7119 H          1 BB1          0.0000
    19 H19        0.0169   -21.8777    13.4007 H          1 BB1          0.0000
    20 H20        1.4788   -21.3192    12.5526 H          1 BB1          0.0000
    21 H21       -0.7971   -19.4018    13.1524 H          1 BB1          0.0000
    22 H22        2.0655   -19.2743    12.2249 H          1 BB1          0.0000
    23 H23        2.6324   -17.4172    13.6529 H          1 BB1          0.0000
    24 H24        0.9099   -17.0561    14.0094 H          1 BB1          0.0000
    25 H25        2.6106   -19.4121    14.9948 H          1 BB1          0.0000
    26 H26        1.5430   -18.3389    15.9506 H          1 BB1          0.0000
    27 H27       -0.2909   -19.4323    19.4477 H          1 BB1          0.0000
    28 H28       -0.9841   -20.9441    20.0817 H          1 BB1          0.0000
    29 H29        0.7136   -20.8981    19.5492 H          1 BB1          0.0000
    30 H30       -2.4395   -20.6611    16.6671 H          1 BB1          0.0000
    31 H31       -2.8254   -20.8058    18.3987 H          1 BB1          0.0000
    32 H32       -2.1323   -19.2938    17.7646 H          1 BB1          0.0000
    33 H33        0.2825   -22.8172    18.0086 H          1 BB1          0.0000
    34 H34       -1.4153   -22.8632    18.5412 H          1 BB1          0.0000
    35 H35       -1.0293   -22.7187    16.8095 H          1 BB1          0.0000
    36 H36        1.1596   -17.8017    10.8363 H          1 BB1          0.0000
    37 C2         0.4763   -16.8160    13.3767 C.2        2 BB2          0.0000
    38 O3        -0.5063   -17.4774    13.0874 O.2        2 BB2          0.0000
    39 C4         0.6440   -15.4290    12.8118 C.3        2 BB2          0.0000
    40 C5         0.9682   -15.4824    11.3024 C.3        2 BB2          0.0000
    41 N6         0.2732   -14.3325    10.7117 N.am       2 BB2          0.0000
    42 C7        -0.6722   -13.8555    11.5396 C.2        2 BB2          0.0000
    43 O8        -1.3983   -12.9149    11.2964 O.2        2 BB2          0.0000
    44 C9        -0.6989   -14.6625    12.8189 C.3        2 BB2          0.0000
    45 C10        0.5580   -13.8011     9.4479 C.ar       2 BB2          0.0000
    46 C11        1.0908   -14.6136     8.4564 C.ar       2 BB2          0.0000
    47 C12        1.3712   -14.0886     7.2095 C.ar       2 BB2          0.0000
    48 C13        1.1219   -12.7527     6.9476 C.ar       2 BB2          0.0000
    49 F14        1.3968   -12.2416     5.7277 F          2 BB2          0.0000
    50 C15        0.5896   -11.9383     7.9363 C.ar       2 BB2          0.0000
    51 F16        0.3463   -10.6345     7.6789 F          2 BB2          0.0000
    52 C17        0.3026   -12.4621     9.1834 C.ar       2 BB2          0.0000
    53 H18        1.4110   -14.8784    13.3564 H          2 BB2          0.0000
    54 H19        2.0432   -15.3953    11.1442 H          2 BB2          0.0000
    55 H20        0.5965   -16.4110    10.8693 H          2 BB2          0.0000
    56 H21       -1.5364   -15.3602    12.8125 H          2 BB2          0.0000
    57 H22       -0.7572   -14.0031    13.6849 H          2 BB2          0.0000
    58 H23        1.2865   -15.6561     8.6598 H          2 BB2          0.0000
    59 H24        1.7856   -14.7212     6.4385 H          2 BB2          0.0000
    60 H25       -0.1119   -11.8285     9.9536 H          2 BB2          0.0000
@<TRIPOS>BOND
     1      1      2 1
     2      1     16 1
     3      1     17 1
     4      1     18 1
     5      2      3 1
     6      2     19 1
     7      2     20 1
     8      3      4 1
     9      3      8 1
    10      3     21 1
    11      4      5 1
    12      4      6 1
    13      4     22 1
    14      5     36 1
    15      6      7 1
    16      6     23 1
    17      6     24 1
    18      7      8 1
    19      7     25 1
    20      7     26 1
    21      8      9 am
    22      9     10 2
    23      9     11 1
    24     11     12 1
    25     12     13 1
    26     12     14 1
    27     12     15 1
    28     13     27 1
    29     13     28 1
    30     13     29 1
    31     14     30 1
    32     14     31 1
    33     14     32 1
    34     15     33 1
    35     15     34 1
    36     15     35 1
    37     37     38 2
    38     37     39 1
    39     39     40 1
    40     39     44 1
    41     39     53 1
    42     40     41 1
    43     40     54 1
    44     40     55 1
    45     41     42 am
    46     41     45 1
    47     42     43 2
    48     42     44 1
    49     44     56 1
    50     44     57 1
    51     45     46 ar
    52     45     52 ar
    53     46     47 ar
    54     46     58 1
    55     47     48 ar
    56     47     59 1
    57     48     49 1
    58     48     50 ar
    59     50     51 1
    60     50     52 ar
    61     52     60 1
    62      5     37 am
@<TRIPOS>SUBSTRUCTURE
     1 BB1           5
     2 BB2          37
@<TRIPOS>MOLECULE
EN300-312564_i001_EN300-194291_i002_19_13_1
  60   62   2   0   0
SMALL
USER_CHARGES
@<TRIPOS>ATOM
     1 C1        -0.3237   -21.2219    11.3771 C.3        1 BB1          0.0000
     2 C2         0.4170   -21.1327    12.7128 C.3        1 BB1          0.0000
     3 C3         0.2287   -19.7358    13.3081 C.3        1 BB1          0.0000
     4 C4         1.2093   -18.7460    12.6446 C.3        1 BB1          0.0000
     5 N5         0.5295   -17.9564    11.6090 N.am       1 BB1          0.0000
     6 C6         1.6438   -17.8415    13.8279 C.3        1 BB1          0.0000
     7 C7         1.6739   -18.8547    14.9993 C.3        1 BB1          0.0000
     8 N8         0.5375   -19.7590    14.7454 N.am       1 BB1          0.0000
     9 C9        -0.1110   -20.4861    15.6765 C.2        1 BB1          0.0000
    10 O10       -0.9785   -21.2680    15.3412 O.2        1 BB1          0.0000
    11 O11        0.2022   -20.3459    16.9785 O.3        1 BB1          0.0000
    12 C12       -0.7226   -20.9129    17.9437 C.3        1 BB1          0.0000
    13 C13       -0.2899   -20.5185    19.3572 C.3        1 BB1          0.0000
    14 C14       -2.1312   -20.3801    17.6742 C.3        1 BB1          0.0000
    15 C15       -0.7210   -22.4376    17.8166 C.3        1 BB1          0.0000
    16 H16       -0.1358   -22.1942    10.9217 H          1 BB1          0.0000
    17 H17       -1.3937   -21.1007    11.5461 H          1 BB1          0.0000
    18 H18        0.0305   -20.4344    10.7119 H          1 BB1          0.0000
    19 H19        0.0169   -21.8777    13.4007 H          1 BB1          0.0000
    20 H20        1.4788   -21.3192    12.5526 H          1 BB1          0.0000
    21 H21       -0.7971   -19.4018    13.1524 H          1 BB1          0.0000
    22 H22        2.0655   -19.2743    12.2249 H          1 BB1          0.0000
    23 H23        2.6324   -17.4172    13.6529 H          1 BB1          0.0000
    24 H24        0.9099   -17.0561    14.0094 H          1 BB1          0.0000
    25 H25        2.6106   -19.4121    14.9948 H          1 BB1          0.0000
    26 H26        1.5430   -18.3389    15.9506 H          1 BB1          0.0000
    27 H27       -0.2909   -19.4323    19.4477 H          1 BB1          0.0000
    28 H28       -0.9841   -20.9441    20.0817 H          1 BB1          0.0000
    29 H29        0.7136   -20.8981    19.5492 H          1 BB1          0.0000
    30 H30       -2.4395   -20.6611    16.6671 H          1 BB1          0.0000
    31 H31       -2.8254   -20.8058    18.3987 H          1 BB1          0.0000
    32 H32       -2.1323   -19.2938    17.7646 H          1 BB1          0.0000
    33 H33        0.2825   -22.8172    18.0086 H          1 BB1          0.0000
    34 H34       -1.4153   -22.8632    18.5412 H          1 BB1          0.0000
    35 H35       -1.0293   -22.7187    16.8095 H          1 BB1          0.0000
    36 H36        1.1596   -17.8017    10.8363 H          1 BB1          0.0000
    37 C2         0.6432   -17.1940    13.6492 C.2        2 BB2          0.0000
    38 O3        -0.4215   -17.5679    14.1108 O.2        2 BB2          0.0000
    39 C4         0.7972   -15.7762    13.1623 C.3        2 BB2          0.0000
    40 C5         1.0164   -15.7373    11.6337 C.3        2 BB2          0.0000
    41 N6         0.3037   -14.5425    11.1662 N.am       2 BB2          0.0000
    42 C7        -0.5740   -14.1064    12.0861 C.2        2 BB2          0.0000
    43 O8        -1.2978   -13.1422    11.9535 O.2        2 BB2          0.0000
    44 C9        -0.5278   -14.9932    13.3109 C.3        2 BB2          0.0000
    45 C10        0.5111   -13.9353     9.9216 C.ar       2 BB2          0.0000
    46 C11        0.5196   -12.5510     9.8166 C.ar       2 BB2          0.0000
    47 C12        0.7248   -11.9526     8.5882 C.ar       2 BB2          0.0000
    48 C13        0.9213   -12.7319     7.4616 C.ar       2 BB2          0.0000
    49 F14        1.1217   -12.1445     6.2615 F          2 BB2          0.0000
    50 C15        0.9132   -14.1152     7.5632 C.ar       2 BB2          0.0000
    51 F16        1.1057   -14.8745     6.4624 F          2 BB2          0.0000
    52 C17        0.7139   -14.7171     8.7921 C.ar       2 BB2          0.0000
    53 H18        1.6096   -15.2722    13.6859 H          2 BB2          0.0000
    54 H19        2.0794   -15.6552    11.4071 H          2 BB2          0.0000
    55 H20        0.5990   -16.6311    11.1699 H          2 BB2          0.0000
    56 H21       -1.3764   -15.6773    13.3188 H          2 BB2          0.0000
    57 H22       -0.5147   -14.3897    14.2185 H          2 BB2          0.0000
    58 H23        0.3657   -11.9419    10.6950 H          2 BB2          0.0000
    59 H24        0.7314   -10.8757     8.5071 H          2 BB2          0.0000
    60 H25        0.7076   -15.7941     8.8719 H          2 BB2          0.0000
@<TRIPOS>BOND
     1      1      2 1
     2      1     16 1
     3      1     17 1
     4      1     18 1
     5      2      3 1
     6      2     19 1
     7      2     20 1
     8      3      4 1
     9      3      8 1
    10      3     21 1
    11      4      5 1
    12      4      6 1
    13      4     22 1
    14      5     36 1
    15      6      7 1
    16      6     23 1
    17      6     24 1
    18      7      8 1
    19      7     25 1
    20      7     26 1
    21      8      9 am
    22      9     10 2
    23      9     11 1
    24     11     12 1
    25     12     13 1
    26     12     14 1
    27     12     15 1
    28     13     27 1
    29     13     28 1
    30     13     29 1
    31     14     30 1
    32     14     31 1
    33     14     32 1
    34     15     33 1
    35     15     34 1
    36     15     35 1
    37     37     38 2
    38     37     39 1
    39     39     40 1
    40     39     44 1
    41     39     53 1
    42     40     41 1
    43     40     54 1
    44     40     55 1
    45     41     42 am
    46     41     45 1
    47     42     43 2
    48     42     44 1
    49     44     56 1
    50     44     57 1
    51     45     46 ar
    52     45     52 ar
    53     46     47 ar
    54     46     58 1
    55     47     48 ar
    56     47     59 1
    57     48     49 1
    58     48     50 ar
    59     50     51 1
    60     50     52 ar
    61     52     60 1
    62      5     37 am
@<TRIPOS>SUBSTRUCTURE
     1 BB1           5
     2 BB2          37
@<TRIPOS>MOLECULE
EN300-312564_i001_EN300-43851_i001_19_5_1
  58   60   2   0   0
SMALL
USER_CHARGES
@<TRIPOS>ATOM
     1 C1        -0.3237   -21.2219    11.3771 C.3        1 BB1          0.0000
     2 C2         0.4170   -21.1327    12.7128 C.3        1 BB1          0.0000
     3 C3         0.2287   -19.7358    13.3081 C.3        1 BB1          0.0000
     4 C4         1.2093   -18.7460    12.6446 C.3        1 BB1          0.0000
     5 N5         0.5295   -17.9564    11.6090 N.am       1 BB1          0.0000
     6 C6         1.6438   -17.8415    13.8279 C.3        1 BB1          0.0000
     7 C7         1.6739   -18.8547    14.9993 C.3        1 BB1          0.0000
     8 N8         0.5375   -19.7590    14.7454 N.am       1 BB1          0.0000
     9 C9        -0.1110   -20.4861    15.6765 C.2        1 BB1          0.0000
    10 O10       -0.9785   -21.2680    15.3412 O.2        1 BB1          0.0000
    11 O11        0.2022   -20.3459    16.9785 O.3        1 BB1          0.0000
    12 C12       -0.7226   -20.9129    17.9437 C.3        1 BB1          0.0000
    13 C13       -0.2899   -20.5185    19.3572 C.3        1 BB1          0.0000
    14 C14       -2.1312   -20.3801    17.6742 C.3        1 BB1          0.0000
    15 C15       -0.7210   -22.4376    17.8166 C.3        1 BB1          0.0000
    16 H16       -0.1358   -22.1942    10.9217 H          1 BB1          0.0000
    17 H17       -1.3937   -21.1007    11.5461 H          1 BB1          0.0000
    18 H18        0.0305   -20.4344    10.7119 H          1 BB1          0.0000
    19 H19        0.0169   -21.8777    13.4007 H          1 BB1          0.0000
    20 H20        1.4788   -21.3192    12.5526 H          1 BB1          0.0000
    21 H21       -0.7971   -19.4018    13.1524 H          1 BB1          0.0000
    22 H22        2.0655   -19.2743    12.2249 H          1 BB1          0.0000
    23 H23        2.6324   -17.4172    13.6529 H          1 BB1          0.0000
    24 H24        0.9099   -17.0561    14.0094 H          1 BB1          0.0000
    25 H25        2.6106   -19.4121    14.9948 H          1 BB1          0.0000
    26 H26        1.5430   -18.3389    15.9506 H          1 BB1          0.0000
    27 H27       -0.2909   -19.4323    19.4477 H          1 BB1          0.0000
    28 H28       -0.9841   -20.9441    20.0817 H          1 BB1          0.0000
    29 H29        0.7136   -20.8981    19.5492 H          1 BB1          0.0000
    30 H30       -2.4395   -20.6611    16.6671 H          1 BB1          0.0000
    31 H31       -2.8254   -20.8058    18.3987 H          1 BB1          0.0000
    32 H32       -2.1323   -19.2938    17.7646 H          1 BB1          0.0000
    33 H33        0.2825   -22.8172    18.0086 H          1 BB1          0.0000
    34 H34       -1.4153   -22.8632    18.5412 H          1 BB1          0.0000
    35 H35       -1.0293   -22.7187    16.8095 H          1 BB1          0.0000
    36 H36        1.1596   -17.8017    10.8363 H          1 BB1          0.0000
    37 C1        -0.4310   -15.6953    13.9759 C.3        2 BB2          0.0000
    38 C2        -0.1974   -15.7006    12.4871 C.2        2 BB2          0.0000
    39 N3         0.0545   -14.6594    11.7295 N.2        2 BB2          0.0000
    40 N4         0.2015   -15.1272    10.4170 N.pl3      2 BB2          0.0000
    41 N5         0.0399   -16.4041    10.4091 N.2        2 BB2          0.0000
    42 C6        -0.2010   -16.8237    11.6395 C.2        2 BB2          0.0000
    43 C7        -0.4407   -18.2195    12.0491 C.2        2 BB2          0.0000
    44 O9        -0.7110   -18.4771    13.2138 O.2        2 BB2          0.0000
    45 C10        0.4790   -14.3340     9.2955 C.ar       2 BB2          0.0000
    46 C11        0.7135   -12.9737     9.4469 C.ar       2 BB2          0.0000
    47 C12        0.9867   -12.1938     8.3407 C.ar       2 BB2          0.0000
    48 C13        1.0269   -12.7673     7.0807 C.ar       2 BB2          0.0000
    49 F14        1.2947   -12.0027     5.9996 F          2 BB2          0.0000
    50 C15        0.7931   -14.1239     6.9275 C.ar       2 BB2          0.0000
    51 C16        0.5253   -14.9083     8.0321 C.ar       2 BB2          0.0000
    52 H17       -1.4945   -15.5661    14.1763 H          2 BB2          0.0000
    53 H18       -0.0937   -16.6411    14.3999 H          2 BB2          0.0000
    54 H19        0.1263   -14.8750    14.4282 H          2 BB2          0.0000
    55 H20        0.6819   -12.5259    10.4293 H          2 BB2          0.0000
    56 H21        1.1688   -11.1358     8.4580 H          2 BB2          0.0000
    57 H22        0.8249   -14.5694     5.9442 H          2 BB2          0.0000
    58 H23        0.3435   -15.9661     7.9122 H          2 BB2          0.0000
@<TRIPOS>BOND
     1      1      2 1
     2      1     16 1
     3      1     17 1
     4      1     18 1
     5      2      3 1
     6      2     19 1
     7      2     20 1
     8      3      4 1
     9      3      8 1
    10      3     21 1
    11      4      5 1
    12      4      6 1
    13      4     22 1
    14      5     36 1
    15      6      7 1
    16      6     23 1
    17      6     24 1
    18      7      8 1
    19      7     25 1
    20      7     26 1
    21      8      9 am
    22      9     10 2
    23      9     11 1
    24     11     12 1
    25     12     13 1
    26     12     14 1
    27     12     15 1
    28     13     27 1
    29     13     28 1
    30     13     29 1
    31     14     30 1
    32     14     31 1
    33     14     32 1
    34     15     33 1
    35     15     34 1
    36     15     35 1
    37     37     38 1
    38     37     52 1
    39     37     53 1
    40     37     54 1
    41     38     39 2
    42     38     42 1
    43     39     40 1
    44     40     41 1
    45     40     45 1
    46     41     42 2
    47     42     43 1
    48     43     44 2
    49     45     46 ar
    50     45     51 ar
    51     46     47 ar
    52     46     55 1
    53     47     48 ar
    54     47     56 1
    55     48     49 1
    56     48     50 ar
    57     50     51 ar
    58     50     57 1
    59     51     58 1
    60      5     43 am
@<TRIPOS>SUBSTRUCTURE
     1 BB1           5
     2 BB2          43
@<TRIPOS>MOLECULE
EN300-312564_i001_EN300-206926_i001_19_13_1
  51   51   2   0   0
SMALL
USER_CHARGES
@<TRIPOS>ATOM
     1 C1        -0.3237   -21.2219    11.3771 C.3        1 BB1          0.0000
     2 C2         0.4170   -21.1327    12.7128 C.3        1 BB1          0.0000
     3 C3         0.2287   -19.7358    13.3081 C.3        1 BB1          0.0000
     4 C4         1.2093   -18.7460    12.6446 C.3        1 BB1          0.0000
     5 N5         0.5295   -17.9564    11.6090 N.am       1 BB1          0.0000
     6 C6         1.6438   -17.8415    13.8279 C.3        1 BB1          0.0000
     7 C7         1.6739   -18.8547    14.9993 C.3        1 BB1          0.0000
     8 N8         0.5375   -19.7590    14.7454 N.am       1 BB1          0.0000
     9 C9        -0.1110   -20.4861    15.6765 C.2        1 BB1          0.0000
    10 O10       -0.9785   -21.2680    15.3412 O.2        1 BB1          0.0000
    11 O11        0.2022   -20.3459    16.9785 O.3        1 BB1          0.0000
    12 C12       -0.7226   -20.9129    17.9437 C.3        1 BB1          0.0000
    13 C13       -0.2899   -20.5185    19.3572 C.3        1 BB1          0.0000
    14 C14       -2.1312   -20.3801    17.6742 C.3        1 BB1          0.0000
    15 C15       -0.7210   -22.4376    17.8166 C.3        1 BB1          0.0000
    16 H16       -0.1358   -22.1942    10.9217 H          1 BB1          0.0000
    17 H17       -1.3937   -21.1007    11.5461 H          1 BB1          0.0000
    18 H18        0.0305   -20.4344    10.7119 H          1 BB1          0.0000
    19 H19        0.0169   -21.8777    13.4007 H          1 BB1          0.0000
    20 H20        1.4788   -21.3192    12.5526 H          1 BB1          0.0000
    21 H21       -0.7971   -19.4018    13.1524 H          1 BB1          0.0000
    22 H22        2.0655   -19.2743    12.2249 H          1 BB1          0.0000
    23 H23        2.6324   -17.4172    13.6529 H          1 BB1          0.0000
    24 H24        0.9099   -17.0561    14.0094 H          1 BB1          0.0000
    25 H25        2.6106   -19.4121    14.9948 H          1 BB1          0.0000
    26 H26        1.5430   -18.3389    15.9506 H          1 BB1          0.0000
    27 H27       -0.2909   -19.4323    19.4477 H          1 BB1          0.0000
    28 H28       -0.9841   -20.9441    20.0817 H          1 BB1          0.0000
    29 H29        0.7136   -20.8981    19.5492 H          1 BB1          0.0000
    30 H30       -2.4395   -20.6611    16.6671 H          1 BB1          0.0000
    31 H31       -2.8254   -20.8058    18.3987 H          1 BB1          0.0000
    32 H32       -2.1323   -19.2938    17.7646 H          1 BB1          0.0000
    33 H33        0.2825   -22.8172    18.0086 H          1 BB1          0.0000
    34 H34       -1.4153   -22.8632    18.5412 H          1 BB1          0.0000
    35 H35       -1.0293   -22.7187    16.8095 H          1 BB1          0.0000
    36 H36        1.1596   -17.8017    10.8363 H          1 BB1          0.0000
    37 C1        -0.9824   -11.6960    10.6006 C.3        2 BB2          0.0000
    38 C2         0.1278   -12.0724     9.6537 C.2        2 BB2          0.0000
    39 O3         0.5421   -11.2618     8.8517 O.2        2 BB2          0.0000
    40 S4         0.8045   -13.6441     9.7096 S.3        2 BB2          0.0000
    41 C5        -0.1426   -14.3454    11.0834 C.3        2 BB2          0.0000
    42 C6         0.7480   -15.2992    11.8823 C.3        2 BB2          0.0000
    43 C7        -0.0391   -15.8792    13.0292 C.2        2 BB2          0.0000
    44 O8        -0.9987   -16.5980    12.8082 O.2        2 BB2          0.0000
    45 H10       -1.9443   -11.9285    10.1436 H          2 BB2          0.0000
    46 H11       -0.8754   -12.2586    11.5281 H          2 BB2          0.0000
    47 H12       -0.9306   -10.6285    10.8151 H          2 BB2          0.0000
    48 H13       -0.4892   -13.5419    11.7333 H          2 BB2          0.0000
    49 H14       -1.0005   -14.8917    10.6917 H          2 BB2          0.0000
    50 H15        1.0916   -16.1047    11.2334 H          2 BB2          0.0000
    51 H16        1.6079   -14.7537    12.2708 H          2 BB2          0.0000
@<TRIPOS>BOND
     1      1      2 1
     2      1     16 1
     3      1     17 1
     4      1     18 1
     5      2      3 1
     6      2     19 1
     7      2     20 1
     8      3      4 1
     9      3      8 1
    10      3     21 1
    11      4      5 1
    12      4      6 1
    13      4     22 1
    14      5     36 1
    15      6      7 1
    16      6     23 1
    17      6     24 1
    18      7      8 1
    19      7     25 1
    20      7     26 1
    21      8      9 am
    22      9     10 2
    23      9     11 1
    24     11     12 1
    25     12     13 1
    26     12     14 1
    27     12     15 1
    28     13     27 1
    29     13     28 1
    30     13     29 1
    31     14     30 1
    32     14     31 1
    33     14     32 1
    34     15     33 1
    35     15     34 1
    36     15     35 1
    37     37     38 1
    38     37     45 1
    39     37     46 1
    40     37     47 1
    41     38     39 2
    42     38     40 1
    43     40     41 1
    44     41     42 1
    45     41     48 1
    46     41     49 1
    47     42     43 1
    48     42     50 1
    49     42     51 1
    50     43     44 2
    51      5     43 am
@<TRIPOS>SUBSTRUCTURE
     1 BB1           5
     2 BB2          43
@<TRIPOS>MOLECULE
EN300-312564_i001_EN300-206926_i001_19_19_1
  51   51   2   0   0
SMALL
USER_CHARGES
@<TRIPOS>ATOM
     1 C1        -0.3237   -21.2219    11.3771 C.3        1 BB1          0.0000
     2 C2         0.4170   -21.1327    12.7128 C.3        1 BB1          0.0000
     3 C3         0.2287   -19.7358    13.3081 C.3        1 BB1          0.0000
     4 C4         1.2093   -18.7460    12.6446 C.3        1 BB1          0.0000
     5 N5         0.5295   -17.9564    11.6090 N.am       1 BB1          0.0000
     6 C6         1.6438   -17.8415    13.8279 C.3        1 BB1          0.0000
     7 C7         1.6739   -18.8547    14.9993 C.3        1 BB1          0.0000
     8 N8         0.5375   -19.7590    14.7454 N.am       1 BB1          0.0000
     9 C9        -0.1110   -20.4861    15.6765 C.2        1 BB1          0.0000
    10 O10       -0.9785   -21.2680    15.3412 O.2        1 BB1          0.0000
    11 O11        0.2022   -20.3459    16.9785 O.3        1 BB1          0.0000
    12 C12       -0.7226   -20.9129    17.9437 C.3        1 BB1          0.0000
    13 C13       -0.2899   -20.5185    19.3572 C.3        1 BB1          0.0000
    14 C14       -2.1312   -20.3801    17.6742 C.3        1 BB1          0.0000
    15 C15       -0.7210   -22.4376    17.8166 C.3        1 BB1          0.0000
    16 H16       -0.1358   -22.1942    10.9217 H          1 BB1          0.0000
    17 H17       -1.3937   -21.1007    11.5461 H          1 BB1          0.0000
    18 H18        0.0305   -20.4344    10.7119 H          1 BB1          0.0000
    19 H19        0.0169   -21.8777    13.4007 H          1 BB1          0.0000
    20 H20        1.4788   -21.3192    12.5526 H          1 BB1          0.0000
    21 H21       -0.7971   -19.4018    13.1524 H          1 BB1          0.0000
    22 H22        2.0655   -19.2743    12.2249 H          1 BB1          0.0000
    23 H23        2.6324   -17.4172    13.6529 H          1 BB1          0.0000
    24 H24        0.9099   -17.0561    14.0094 H          1 BB1          0.0000
    25 H25        2.6106   -19.4121    14.9948 H          1 BB1          0.0000
    26 H26        1.5430   -18.3389    15.9506 H          1 BB1          0.0000
    27 H27       -0.2909   -19.4323    19.4477 H          1 BB1          0.0000
    28 H28       -0.9841   -20.9441    20.0817 H          1 BB1          0.0000
    29 H29        0.7136   -20.8981    19.5492 H          1 BB1          0.0000
    30 H30       -2.4395   -20.6611    16.6671 H          1 BB1          0.0000
    31 H31       -2.8254   -20.8058    18.3987 H          1 BB1          0.0000
    32 H32       -2.1323   -19.2938    17.7646 H          1 BB1          0.0000
    33 H33        0.2825   -22.8172    18.0086 H          1 BB1          0.0000
    34 H34       -1.4153   -22.8632    18.5412 H          1 BB1          0.0000
    35 H35       -1.0293   -22.7187    16.8095 H          1 BB1          0.0000
    36 H36        1.1596   -17.8017    10.8363 H          1 BB1          0.0000
    37 C1         0.9340   -14.4334     7.4760 C.3        2 BB2          0.0000
    38 C2         0.7101   -13.9092     8.8711 C.2        2 BB2          0.0000
    39 O3        -0.2018   -13.1399     9.0910 O.2        2 BB2          0.0000
    40 S4         1.7426   -14.3997    10.1456 S.3        2 BB2          0.0000
    41 C5         0.5129   -14.9753    11.3425 C.3        2 BB2          0.0000
    42 C6         1.1850   -15.8998    12.3596 C.3        2 BB2          0.0000
    43 C7         0.1895   -16.2839    13.4239 C.2        2 BB2          0.0000
    44 O8        -0.7898   -16.9486    13.1313 O.2        2 BB2          0.0000
    45 H10        1.6098   -13.7659     6.9413 H          2 BB2          0.0000
    46 H11        1.3731   -15.4296     7.5282 H          2 BB2          0.0000
    47 H12       -0.0191   -14.4835     6.9494 H          2 BB2          0.0000
    48 H13        0.0809   -14.1187    11.8600 H          2 BB2          0.0000
    49 H14       -0.2744   -15.5197    10.8212 H          2 BB2          0.0000
    50 H15        1.5414   -16.7976    11.8546 H          2 BB2          0.0000
    51 H16        2.0272   -15.3829    12.8194 H          2 BB2          0.0000
@<TRIPOS>BOND
     1      1      2 1
     2      1     16 1
     3      1     17 1
     4      1     18 1
     5      2      3 1
     6      2     19 1
     7      2     20 1
     8      3      4 1
     9      3      8 1
    10      3     21 1
    11      4      5 1
    12      4      6 1
    13      4     22 1
    14      5     36 1
    15      6      7 1
    16      6     23 1
    17      6     24 1
    18      7      8 1
    19      7     25 1
    20      7     26 1
    21      8      9 am
    22      9     10 2
    23      9     11 1
    24     11     12 1
    25     12     13 1
    26     12     14 1
    27     12     15 1
    28     13     27 1
    29     13     28 1
    30     13     29 1
    31     14     30 1
    32     14     31 1
    33     14     32 1
    34     15     33 1
    35     15     34 1
    36     15     35 1
    37     37     38 1
    38     37     45 1
    39     37     46 1
    40     37     47 1
    41     38     39 2
    42     38     40 1
    43     40     41 1
    44     41     42 1
    45     41     48 1
    46     41     49 1
    47     42     43 1
    48     42     50 1
    49     42     51 1
    50     43     44 2
    51      5     43 am
@<TRIPOS>SUBSTRUCTURE
     1 BB1           5
     2 BB2          43
@<TRIPOS>MOLECULE
EN300-312564_i001_EN300-35009_i001_19_10_1
  58   60   2   0   0
SMALL
USER_CHARGES
@<TRIPOS>ATOM
     1 C1        -0.3237   -21.2219    11.3771 C.3        1 BB1          0.0000
     2 C2         0.4170   -21.1327    12.7128 C.3        1 BB1          0.0000
     3 C3         0.2287   -19.7358    13.3081 C.3        1 BB1          0.0000
     4 C4         1.2093   -18.7460    12.6446 C.3        1 BB1          0.0000
     5 N5         0.5295   -17.9564    11.6090 N.am       1 BB1          0.0000
     6 C6         1.6438   -17.8415    13.8279 C.3        1 BB1          0.0000
     7 C7         1.6739   -18.8547    14.9993 C.3        1 BB1          0.0000
     8 N8         0.5375   -19.7590    14.7454 N.am       1 BB1          0.0000
     9 C9        -0.1110   -20.4861    15.6765 C.2        1 BB1          0.0000
    10 O10       -0.9785   -21.2680    15.3412 O.2        1 BB1          0.0000
    11 O11        0.2022   -20.3459    16.9785 O.3        1 BB1          0.0000
    12 C12       -0.7226   -20.9129    17.9437 C.3        1 BB1          0.0000
    13 C13       -0.2899   -20.5185    19.3572 C.3        1 BB1          0.0000
    14 C14       -2.1312   -20.3801    17.6742 C.3        1 BB1          0.0000
    15 C15       -0.7210   -22.4376    17.8166 C.3        1 BB1          0.0000
    16 H16       -0.1358   -22.1942    10.9217 H          1 BB1          0.0000
    17 H17       -1.3937   -21.1007    11.5461 H          1 BB1          0.0000
    18 H18        0.0305   -20.4344    10.7119 H          1 BB1          0.0000
    19 H19        0.0169   -21.8777    13.4007 H          1 BB1          0.0000
    20 H20        1.4788   -21.3192    12.5526 H          1 BB1          0.0000
    21 H21       -0.7971   -19.4018    13.1524 H          1 BB1          0.0000
    22 H22        2.0655   -19.2743    12.2249 H          1 BB1          0.0000
    23 H23        2.6324   -17.4172    13.6529 H          1 BB1          0.0000
    24 H24        0.9099   -17.0561    14.0094 H          1 BB1          0.0000
    25 H25        2.6106   -19.4121    14.9948 H          1 BB1          0.0000
    26 H26        1.5430   -18.3389    15.9506 H          1 BB1          0.0000
    27 H27       -0.2909   -19.4323    19.4477 H          1 BB1          0.0000
    28 H28       -0.9841   -20.9441    20.0817 H          1 BB1          0.0000
    29 H29        0.7136   -20.8981    19.5492 H          1 BB1          0.0000
    30 H30       -2.4395   -20.6611    16.6671 H          1 BB1          0.0000
    31 H31       -2.8254   -20.8058    18.3987 H          1 BB1          0.0000
    32 H32       -2.1323   -19.2938    17.7646 H          1 BB1          0.0000
    33 H33        0.2825   -22.8172    18.0086 H          1 BB1          0.0000
    34 H34       -1.4153   -22.8632    18.5412 H          1 BB1          0.0000
    35 H35       -1.0293   -22.7187    16.8095 H          1 BB1          0.0000
    36 H38        0.2463   -17.0683    11.9951 H          1 BB1          0.0000
    37 C1        -1.0730   -18.6694     8.6332 C.3        2 BB2          0.0000
    38 C2        -0.5428   -17.4424     9.3292 C.2        2 BB2          0.0000
    39 N3        -0.2278   -16.3581     8.6293 N.2        2 BB2          0.0000
    40 C4         0.2347   -15.2723     9.1919 C.2        2 BB2          0.0000
    41 N5         0.4282   -15.1660    10.5173 N.am       2 BB2          0.0000
    42 C6         0.1422   -16.2069    11.3306 C.2        2 BB2          0.0000
    43 O7         0.3110   -16.1296    12.5343 O.2        2 BB2          0.0000
    44 C8        -0.3838   -17.4327    10.7152 C.2        2 BB2          0.0000
    45 C9        -0.7192   -18.6071    11.5269 C.2        2 BB2          0.0000
    46 O11       -0.4162   -19.7273    11.1371 O.2        2 BB2          0.0000
    47 C12        0.5650   -14.0905     8.3170 C.3        2 BB2          0.0000
    48 C13       -0.5325   -13.5728     7.3852 C.3        2 BB2          0.0000
    49 C14       -0.1372   -12.7662     8.6238 C.3        2 BB2          0.0000
    50 H15       -1.1299   -18.4826     7.5608 H          2 BB2          0.0000
    51 H16       -0.4056   -19.5104     8.8207 H          2 BB2          0.0000
    52 H17       -2.0672   -18.9024     9.0146 H          2 BB2          0.0000
    53 H18        1.5932   -14.0440     7.9582 H          2 BB2          0.0000
    54 H19       -0.2263   -13.1853     6.4135 H          2 BB2          0.0000
    55 H20       -1.4935   -14.0868     7.4049 H          2 BB2          0.0000
    56 H21       -0.8379   -12.7497     9.4584 H          2 BB2          0.0000
    57 H22        0.4291   -11.8482     8.4670 H          2 BB2          0.0000
    58 H23        0.7742   -14.3406    10.8912 H          2 BB2          0.0000
@<TRIPOS>BOND
     1      1      2 1
     2      1     16 1
     3      1     17 1
     4      1     18 1
     5      2      3 1
     6      2     19 1
     7      2     20 1
     8      3      4 1
     9      3      8 1
    10      3     21 1
    11      4      5 1
    12      4      6 1
    13      4     22 1
    14      5     36 1
    15      6      7 1
    16      6     23 1
    17      6     24 1
    18      7      8 1
    19      7     25 1
    20      7     26 1
    21      8      9 am
    22      9     10 2
    23      9     11 1
    24     11     12 1
    25     12     13 1
    26     12     14 1
    27     12     15 1
    28     13     27 1
    29     13     28 1
    30     13     29 1
    31     14     30 1
    32     14     31 1
    33     14     32 1
    34     15     33 1
    35     15     34 1
    36     15     35 1
    37     37     38 1
    38     37     50 1
    39     37     51 1
    40     37     52 1
    41     38     39 1
    42     38     44 2
    43     39     40 2
    44     40     41 1
    45     40     47 1
    46     41     42 am
    47     41     58 1
    48     42     43 2
    49     42     44 1
    50     44     45 1
    51     45     46 2
    52     47     48 1
    53     47     49 1
    54     47     53 1
    55     48     49 1
    56     48     54 1
    57     48     55 1
    58     49     56 1
    59     49     57 1
    60      5     45 am
@<TRIPOS>SUBSTRUCTURE
     1 BB1           5
     2 BB2          45
@<TRIPOS>MOLECULE
EN300-312564_i001_EN300-35009_i001_19_12_1
  58   60   2   0   0
SMALL
USER_CHARGES
@<TRIPOS>ATOM
     1 C1        -0.3237   -21.2219    11.3771 C.3        1 BB1          0.0000
     2 C2         0.4170   -21.1327    12.7128 C.3        1 BB1          0.0000
     3 C3         0.2287   -19.7358    13.3081 C.3        1 BB1          0.0000
     4 C4         1.2093   -18.7460    12.6446 C.3        1 BB1          0.0000
     5 N5         0.5295   -17.9564    11.6090 N.am       1 BB1          0.0000
     6 C6         1.6438   -17.8415    13.8279 C.3        1 BB1          0.0000
     7 C7         1.6739   -18.8547    14.9993 C.3        1 BB1          0.0000
     8 N8         0.5375   -19.7590    14.7454 N.am       1 BB1          0.0000
     9 C9        -0.1110   -20.4861    15.6765 C.2        1 BB1          0.0000
    10 O10       -0.9785   -21.2680    15.3412 O.2        1 BB1          0.0000
    11 O11        0.2022   -20.3459    16.9785 O.3        1 BB1          0.0000
    12 C12       -0.7226   -20.9129    17.9437 C.3        1 BB1          0.0000
    13 C13       -0.2899   -20.5185    19.3572 C.3        1 BB1          0.0000
    14 C14       -2.1312   -20.3801    17.6742 C.3        1 BB1          0.0000
    15 C15       -0.7210   -22.4376    17.8166 C.3        1 BB1          0.0000
    16 H16       -0.1358   -22.1942    10.9217 H          1 BB1          0.0000
    17 H17       -1.3937   -21.1007    11.5461 H          1 BB1          0.0000
    18 H18        0.0305   -20.4344    10.7119 H          1 BB1          0.0000
    19 H19        0.0169   -21.8777    13.4007 H          1 BB1          0.0000
    20 H20        1.4788   -21.3192    12.5526 H          1 BB1          0.0000
    21 H21       -0.7971   -19.4018    13.1524 H          1 BB1          0.0000
    22 H22        2.0655   -19.2743    12.2249 H          1 BB1          0.0000
    23 H23        2.6324   -17.4172    13.6529 H          1 BB1          0.0000
    24 H24        0.9099   -17.0561    14.0094 H          1 BB1          0.0000
    25 H25        2.6106   -19.4121    14.9948 H          1 BB1          0.0000
    26 H26        1.5430   -18.3389    15.9506 H          1 BB1          0.0000
    27 H27       -0.2909   -19.4323    19.4477 H          1 BB1          0.0000
    28 H28       -0.9841   -20.9441    20.0817 H          1 BB1          0.0000
    29 H29        0.7136   -20.8981    19.5492 H          1 BB1          0.0000
    30 H30       -2.4395   -20.6611    16.6671 H          1 BB1          0.0000
    31 H31       -2.8254   -20.8058    18.3987 H          1 BB1          0.0000
    32 H32       -2.1323   -19.2938    17.7646 H          1 BB1          0.0000
    33 H33        0.2825   -22.8172    18.0086 H          1 BB1          0.0000
    34 H34       -1.4153   -22.8632    18.5412 H          1 BB1          0.0000
    35 H35       -1.0293   -22.7187    16.8095 H          1 BB1          0.0000
    36 H36        1.1596   -17.8017    10.8363 H          1 BB1          0.0000
    37 C1         0.1120   -16.3360    12.6253 C.3        2 BB2          0.0000
    38 C2        -0.0421   -16.4337    11.1294 C.2        2 BB2          0.0000
    39 N3         0.0707   -15.3485    10.3716 N.2        2 BB2          0.0000
    40 C4        -0.0551   -15.3875     9.0708 C.2        2 BB2          0.0000
    41 N5        -0.3079   -16.5231     8.3986 N.am       2 BB2          0.0000
    42 C6        -0.4429   -17.6909     9.0654 C.2        2 BB2          0.0000
    43 O7        -0.6722   -18.7304     8.4737 O.2        2 BB2          0.0000
    44 C8        -0.2987   -17.6657    10.5272 C.2        2 BB2          0.0000
    45 C9        -0.4306   -18.8890    11.3252 C.2        2 BB2          0.0000
    46 O11       -1.0062   -18.8561    12.4050 O.2        2 BB2          0.0000
    47 C12        0.0890   -14.1049     8.2928 C.3        2 BB2          0.0000
    48 C13        1.2914   -13.9787     7.3552 C.3        2 BB2          0.0000
    49 C14       -0.1121   -14.1712     6.7775 C.3        2 BB2          0.0000
    50 H15        0.3117   -15.3011    12.9031 H          2 BB2          0.0000
    51 H16       -0.8061   -16.6711    13.1078 H          2 BB2          0.0000
    52 H17        0.9421   -16.9651    12.9470 H          2 BB2          0.0000
    53 H18       -0.2456   -13.2035     8.8062 H          2 BB2          0.0000
    54 H19        1.7477   -12.9942     7.2516 H          2 BB2          0.0000
    55 H20        1.9783   -14.8233     7.3010 H          2 BB2          0.0000
    56 H21       -0.3488   -15.1426     6.3433 H          2 BB2          0.0000
    57 H22       -0.5794   -13.3135     6.2938 H          2 BB2          0.0000
    58 H23       -0.3940   -16.5047     7.4326 H          2 BB2          0.0000
@<TRIPOS>BOND
     1      1      2 1
     2      1     16 1
     3      1     17 1
     4      1     18 1
     5      2      3 1
     6      2     19 1
     7      2     20 1
     8      3      4 1
     9      3      8 1
    10      3     21 1
    11      4      5 1
    12      4      6 1
    13      4     22 1
    14      5     36 1
    15      6      7 1
    16      6     23 1
    17      6     24 1
    18      7      8 1
    19      7     25 1
    20      7     26 1
    21      8      9 am
    22      9     10 2
    23      9     11 1
    24     11     12 1
    25     12     13 1
    26     12     14 1
    27     12     15 1
    28     13     27 1
    29     13     28 1
    30     13     29 1
    31     14     30 1
    32     14     31 1
    33     14     32 1
    34     15     33 1
    35     15     34 1
    36     15     35 1
    37     37     38 1
    38     37     50 1
    39     37     51 1
    40     37     52 1
    41     38     39 1
    42     38     44 2
    43     39     40 2
    44     40     41 1
    45     40     47 1
    46     41     42 am
    47     41     58 1
    48     42     43 2
    49     42     44 1
    50     44     45 1
    51     45     46 2
    52     47     48 1
    53     47     49 1
    54     47     53 1
    55     48     49 1
    56     48     54 1
    57     48     55 1
    58     49     56 1
    59     49     57 1
    60      5     45 am
@<TRIPOS>SUBSTRUCTURE
     1 BB1           5
     2 BB2          45
@<TRIPOS>MOLECULE
EN300-312564_i001_EN300-107901_i001_3_10_1
  62   64   2   0   0
SMALL
USER_CHARGES
@<TRIPOS>ATOM
     1 C1        -0.0705   -15.1912    12.6387 C.3        1 BB1          0.0000
     2 C2         0.8234   -15.1939    11.3970 C.3        1 BB1          0.0000
     3 C3        -0.0493   -15.1777    10.1403 C.3        1 BB1          0.0000
     4 C4         0.6172   -16.0140     9.0277 C.3        1 BB1          0.0000
     5 N5         0.0079   -17.3481     8.9446 N.am       1 BB1          0.0000
     6 C6         0.3155   -15.1919     7.7470 C.3        1 BB1          0.0000
     7 C7         0.4022   -13.7405     8.2814 C.3        1 BB1          0.0000
     8 N8        -0.1750   -13.8022     9.6366 N.am       1 BB1          0.0000
     9 C9        -0.7269   -12.7689    10.3031 C.2        1 BB1          0.0000
    10 O10       -1.0922   -12.9133    11.4529 O.2        1 BB1          0.0000
    11 O11       -0.8736   -11.5768     9.6947 O.3        1 BB1          0.0000
    12 C12       -1.8619   -10.6701    10.2511 C.3        1 BB1          0.0000
    13 C13       -2.0637    -9.4892     9.2994 C.3        1 BB1          0.0000
    14 C14       -3.1882   -11.4107    10.4331 C.3        1 BB1          0.0000
    15 C15       -1.3751   -10.1549    11.6070 C.3        1 BB1          0.0000
    16 H16        0.5488   -15.2690    13.5323 H          1 BB1          0.0000
    17 H17       -0.6424   -14.2639    12.6727 H          1 BB1          0.0000
    18 H18       -0.7546   -16.0386    12.5958 H          1 BB1          0.0000
    19 H19        1.4621   -14.3106    11.4071 H          1 BB1          0.0000
    20 H20        1.4432   -16.0904    11.3974 H          1 BB1          0.0000
    21 H21       -1.0351   -15.5829    10.3685 H          1 BB1          0.0000
    22 H22        1.6916   -16.0920     9.1950 H          1 BB1          0.0000
    23 H23        1.0693   -15.3717     6.9806 H          1 BB1          0.0000
    24 H24       -0.6834   -15.4100     7.3690 H          1 BB1          0.0000
    25 H25        1.4412   -13.4141     8.3261 H          1 BB1          0.0000
    26 H26       -0.1806   -13.0687     7.6511 H          1 BB1          0.0000
    27 H27       -2.4103    -9.8563     8.3334 H          1 BB1          0.0000
    28 H28       -2.8055    -8.8086     9.7170 H          1 BB1          0.0000
    29 H29       -1.1187    -8.9616     9.1697 H          1 BB1          0.0000
    30 H30       -3.0445   -12.2520    11.1112 H          1 BB1          0.0000
    31 H31       -3.9300   -10.7301    10.8509 H          1 BB1          0.0000
    32 H32       -3.5349   -11.7778     9.4672 H          1 BB1          0.0000
    33 H33       -0.4302    -9.6273    11.4774 H          1 BB1          0.0000
    34 H34       -2.1170    -9.4743    12.0247 H          1 BB1          0.0000
    35 H35       -1.2313   -10.9962    12.2851 H          1 BB1          0.0000
    36 H36        0.7207   -18.0517     9.0674 H          1 BB1          0.0000
    37 O1        -1.4672   -18.4025    12.3106 O.2        2 BB2          0.0000
    38 C2        -0.4508   -18.2813    11.6483 C.2        2 BB2          0.0000
    39 C4         0.6894   -19.2221    11.8524 C.3        2 BB2          0.0000
    40 C5         0.9486   -19.7899    13.2377 C.3        2 BB2          0.0000
    41 C6         0.0485   -19.4384    14.3884 C.3        2 BB2          0.0000
    42 C7         0.7429   -18.3633    15.2994 C.3        2 BB2          0.0000
    43 C8        -0.0985   -17.0976    14.9053 C.3        2 BB2          0.0000
    44 C9         0.3608   -16.2423    13.7478 C.3        2 BB2          0.0000
    45 C10        1.5570   -16.4209    12.8795 C.3        2 BB2          0.0000
    46 C11        2.3926   -17.6264    13.2577 C.3        2 BB2          0.0000
    47 C12        1.9693   -18.9017    12.5724 C.3        2 BB2          0.0000
    48 H13        0.7720   -19.9627    11.0205 H          2 BB2          0.0000
    49 H14        1.2022   -20.8921    13.2511 H          2 BB2          0.0000
    50 H15       -0.9189   -19.0660    14.0700 H          2 BB2          0.0000
    51 H16       -0.1201   -20.3286    15.0144 H          2 BB2          0.0000
    52 H17        0.4591   -18.6121    16.3459 H          2 BB2          0.0000
    53 H18        1.7722   -18.3219    15.2311 H          2 BB2          0.0000
    54 H19       -1.1228   -17.4381    14.7250 H          2 BB2          0.0000
    55 H20       -0.1394   -16.4717    15.8100 H          2 BB2          0.0000
    56 H21       -0.5252   -16.0921    13.0890 H          2 BB2          0.0000
    57 H22        0.4577   -15.2068    14.1828 H          2 BB2          0.0000
    58 H23        1.2931   -16.4337    11.8075 H          2 BB2          0.0000
    59 H24        2.1994   -15.5043    12.9645 H          2 BB2          0.0000
    60 H25        3.4369   -17.3919    12.8256 H          2 BB2          0.0000
    61 H26        2.6906   -17.6638    14.2941 H          2 BB2          0.0000
    62 H27        2.8853   -19.4430    12.1324 H          2 BB2          0.0000
@<TRIPOS>BOND
     1      1      2 1
     2      1     16 1
     3      1     17 1
     4      1     18 1
     5      2      3 1
     6      2     19 1
     7      2     20 1
     8      3      4 1
     9      3      8 1
    10      3     21 1
    11      4      5 1
    12      4      6 1
    13      4     22 1
    14      5     36 1
    15      6      7 1
    16      6     23 1
    17      6     24 1
    18      7      8 1
    19      7     25 1
    20      7     26 1
    21      8      9 am
    22      9     10 2
    23      9     11 1
    24     11     12 1
    25     12     13 1
    26     12     14 1
    27     12     15 1
    28     13     27 1
    29     13     28 1
    30     13     29 1
    31     14     30 1
    32     14     31 1
    33     14     32 1
    34     15     33 1
    35     15     34 1
    36     15     35 1
    37     37     38 2
    38     38     39 1
    39     39     40 1
    40     39     47 1
    41     39     48 1
    42     40     41 1
    43     40     47 1
    44     40     49 1
    45     41     42 1
    46     41     50 1
    47     41     51 1
    48     42     43 1
    49     42     52 1
    50     42     53 1
    51     43     44 1
    52     43     54 1
    53     43     55 1
    54     44     45 1
    55     44     56 1
    56     44     57 1
    57     45     46 1
    58     45     58 1
    59     45     59 1
    60     46     47 1
    61     46     60 1
    62     46     61 1
    63     47     62 1
    64      5     38 am
@<TRIPOS>SUBSTRUCTURE
     1 BB1           5
     2 BB2          38
@<TRIPOS>MOLECULE
EN300-312564_i001_EN300-4287209_i001_5_3_1
  51   52   2   0   0
SMALL
USER_CHARGES
@<TRIPOS>ATOM
     1 C1         2.5966   -17.2018    14.7804 C.3        1 BB1          0.0000
     2 C2         2.7103   -17.4098    13.2689 C.3        1 BB1          0.0000
     3 C3         1.4043   -16.9829    12.5957 C.3        1 BB1          0.0000
     4 C4         1.4188   -15.4611    12.3397 C.3        1 BB1          0.0000
     5 N5         1.7634   -15.1725    10.9412 N.am       1 BB1          0.0000
     6 C6        -0.0447   -15.0439    12.6418 C.3        1 BB1          0.0000
     7 C7        -0.4040   -15.9941    13.8113 C.3        1 BB1          0.0000
     8 N8         0.2679   -17.2652    13.4849 N.am       1 BB1          0.0000
     9 C9        -0.0990   -18.4841    13.9278 C.2        1 BB1          0.0000
    10 O10       -1.1109   -18.6112    14.5883 O.2        1 BB1          0.0000
    11 O11        0.6559   -19.5607    13.6384 O.3        1 BB1          0.0000
    12 C12        0.4169   -20.7621    14.4183 C.3        1 BB1          0.0000
    13 C13        1.4830   -21.8074    14.0842 C.3        1 BB1          0.0000
    14 C14        0.4837   -20.4240    15.9089 C.3        1 BB1          0.0000
    15 C15       -0.9676   -21.3204    14.0835 C.3        1 BB1          0.0000
    16 H16        3.5014   -17.5668    15.2664 H          1 BB1          0.0000
    17 H17        2.4732   -16.1399    14.9928 H          1 BB1          0.0000
    18 H18        1.7342   -17.7506    15.1588 H          1 BB1          0.0000
    19 H19        3.5326   -16.8090    12.8802 H          1 BB1          0.0000
    20 H20        2.8993   -18.4627    13.0602 H          1 BB1          0.0000
    21 H21        1.2817   -17.5161    11.6530 H          1 BB1          0.0000
    22 H22        2.1124   -14.9627    13.0171 H          1 BB1          0.0000
    23 H23       -0.0971   -14.0014    12.9555 H          1 BB1          0.0000
    24 H24       -0.6881   -15.2239    11.7805 H          1 BB1          0.0000
    25 H25       -0.0262   -15.5963    14.7531 H          1 BB1          0.0000
    26 H26       -1.4831   -16.1385    13.8652 H          1 BB1          0.0000
    27 H27        2.4693   -21.4096    14.3227 H          1 BB1          0.0000
    28 H28        1.3036   -22.7091    14.6696 H          1 BB1          0.0000
    29 H29        1.4354   -22.0482    13.0222 H          1 BB1          0.0000
    30 H30       -0.2758   -19.6792    16.1470 H          1 BB1          0.0000
    31 H31        0.3043   -21.3257    16.4944 H          1 BB1          0.0000
    32 H32        1.4701   -20.0261    16.1475 H          1 BB1          0.0000
    33 H33       -1.0152   -21.5612    13.0215 H          1 BB1          0.0000
    34 H34       -1.1469   -22.2222    14.6689 H          1 BB1          0.0000
    35 H35       -1.7271   -20.5756    14.3215 H          1 BB1          0.0000
    36 H36        1.0852   -14.5345    10.5525 H          1 BB1          0.0000
    37 C2        -0.0043   -14.5201    11.5040 C.2        2 BB2          0.0000
    38 O3        -0.5778   -14.6411    12.5774 O.2        2 BB2          0.0000
    39 C4        -0.4017   -13.4480    10.5724 C.ar       2 BB2          0.0000
    40 C5        -1.5033   -12.6425    10.8617 C.ar       2 BB2          0.0000
    41 C6        -1.8709   -11.6325     9.9767 C.ar       2 BB2          0.0000
    42 C7        -3.0001   -10.8010    10.2667 C.1        2 BB2          0.0000
    43 C8        -3.9259   -10.1193    10.5044 C.1        2 BB2          0.0000
    44 C9        -1.1364   -11.4311     8.8058 C.ar       2 BB2          0.0000
    45 C10       -0.0472   -12.2308     8.5230 C.ar       2 BB2          0.0000
    46 C11        0.3287   -13.2319     9.3982 C.ar       2 BB2          0.0000
    47 Cl12       1.6998   -14.2324     9.0338 Cl         2 BB2          0.0000
    48 H13       -2.0687   -12.8018    11.7680 H          2 BB2          0.0000
    49 H14       -4.7538    -9.5095    10.7170 H          2 BB2          0.0000
    50 H15       -1.4217   -10.6476     8.1195 H          2 BB2          0.0000
    51 H16        0.5164   -12.0702     7.6158 H          2 BB2          0.0000
@<TRIPOS>BOND
     1      1      2 1
     2      1     16 1
     3      1     17 1
     4      1     18 1
     5      2      3 1
     6      2     19 1
     7      2     20 1
     8      3      4 1
     9      3      8 1
    10      3     21 1
    11      4      5 1
    12      4      6 1
    13      4     22 1
    14      5     36 1
    15      6      7 1
    16      6     23 1
    17      6     24 1
    18      7      8 1
    19      7     25 1
    20      7     26 1
    21      8      9 am
    22      9     10 2
    23      9     11 1
    24     11     12 1
    25     12     13 1
    26     12     14 1
    27     12     15 1
    28     13     27 1
    29     13     28 1
    30     13     29 1
    31     14     30 1
    32     14     31 1
    33     14     32 1
    34     15     33 1
    35     15     34 1
    36     15     35 1
    37     37     38 2
    38     37     39 1
    39     39     40 ar
    40     39     46 ar
    41     40     41 ar
    42     40     48 1
    43     41     42 1
    44     41     44 ar
    45     42     43 3
    46     43     49 1
    47     44     45 ar
    48     44     50 1
    49     45     46 ar
    50     45     51 1
    51     46     47 1
    52      5     37 am
@<TRIPOS>SUBSTRUCTURE
     1 BB1           5
     2 BB2          37
@<TRIPOS>MOLECULE
EN300-312564_i001_EN300-222254_i002_5_4_1
  59   61   2   0   0
SMALL
USER_CHARGES
@<TRIPOS>ATOM
     1 C1         2.5966   -17.2018    14.7804 C.3        1 BB1          0.0000
     2 C2         2.7103   -17.4098    13.2689 C.3        1 BB1          0.0000
     3 C3         1.4043   -16.9829    12.5957 C.3        1 BB1          0.0000
     4 C4         1.4188   -15.4611    12.3397 C.3        1 BB1          0.0000
     5 N5         1.7634   -15.1725    10.9412 N.am       1 BB1          0.0000
     6 C6        -0.0447   -15.0439    12.6418 C.3        1 BB1          0.0000
     7 C7        -0.4040   -15.9941    13.8113 C.3        1 BB1          0.0000
     8 N8         0.2679   -17.2652    13.4849 N.am       1 BB1          0.0000
     9 C9        -0.0990   -18.4841    13.9278 C.2        1 BB1          0.0000
    10 O10       -1.1109   -18.6112    14.5883 O.2        1 BB1          0.0000
    11 O11        0.6559   -19.5607    13.6384 O.3        1 BB1          0.0000
    12 C12        0.4169   -20.7621    14.4183 C.3        1 BB1          0.0000
    13 C13        1.4830   -21.8074    14.0842 C.3        1 BB1          0.0000
    14 C14        0.4837   -20.4240    15.9089 C.3        1 BB1          0.0000
    15 C15       -0.9676   -21.3204    14.0835 C.3        1 BB1          0.0000
    16 H16        3.5014   -17.5668    15.2664 H          1 BB1          0.0000
    17 H17        2.4732   -16.1399    14.9928 H          1 BB1          0.0000
    18 H18        1.7342   -17.7506    15.1588 H          1 BB1          0.0000
    19 H19        3.5326   -16.8090    12.8802 H          1 BB1          0.0000
    20 H20        2.8993   -18.4627    13.0602 H          1 BB1          0.0000
    21 H21        1.2817   -17.5161    11.6530 H          1 BB1          0.0000
    22 H22        2.1124   -14.9627    13.0171 H          1 BB1          0.0000
    23 H23       -0.0971   -14.0014    12.9555 H          1 BB1          0.0000
    24 H24       -0.6881   -15.2239    11.7805 H          1 BB1          0.0000
    25 H25       -0.0262   -15.5963    14.7531 H          1 BB1          0.0000
    26 H26       -1.4831   -16.1385    13.8652 H          1 BB1          0.0000
    27 H27        2.4693   -21.4096    14.3227 H          1 BB1          0.0000
    28 H28        1.3036   -22.7091    14.6696 H          1 BB1          0.0000
    29 H29        1.4354   -22.0482    13.0222 H          1 BB1          0.0000
    30 H30       -0.2758   -19.6792    16.1470 H          1 BB1          0.0000
    31 H31        0.3043   -21.3257    16.4944 H          1 BB1          0.0000
    32 H32        1.4701   -20.0261    16.1475 H          1 BB1          0.0000
    33 H33       -1.0152   -21.5612    13.0215 H          1 BB1          0.0000
    34 H34       -1.1469   -22.2222    14.6689 H          1 BB1          0.0000
    35 H35       -1.7271   -20.5756    14.3215 H          1 BB1          0.0000
    36 H37        2.6808   -14.7544    10.9003 H          1 BB1          0.0000
    37 C2         0.8004   -14.8911    10.7774 C.2        2 BB2          0.0000
    38 O3         0.0117   -15.5813    11.4007 O.2        2 BB2          0.0000
    39 C4         0.3644   -14.2102     9.5059 C.3        2 BB2          0.0000
    40 C5         1.4242   -14.2481     8.3921 C.3        2 BB2          0.0000
    41 C6         1.0198   -12.8008     8.0660 C.3        2 BB2          0.0000
    42 C7         0.5555   -12.6843     9.5274 C.3        2 BB2          0.0000
    43 C8        -0.7309   -11.9171     9.6928 C.ar       2 BB2          0.0000
    44 C9        -1.9103   -12.4281     9.1855 C.ar       2 BB2          0.0000
    45 C10       -3.0908   -11.7247     9.3363 C.ar       2 BB2          0.0000
    46 C11       -3.0929   -10.5086     9.9959 C.ar       2 BB2          0.0000
    47 Cl12      -4.5761    -9.6265    10.1853 Cl         2 BB2          0.0000
    48 C13       -1.9132    -9.9958    10.5049 C.ar       2 BB2          0.0000
    49 C14       -0.7321   -10.7026    10.3583 C.ar       2 BB2          0.0000
    50 F15        0.4206   -10.2031    10.8554 F          2 BB2          0.0000
    51 H16       -0.6264   -14.5228     9.1765 H          2 BB2          0.0000
    52 H17        2.4446   -14.3433     8.7634 H          2 BB2          0.0000
    53 H18        1.1950   -14.9556     7.5952 H          2 BB2          0.0000
    54 H19        1.8642   -12.1556     7.8234 H          2 BB2          0.0000
    55 H20        0.2078   -12.7268     7.3427 H          2 BB2          0.0000
    56 H21        1.3384   -12.3520    10.2091 H          2 BB2          0.0000
    57 H22       -1.9097   -13.3774     8.6703 H          2 BB2          0.0000
    58 H23       -4.0119   -12.1247     8.9388 H          2 BB2          0.0000
    59 H24       -1.9145    -9.0466    11.0198 H          2 BB2          0.0000
@<TRIPOS>BOND
     1      1      2 1
     2      1     16 1
     3      1     17 1
     4      1     18 1
     5      2      3 1
     6      2     19 1
     7      2     20 1
     8      3      4 1
     9      3      8 1
    10      3     21 1
    11      4      5 1
    12      4      6 1
    13      4     22 1
    14      5     36 1
    15      6      7 1
    16      6     23 1
    17      6     24 1
    18      7      8 1
    19      7     25 1
    20      7     26 1
    21      8      9 am
    22      9     10 2
    23      9     11 1
    24     11     12 1
    25     12     13 1
    26     12     14 1
    27     12     15 1
    28     13     27 1
    29     13     28 1
    30     13     29 1
    31     14     30 1
    32     14     31 1
    33     14     32 1
    34     15     33 1
    35     15     34 1
    36     15     35 1
    37     37     38 2
    38     37     39 1
    39     39     40 1
    40     39     42 1
    41     39     51 1
    42     40     41 1
    43     40     52 1
    44     40     53 1
    45     41     42 1
    46     41     54 1
    47     41     55 1
    48     42     43 1
    49     42     56 1
    50     43     44 ar
    51     43     49 ar
    52     44     45 ar
    53     44     57 1
    54     45     46 ar
    55     45     58 1
    56     46     47 1
    57     46     48 ar
    58     48     49 ar
    59     48     59 1
    60     49     50 1
    61      5     37 am
@<TRIPOS>SUBSTRUCTURE
     1 BB1           5
     2 BB2          37
@<TRIPOS>MOLECULE
EN300-312564_i001_EN300-306118_i001_5_10_1
  58   60   2   0   0
SMALL
USER_CHARGES
@<TRIPOS>ATOM
     1 C1         2.5966   -17.2018    14.7804 C.3        1 BB1          0.0000
     2 C2         2.7103   -17.4098    13.2689 C.3        1 BB1          0.0000
     3 C3         1.4043   -16.9829    12.5957 C.3        1 BB1          0.0000
     4 C4         1.4188   -15.4611    12.3397 C.3        1 BB1          0.0000
     5 N5         1.7634   -15.1725    10.9412 N.am       1 BB1          0.0000
     6 C6        -0.0447   -15.0439    12.6418 C.3        1 BB1          0.0000
     7 C7        -0.4040   -15.9941    13.8113 C.3        1 BB1          0.0000
     8 N8         0.2679   -17.2652    13.4849 N.am       1 BB1          0.0000
     9 C9        -0.0990   -18.4841    13.9278 C.2        1 BB1          0.0000
    10 O10       -1.1109   -18.6112    14.5883 O.2        1 BB1          0.0000
    11 O11        0.6559   -19.5607    13.6384 O.3        1 BB1          0.0000
    12 C12        0.4169   -20.7621    14.4183 C.3        1 BB1          0.0000
    13 C13        1.4830   -21.8074    14.0842 C.3        1 BB1          0.0000
    14 C14        0.4837   -20.4240    15.9089 C.3        1 BB1          0.0000
    15 C15       -0.9676   -21.3204    14.0835 C.3        1 BB1          0.0000
    16 H16        3.5014   -17.5668    15.2664 H          1 BB1          0.0000
    17 H17        2.4732   -16.1399    14.9928 H          1 BB1          0.0000
    18 H18        1.7342   -17.7506    15.1588 H          1 BB1          0.0000
    19 H19        3.5326   -16.8090    12.8802 H          1 BB1          0.0000
    20 H20        2.8993   -18.4627    13.0602 H          1 BB1          0.0000
    21 H21        1.2817   -17.5161    11.6530 H          1 BB1          0.0000
    22 H22        2.1124   -14.9627    13.0171 H          1 BB1          0.0000
    23 H23       -0.0971   -14.0014    12.9555 H          1 BB1          0.0000
    24 H24       -0.6881   -15.2239    11.7805 H          1 BB1          0.0000
    25 H25       -0.0262   -15.5963    14.7531 H          1 BB1          0.0000
    26 H26       -1.4831   -16.1385    13.8652 H          1 BB1          0.0000
    27 H27        2.4693   -21.4096    14.3227 H          1 BB1          0.0000
    28 H28        1.3036   -22.7091    14.6696 H          1 BB1          0.0000
    29 H29        1.4354   -22.0482    13.0222 H          1 BB1          0.0000
    30 H30       -0.2758   -19.6792    16.1470 H          1 BB1          0.0000
    31 H31        0.3043   -21.3257    16.4944 H          1 BB1          0.0000
    32 H32        1.4701   -20.0261    16.1475 H          1 BB1          0.0000
    33 H33       -1.0152   -21.5612    13.0215 H          1 BB1          0.0000
    34 H34       -1.1469   -22.2222    14.6689 H          1 BB1          0.0000
    35 H35       -1.7271   -20.5756    14.3215 H          1 BB1          0.0000
    36 H38        1.7609   -16.0305    10.4103 H          1 BB1          0.0000
    37 O1        -0.6922   -13.8017    11.4451 O.2        2 BB2          0.0000
    38 C2         0.1195   -14.4038    10.7566 C.2        2 BB2          0.0000
    39 C4         0.4114   -13.9416     9.3863 C.ar       2 BB2          0.0000
    40 C5         0.5717   -14.8674     8.3525 C.ar       2 BB2          0.0000
    41 C6         0.8445   -14.4280     7.0737 C.ar       2 BB2          0.0000
    42 C7         0.9599   -13.0739     6.8139 C.ar       2 BB2          0.0000
    43 C8         0.8024   -12.1509     7.8331 C.ar       2 BB2          0.0000
    44 C9         0.5231   -12.5754     9.1151 C.ar       2 BB2          0.0000
    45 C10        0.3514   -11.5687    10.2234 C.3        2 BB2          0.0000
    46 N11       -1.0436   -11.1231    10.2665 N.pl3      2 BB2          0.0000
    47 C12       -1.4690    -9.8410    10.1885 C.2        2 BB2          0.0000
    48 C13       -2.8194    -9.8863    10.2682 C.2        2 BB2          0.0000
    49 N14       -3.1497   -11.1769    10.3896 N.2        2 BB2          0.0000
    50 N15       -2.0753   -11.8843    10.3797 N.2        2 BB2          0.0000
    51 H16        0.4826   -15.9247     8.5541 H          2 BB2          0.0000
    52 H17        0.9688   -15.1425     6.2735 H          2 BB2          0.0000
    53 H18        1.1744   -12.7356     5.8108 H          2 BB2          0.0000
    54 H19        0.8941   -11.0955     7.6231 H          2 BB2          0.0000
    55 H20        0.6156   -12.0283    11.1758 H          2 BB2          0.0000
    56 H21        1.0008   -10.7127    10.0405 H          2 BB2          0.0000
    57 H22       -0.8546    -8.9590    10.0839 H          2 BB2          0.0000
    58 H23       -3.4970    -9.0458    10.2398 H          2 BB2          0.0000
@<TRIPOS>BOND
     1      1      2 1
     2      1     16 1
     3      1     17 1
     4      1     18 1
     5      2      3 1
     6      2     19 1
     7      2     20 1
     8      3      4 1
     9      3      8 1
    10      3     21 1
    11      4      5 1
    12      4      6 1
    13      4     22 1
    14      5     36 1
    15      6      7 1
    16      6     23 1
    17      6     24 1
    18      7      8 1
    19      7     25 1
    20      7     26 1
    21      8      9 am
    22      9     10 2
    23      9     11 1
    24     11     12 1
    25     12     13 1
    26     12     14 1
    27     12     15 1
    28     13     27 1
    29     13     28 1
    30     13     29 1
    31     14     30 1
    32     14     31 1
    33     14     32 1
    34     15     33 1
    35     15     34 1
    36     15     35 1
    37     37     38 2
    38     38     39 1
    39     39     40 ar
    40     39     44 ar
    41     40     41 ar
    42     40     51 1
    43     41     42 ar
    44     41     52 1
    45     42     43 ar
    46     42     53 1
    47     43     44 ar
    48     43     54 1
    49     44     45 1
    50     45     46 1
    51     45     55 1
    52     45     56 1
    53     46     47 1
    54     46     50 1
    55     47     48 2
    56     47     57 1
    57     48     49 1
    58     48     58 1
    59     49     50 2
    60      5     38 am
@<TRIPOS>SUBSTRUCTURE
     1 BB1           5
     2 BB2          38
@<TRIPOS>MOLECULE
EN300-312564_i001_EN300-306118_i001_5_13_1
  58   60   2   0   0
SMALL
USER_CHARGES
@<TRIPOS>ATOM
     1 C1         2.5966   -17.2018    14.7804 C.3        1 BB1          0.0000
     2 C2         2.7103   -17.4098    13.2689 C.3        1 BB1          0.0000
     3 C3         1.4043   -16.9829    12.5957 C.3        1 BB1          0.0000
     4 C4         1.4188   -15.4611    12.3397 C.3        1 BB1          0.0000
     5 N5         1.7634   -15.1725    10.9412 N.am       1 BB1          0.0000
     6 C6        -0.0447   -15.0439    12.6418 C.3        1 BB1          0.0000
     7 C7        -0.4040   -15.9941    13.8113 C.3        1 BB1          0.0000
     8 N8         0.2679   -17.2652    13.4849 N.am       1 BB1          0.0000
     9 C9        -0.0990   -18.4841    13.9278 C.2        1 BB1          0.0000
    10 O10       -1.1109   -18.6112    14.5883 O.2        1 BB1          0.0000
    11 O11        0.6559   -19.5607    13.6384 O.3        1 BB1          0.0000
    12 C12        0.4169   -20.7621    14.4183 C.3        1 BB1          0.0000
    13 C13        1.4830   -21.8074    14.0842 C.3        1 BB1          0.0000
    14 C14        0.4837   -20.4240    15.9089 C.3        1 BB1          0.0000
    15 C15       -0.9676   -21.3204    14.0835 C.3        1 BB1          0.0000
    16 H16        3.5014   -17.5668    15.2664 H          1 BB1          0.0000
    17 H17        2.4732   -16.1399    14.9928 H          1 BB1          0.0000
    18 H18        1.7342   -17.7506    15.1588 H          1 BB1          0.0000
    19 H19        3.5326   -16.8090    12.8802 H          1 BB1          0.0000
    20 H20        2.8993   -18.4627    13.0602 H          1 BB1          0.0000
    21 H21        1.2817   -17.5161    11.6530 H          1 BB1          0.0000
    22 H22        2.1124   -14.9627    13.0171 H          1 BB1          0.0000
    23 H23       -0.0971   -14.0014    12.9555 H          1 BB1          0.0000
    24 H24       -0.6881   -15.2239    11.7805 H          1 BB1          0.0000
    25 H25       -0.0262   -15.5963    14.7531 H          1 BB1          0.0000
    26 H26       -1.4831   -16.1385    13.8652 H          1 BB1          0.0000
    27 H27        2.4693   -21.4096    14.3227 H          1 BB1          0.0000
    28 H28        1.3036   -22.7091    14.6696 H          1 BB1          0.0000
    29 H29        1.4354   -22.0482    13.0222 H          1 BB1          0.0000
    30 H30       -0.2758   -19.6792    16.1470 H          1 BB1          0.0000
    31 H31        0.3043   -21.3257    16.4944 H          1 BB1          0.0000
    32 H32        1.4701   -20.0261    16.1475 H          1 BB1          0.0000
    33 H33       -1.0152   -21.5612    13.0215 H          1 BB1          0.0000
    34 H34       -1.1469   -22.2222    14.6689 H          1 BB1          0.0000
    35 H35       -1.7271   -20.5756    14.3215 H          1 BB1          0.0000
    36 H37        2.6808   -14.7544    10.9003 H          1 BB1          0.0000
    37 O1        -0.3061   -15.6175    10.8075 O.2        2 BB2          0.0000
    38 C2        -0.2542   -14.4147    11.0220 C.2        2 BB2          0.0000
    39 C4        -0.0888   -13.4717     9.8995 C.ar       2 BB2          0.0000
    40 C5         0.7755   -13.7793     8.8460 C.ar       2 BB2          0.0000
    41 C6         0.9252   -12.8927     7.7999 C.ar       2 BB2          0.0000
    42 C7         0.2221   -11.7011     7.7926 C.ar       2 BB2          0.0000
    43 C8        -0.6359   -11.3897     8.8329 C.ar       2 BB2          0.0000
    44 C9        -0.8003   -12.2692     9.8823 C.ar       2 BB2          0.0000
    45 C10       -1.7356   -11.9285    11.0138 C.3        2 BB2          0.0000
    46 N11       -2.8881   -11.1914    10.4898 N.pl3      2 BB2          0.0000
    47 C12       -3.9824   -11.7380     9.9113 C.2        2 BB2          0.0000
    48 C13       -4.7891   -10.7036     9.5780 C.2        2 BB2          0.0000
    49 N14       -4.1572    -9.5894     9.9637 N.2        2 BB2          0.0000
    50 N15       -3.0361    -9.9129    10.5053 N.2        2 BB2          0.0000
    51 H16        1.3254   -14.7088     8.8509 H          2 BB2          0.0000
    52 H17        1.5931   -13.1291     6.9848 H          2 BB2          0.0000
    53 H18        0.3438   -11.0104     6.9712 H          2 BB2          0.0000
    54 H19       -1.1813   -10.4576     8.8207 H          2 BB2          0.0000
    55 H20       -2.0780   -12.8466    11.4912 H          2 BB2          0.0000
    56 H21       -1.2121   -11.3124    11.7448 H          2 BB2          0.0000
    57 H22       -4.1735   -12.7883     9.7481 H          2 BB2          0.0000
    58 H23       -5.7532   -10.7654     9.0952 H          2 BB2          0.0000
@<TRIPOS>BOND
     1      1      2 1
     2      1     16 1
     3      1     17 1
     4      1     18 1
     5      2      3 1
     6      2     19 1
     7      2     20 1
     8      3      4 1
     9      3      8 1
    10      3     21 1
    11      4      5 1
    12      4      6 1
    13      4     22 1
    14      5     36 1
    15      6      7 1
    16      6     23 1
    17      6     24 1
    18      7      8 1
    19      7     25 1
    20      7     26 1
    21      8      9 am
    22      9     10 2
    23      9     11 1
    24     11     12 1
    25     12     13 1
    26     12     14 1
    27     12     15 1
    28     13     27 1
    29     13     28 1
    30     13     29 1
    31     14     30 1
    32     14     31 1
    33     14     32 1
    34     15     33 1
    35     15     34 1
    36     15     35 1
    37     37     38 2
    38     38     39 1
    39     39     40 ar
    40     39     44 ar
    41     40     41 ar
    42     40     51 1
    43     41     42 ar
    44     41     52 1
    45     42     43 ar
    46     42     53 1
    47     43     44 ar
    48     43     54 1
    49     44     45 1
    50     45     46 1
    51     45     55 1
    52     45     56 1
    53     46     47 1
    54     46     50 1
    55     47     48 2
    56     47     57 1
    57     48     49 1
    58     48     58 1
    59     49     50 2
    60      5     38 am
@<TRIPOS>SUBSTRUCTURE
     1 BB1           5
     2 BB2          38
@<TRIPOS>MOLECULE
EN300-312564_i001_EN300-306118_i001_5_17_1
  58   60   2   0   0
SMALL
USER_CHARGES
@<TRIPOS>ATOM
     1 C1         2.5966   -17.2018    14.7804 C.3        1 BB1          0.0000
     2 C2         2.7103   -17.4098    13.2689 C.3        1 BB1          0.0000
     3 C3         1.4043   -16.9829    12.5957 C.3        1 BB1          0.0000
     4 C4         1.4188   -15.4611    12.3397 C.3        1 BB1          0.0000
     5 N5         1.7634   -15.1725    10.9412 N.am       1 BB1          0.0000
     6 C6        -0.0447   -15.0439    12.6418 C.3        1 BB1          0.0000
     7 C7        -0.4040   -15.9941    13.8113 C.3        1 BB1          0.0000
     8 N8         0.2679   -17.2652    13.4849 N.am       1 BB1          0.0000
     9 C9        -0.0990   -18.4841    13.9278 C.2        1 BB1          0.0000
    10 O10       -1.1109   -18.6112    14.5883 O.2        1 BB1          0.0000
    11 O11        0.6559   -19.5607    13.6384 O.3        1 BB1          0.0000
    12 C12        0.4169   -20.7621    14.4183 C.3        1 BB1          0.0000
    13 C13        1.4830   -21.8074    14.0842 C.3        1 BB1          0.0000
    14 C14        0.4837   -20.4240    15.9089 C.3        1 BB1          0.0000
    15 C15       -0.9676   -21.3204    14.0835 C.3        1 BB1          0.0000
    16 H16        3.5014   -17.5668    15.2664 H          1 BB1          0.0000
    17 H17        2.4732   -16.1399    14.9928 H          1 BB1          0.0000
    18 H18        1.7342   -17.7506    15.1588 H          1 BB1          0.0000
    19 H19        3.5326   -16.8090    12.8802 H          1 BB1          0.0000
    20 H20        2.8993   -18.4627    13.0602 H          1 BB1          0.0000
    21 H21        1.2817   -17.5161    11.6530 H          1 BB1          0.0000
    22 H22        2.1124   -14.9627    13.0171 H          1 BB1          0.0000
    23 H23       -0.0971   -14.0014    12.9555 H          1 BB1          0.0000
    24 H24       -0.6881   -15.2239    11.7805 H          1 BB1          0.0000
    25 H25       -0.0262   -15.5963    14.7531 H          1 BB1          0.0000
    26 H26       -1.4831   -16.1385    13.8652 H          1 BB1          0.0000
    27 H27        2.4693   -21.4096    14.3227 H          1 BB1          0.0000
    28 H28        1.3036   -22.7091    14.6696 H          1 BB1          0.0000
    29 H29        1.4354   -22.0482    13.0222 H          1 BB1          0.0000
    30 H30       -0.2758   -19.6792    16.1470 H          1 BB1          0.0000
    31 H31        0.3043   -21.3257    16.4944 H          1 BB1          0.0000
    32 H32        1.4701   -20.0261    16.1475 H          1 BB1          0.0000
    33 H33       -1.0152   -21.5612    13.0215 H          1 BB1          0.0000
    34 H34       -1.1469   -22.2222    14.6689 H          1 BB1          0.0000
    35 H35       -1.7271   -20.5756    14.3215 H          1 BB1          0.0000
    36 H37        2.6808   -14.7544    10.9003 H          1 BB1          0.0000
    37 C2         0.1377   -15.1500     9.6193 C.2        2 BB2          0.0000
    38 O3         0.2453   -15.0645    10.8345 O.2        2 BB2          0.0000
    39 C4         0.3036   -13.9496     8.7778 C.ar       2 BB2          0.0000
    40 C5         0.9945   -14.0317     7.5664 C.ar       2 BB2          0.0000
    41 C6         1.1457   -12.9052     6.7847 C.ar       2 BB2          0.0000
    42 C7         0.6154   -11.6960     7.1982 C.ar       2 BB2          0.0000
    43 C8        -0.0703   -11.6071     8.3972 C.ar       2 BB2          0.0000
    44 C9        -0.2347   -12.7263     9.1858 C.ar       2 BB2          0.0000
    45 C10       -0.9821   -12.6276    10.4908 C.3        2 BB2          0.0000
    46 N11       -2.0934   -11.6839    10.3468 N.pl3      2 BB2          0.0000
    47 C12       -1.9923   -10.3346    10.3447 C.2        2 BB2          0.0000
    48 C13       -3.2511    -9.8624    10.1881 C.2        2 BB2          0.0000
    49 N14       -4.0501   -10.9319    10.1033 N.2        2 BB2          0.0000
    50 N15       -3.3329   -11.9958    10.1953 N.2        2 BB2          0.0000
    51 H16        1.4095   -14.9748     7.2428 H          2 BB2          0.0000
    52 H17        1.6796   -12.9671     5.8480 H          2 BB2          0.0000
    53 H18        0.7375   -10.8170     6.5825 H          2 BB2          0.0000
    54 H19       -0.4813   -10.6599     8.7138 H          2 BB2          0.0000
    55 H20       -1.3716   -13.6090    10.7615 H          2 BB2          0.0000
    56 H21       -0.3064   -12.2770    11.2708 H          2 BB2          0.0000
    57 H22       -1.0890    -9.7516    10.4475 H          2 BB2          0.0000
    58 H23       -3.5514    -8.8261    10.1412 H          2 BB2          0.0000
@<TRIPOS>BOND
     1      1      2 1
     2      1     16 1
     3      1     17 1
     4      1     18 1
     5      2      3 1
     6      2     19 1
     7      2     20 1
     8      3      4 1
     9      3      8 1
    10      3     21 1
    11      4      5 1
    12      4      6 1
    13      4     22 1
    14      5     36 1
    15      6      7 1
    16      6     23 1
    17      6     24 1
    18      7      8 1
    19      7     25 1
    20      7     26 1
    21      8      9 am
    22      9     10 2
    23      9     11 1
    24     11     12 1
    25     12     13 1
    26     12     14 1
    27     12     15 1
    28     13     27 1
    29     13     28 1
    30     13     29 1
    31     14     30 1
    32     14     31 1
    33     14     32 1
    34     15     33 1
    35     15     34 1
    36     15     35 1
    37     37     38 2
    38     37     39 1
    39     39     40 ar
    40     39     44 ar
    41     40     41 ar
    42     40     51 1
    43     41     42 ar
    44     41     52 1
    45     42     43 ar
    46     42     53 1
    47     43     44 ar
    48     43     54 1
    49     44     45 1
    50     45     46 1
    51     45     55 1
    52     45     56 1
    53     46     47 1
    54     46     50 1
    55     47     48 2
    56     47     57 1
    57     48     49 1
    58     48     58 1
    59     49     50 2
    60      5     37 am
@<TRIPOS>SUBSTRUCTURE
     1 BB1           5
     2 BB2          37
@<TRIPOS>MOLECULE
EN300-312564_i001_EN300-306118_i001_5_2_1
  58   60   2   0   0
SMALL
USER_CHARGES
@<TRIPOS>ATOM
     1 C1         2.5966   -17.2018    14.7804 C.3        1 BB1          0.0000
     2 C2         2.7103   -17.4098    13.2689 C.3        1 BB1          0.0000
     3 C3         1.4043   -16.9829    12.5957 C.3        1 BB1          0.0000
     4 C4         1.4188   -15.4611    12.3397 C.3        1 BB1          0.0000
     5 N5         1.7634   -15.1725    10.9412 N.am       1 BB1          0.0000
     6 C6        -0.0447   -15.0439    12.6418 C.3        1 BB1          0.0000
     7 C7        -0.4040   -15.9941    13.8113 C.3        1 BB1          0.0000
     8 N8         0.2679   -17.2652    13.4849 N.am       1 BB1          0.0000
     9 C9        -0.0990   -18.4841    13.9278 C.2        1 BB1          0.0000
    10 O10       -1.1109   -18.6112    14.5883 O.2        1 BB1          0.0000
    11 O11        0.6559   -19.5607    13.6384 O.3        1 BB1          0.0000
    12 C12        0.4169   -20.7621    14.4183 C.3        1 BB1          0.0000
    13 C13        1.4830   -21.8074    14.0842 C.3        1 BB1          0.0000
    14 C14        0.4837   -20.4240    15.9089 C.3        1 BB1          0.0000
    15 C15       -0.9676   -21.3204    14.0835 C.3        1 BB1          0.0000
    16 H16        3.5014   -17.5668    15.2664 H          1 BB1          0.0000
    17 H17        2.4732   -16.1399    14.9928 H          1 BB1          0.0000
    18 H18        1.7342   -17.7506    15.1588 H          1 BB1          0.0000
    19 H19        3.5326   -16.8090    12.8802 H          1 BB1          0.0000
    20 H20        2.8993   -18.4627    13.0602 H          1 BB1          0.0000
    21 H21        1.2817   -17.5161    11.6530 H          1 BB1          0.0000
    22 H22        2.1124   -14.9627    13.0171 H          1 BB1          0.0000
    23 H23       -0.0971   -14.0014    12.9555 H          1 BB1          0.0000
    24 H24       -0.6881   -15.2239    11.7805 H          1 BB1          0.0000
    25 H25       -0.0262   -15.5963    14.7531 H          1 BB1          0.0000
    26 H26       -1.4831   -16.1385    13.8652 H          1 BB1          0.0000
    27 H27        2.4693   -21.4096    14.3227 H          1 BB1          0.0000
    28 H28        1.3036   -22.7091    14.6696 H          1 BB1          0.0000
    29 H29        1.4354   -22.0482    13.0222 H          1 BB1          0.0000
    30 H30       -0.2758   -19.6792    16.1470 H          1 BB1          0.0000
    31 H31        0.3043   -21.3257    16.4944 H          1 BB1          0.0000
    32 H32        1.4701   -20.0261    16.1475 H          1 BB1          0.0000
    33 H33       -1.0152   -21.5612    13.0215 H          1 BB1          0.0000
    34 H34       -1.1469   -22.2222    14.6689 H          1 BB1          0.0000
    35 H35       -1.7271   -20.5756    14.3215 H          1 BB1          0.0000
    36 H37        2.6808   -14.7544    10.9003 H          1 BB1          0.0000
    37 O1        -0.3996   -15.0968    11.7939 O.2        2 BB2          0.0000
    38 C2         0.6326   -14.8679    11.1794 C.2        2 BB2          0.0000
    39 C4         0.5817   -14.1401     9.8971 C.ar       2 BB2          0.0000
    40 C5         1.3893   -14.5408     8.8300 C.ar       2 BB2          0.0000
    41 C6         1.3364   -13.8555     7.6340 C.ar       2 BB2          0.0000
    42 C7         0.4864   -12.7733     7.4900 C.ar       2 BB2          0.0000
    43 C8        -0.3166   -12.3706     8.5429 C.ar       2 BB2          0.0000
    44 C9        -0.2789   -13.0501     9.7423 C.ar       2 BB2          0.0000
    45 C10       -1.1546   -12.6104    10.8873 C.3        2 BB2          0.0000
    46 N11       -2.0673   -11.5601    10.4288 N.pl3      2 BB2          0.0000
    47 C12       -1.7295   -10.2775    10.1613 C.2        2 BB2          0.0000
    48 C13       -2.8693    -9.6610     9.7705 C.2        2 BB2          0.0000
    49 N14       -3.8360   -10.5845     9.8175 N.2        2 BB2          0.0000
    50 N15       -3.3272   -11.7003    10.2060 N.2        2 BB2          0.0000
    51 H16        2.0538   -15.3849     8.9414 H          2 BB2          0.0000
    52 H17        1.9603   -14.1641     6.8083 H          2 BB2          0.0000
    53 H18        0.4497   -12.2400     6.5515 H          2 BB2          0.0000
    54 H19       -0.9775   -11.5248     8.4234 H          2 BB2          0.0000
    55 H20       -1.7320   -13.4605    11.2504 H          2 BB2          0.0000
    56 H21       -0.5313   -12.2235    11.6935 H          2 BB2          0.0000
    57 H22       -0.7479    -9.8347    10.2433 H          2 BB2          0.0000
    58 H23       -2.9773    -8.6269     9.4786 H          2 BB2          0.0000
@<TRIPOS>BOND
     1      1      2 1
     2      1     16 1
     3      1     17 1
     4      1     18 1
     5      2      3 1
     6      2     19 1
     7      2     20 1
     8      3      4 1
     9      3      8 1
    10      3     21 1
    11      4      5 1
    12      4      6 1
    13      4     22 1
    14      5     36 1
    15      6      7 1
    16      6     23 1
    17      6     24 1
    18      7      8 1
    19      7     25 1
    20      7     26 1
    21      8      9 am
    22      9     10 2
    23      9     11 1
    24     11     12 1
    25     12     13 1
    26     12     14 1
    27     12     15 1
    28     13     27 1
    29     13     28 1
    30     13     29 1
    31     14     30 1
    32     14     31 1
    33     14     32 1
    34     15     33 1
    35     15     34 1
    36     15     35 1
    37     37     38 2
    38     38     39 1
    39     39     40 ar
    40     39     44 ar
    41     40     41 ar
    42     40     51 1
    43     41     42 ar
    44     41     52 1
    45     42     43 ar
    46     42     53 1
    47     43     44 ar
    48     43     54 1
    49     44     45 1
    50     45     46 1
    51     45     55 1
    52     45     56 1
    53     46     47 1
    54     46     50 1
    55     47     48 2
    56     47     57 1
    57     48     49 1
    58     48     58 1
    59     49     50 2
    60      5     38 am
@<TRIPOS>SUBSTRUCTURE
     1 BB1           5
     2 BB2          38
@<TRIPOS>MOLECULE
EN300-312564_i001_EN300-306118_i001_5_4_1
  58   60   2   0   0
SMALL
USER_CHARGES
@<TRIPOS>ATOM
     1 C1         2.5966   -17.2018    14.7804 C.3        1 BB1          0.0000
     2 C2         2.7103   -17.4098    13.2689 C.3        1 BB1          0.0000
     3 C3         1.4043   -16.9829    12.5957 C.3        1 BB1          0.0000
     4 C4         1.4188   -15.4611    12.3397 C.3        1 BB1          0.0000
     5 N5         1.7634   -15.1725    10.9412 N.am       1 BB1          0.0000
     6 C6        -0.0447   -15.0439    12.6418 C.3        1 BB1          0.0000
     7 C7        -0.4040   -15.9941    13.8113 C.3        1 BB1          0.0000
     8 N8         0.2679   -17.2652    13.4849 N.am       1 BB1          0.0000
     9 C9        -0.0990   -18.4841    13.9278 C.2        1 BB1          0.0000
    10 O10       -1.1109   -18.6112    14.5883 O.2        1 BB1          0.0000
    11 O11        0.6559   -19.5607    13.6384 O.3        1 BB1          0.0000
    12 C12        0.4169   -20.7621    14.4183 C.3        1 BB1          0.0000
    13 C13        1.4830   -21.8074    14.0842 C.3        1 BB1          0.0000
    14 C14        0.4837   -20.4240    15.9089 C.3        1 BB1          0.0000
    15 C15       -0.9676   -21.3204    14.0835 C.3        1 BB1          0.0000
    16 H16        3.5014   -17.5668    15.2664 H          1 BB1          0.0000
    17 H17        2.4732   -16.1399    14.9928 H          1 BB1          0.0000
    18 H18        1.7342   -17.7506    15.1588 H          1 BB1          0.0000
    19 H19        3.5326   -16.8090    12.8802 H          1 BB1          0.0000
    20 H20        2.8993   -18.4627    13.0602 H          1 BB1          0.0000
    21 H21        1.2817   -17.5161    11.6530 H          1 BB1          0.0000
    22 H22        2.1124   -14.9627    13.0171 H          1 BB1          0.0000
    23 H23       -0.0971   -14.0014    12.9555 H          1 BB1          0.0000
    24 H24       -0.6881   -15.2239    11.7805 H          1 BB1          0.0000
    25 H25       -0.0262   -15.5963    14.7531 H          1 BB1          0.0000
    26 H26       -1.4831   -16.1385    13.8652 H          1 BB1          0.0000
    27 H27        2.4693   -21.4096    14.3227 H          1 BB1          0.0000
    28 H28        1.3036   -22.7091    14.6696 H          1 BB1          0.0000
    29 H29        1.4354   -22.0482    13.0222 H          1 BB1          0.0000
    30 H30       -0.2758   -19.6792    16.1470 H          1 BB1          0.0000
    31 H31        0.3043   -21.3257    16.4944 H          1 BB1          0.0000
    32 H32        1.4701   -20.0261    16.1475 H          1 BB1          0.0000
    33 H33       -1.0152   -21.5612    13.0215 H          1 BB1          0.0000
    34 H34       -1.1469   -22.2222    14.6689 H          1 BB1          0.0000
    35 H35       -1.7271   -20.5756    14.3215 H          1 BB1          0.0000
    36 H38        1.7609   -16.0305    10.4103 H          1 BB1          0.0000
    37 O1        -0.6959   -13.8083    11.5483 O.2        2 BB2          0.0000
    38 C2         0.0232   -14.5029    10.8440 C.2        2 BB2          0.0000
    39 C4         0.1943   -14.1761     9.4156 C.ar       2 BB2          0.0000
    40 C5         0.2000   -15.1937     8.4585 C.ar       2 BB2          0.0000
    41 C6         0.3606   -14.8807     7.1247 C.ar       2 BB2          0.0000
    42 C7         0.5162   -13.5625     6.7340 C.ar       2 BB2          0.0000
    43 C8         0.5116   -12.5491     7.6766 C.ar       2 BB2          0.0000
    44 C9         0.3458   -12.8466     9.0128 C.ar       2 BB2          0.0000
    45 C10        0.3405   -11.7416    10.0376 C.3        2 BB2          0.0000
    46 N11       -0.8775   -10.9417     9.8869 N.pl3      2 BB2          0.0000
    47 C12       -1.9601   -10.9853    10.6975 C.2        2 BB2          0.0000
    48 C13       -2.8435   -10.0913    10.1954 C.2        2 BB2          0.0000
    49 N14       -2.2659    -9.5516     9.1162 N.2        2 BB2          0.0000
    50 N15       -1.0997   -10.0726     8.9638 N.2        2 BB2          0.0000
    51 H16        0.0794   -16.2231     8.7623 H          2 BB2          0.0000
    52 H17        0.3653   -15.6663     6.3837 H          2 BB2          0.0000
    53 H18        0.6423   -13.3234     5.6883 H          2 BB2          0.0000
    54 H19        0.6339   -11.5225     7.3644 H          2 BB2          0.0000
    55 H20        0.3700   -12.1736    11.0379 H          2 BB2          0.0000
    56 H21        1.2134   -11.1056     9.8906 H          2 BB2          0.0000
    57 H22       -2.0926   -11.6083    11.5697 H          2 BB2          0.0000
    58 H23       -3.8224    -9.8595    10.5883 H          2 BB2          0.0000
@<TRIPOS>BOND
     1      1      2 1
     2      1     16 1
     3      1     17 1
     4      1     18 1
     5      2      3 1
     6      2     19 1
     7      2     20 1
     8      3      4 1
     9      3      8 1
    10      3     21 1
    11      4      5 1
    12      4      6 1
    13      4     22 1
    14      5     36 1
    15      6      7 1
    16      6     23 1
    17      6     24 1
    18      7      8 1
    19      7     25 1
    20      7     26 1
    21      8      9 am
    22      9     10 2
    23      9     11 1
    24     11     12 1
    25     12     13 1
    26     12     14 1
    27     12     15 1
    28     13     27 1
    29     13     28 1
    30     13     29 1
    31     14     30 1
    32     14     31 1
    33     14     32 1
    34     15     33 1
    35     15     34 1
    36     15     35 1
    37     37     38 2
    38     38     39 1
    39     39     40 ar
    40     39     44 ar
    41     40     41 ar
    42     40     51 1
    43     41     42 ar
    44     41     52 1
    45     42     43 ar
    46     42     53 1
    47     43     44 ar
    48     43     54 1
    49     44     45 1
    50     45     46 1
    51     45     55 1
    52     45     56 1
    53     46     47 1
    54     46     50 1
    55     47     48 2
    56     47     57 1
    57     48     49 1
    58     48     58 1
    59     49     50 2
    60      5     38 am
@<TRIPOS>SUBSTRUCTURE
     1 BB1           5
     2 BB2          38
@<TRIPOS>MOLECULE
EN300-312564_i001_EN300-306118_i001_5_6_1
  58   60   2   0   0
SMALL
USER_CHARGES
@<TRIPOS>ATOM
     1 C1         2.5966   -17.2018    14.7804 C.3        1 BB1          0.0000
     2 C2         2.7103   -17.4098    13.2689 C.3        1 BB1          0.0000
     3 C3         1.4043   -16.9829    12.5957 C.3        1 BB1          0.0000
     4 C4         1.4188   -15.4611    12.3397 C.3        1 BB1          0.0000
     5 N5         1.7634   -15.1725    10.9412 N.am       1 BB1          0.0000
     6 C6        -0.0447   -15.0439    12.6418 C.3        1 BB1          0.0000
     7 C7        -0.4040   -15.9941    13.8113 C.3        1 BB1          0.0000
     8 N8         0.2679   -17.2652    13.4849 N.am       1 BB1          0.0000
     9 C9        -0.0990   -18.4841    13.9278 C.2        1 BB1          0.0000
    10 O10       -1.1109   -18.6112    14.5883 O.2        1 BB1          0.0000
    11 O11        0.6559   -19.5607    13.6384 O.3        1 BB1          0.0000
    12 C12        0.4169   -20.7621    14.4183 C.3        1 BB1          0.0000
    13 C13        1.4830   -21.8074    14.0842 C.3        1 BB1          0.0000
    14 C14        0.4837   -20.4240    15.9089 C.3        1 BB1          0.0000
    15 C15       -0.9676   -21.3204    14.0835 C.3        1 BB1          0.0000
    16 H16        3.5014   -17.5668    15.2664 H          1 BB1          0.0000
    17 H17        2.4732   -16.1399    14.9928 H          1 BB1          0.0000
    18 H18        1.7342   -17.7506    15.1588 H          1 BB1          0.0000
    19 H19        3.5326   -16.8090    12.8802 H          1 BB1          0.0000
    20 H20        2.8993   -18.4627    13.0602 H          1 BB1          0.0000
    21 H21        1.2817   -17.5161    11.6530 H          1 BB1          0.0000
    22 H22        2.1124   -14.9627    13.0171 H          1 BB1          0.0000
    23 H23       -0.0971   -14.0014    12.9555 H          1 BB1          0.0000
    24 H24       -0.6881   -15.2239    11.7805 H          1 BB1          0.0000
    25 H25       -0.0262   -15.5963    14.7531 H          1 BB1          0.0000
    26 H26       -1.4831   -16.1385    13.8652 H          1 BB1          0.0000
    27 H27        2.4693   -21.4096    14.3227 H          1 BB1          0.0000
    28 H28        1.3036   -22.7091    14.6696 H          1 BB1          0.0000
    29 H29        1.4354   -22.0482    13.0222 H          1 BB1          0.0000
    30 H30       -0.2758   -19.6792    16.1470 H          1 BB1          0.0000
    31 H31        0.3043   -21.3257    16.4944 H          1 BB1          0.0000
    32 H32        1.4701   -20.0261    16.1475 H          1 BB1          0.0000
    33 H33       -1.0152   -21.5612    13.0215 H          1 BB1          0.0000
    34 H34       -1.1469   -22.2222    14.6689 H          1 BB1          0.0000
    35 H35       -1.7271   -20.5756    14.3215 H          1 BB1          0.0000
    36 H38        1.7609   -16.0305    10.4103 H          1 BB1          0.0000
    37 O1        -1.2486   -12.9840    11.2797 O.2        2 BB2          0.0000
    38 C2        -0.3996   -13.7304    10.8133 C.2        2 BB2          0.0000
    39 C4         0.1276   -13.4914     9.4563 C.ar       2 BB2          0.0000
    40 C5         0.3583   -14.5656     8.5936 C.ar       2 BB2          0.0000
    41 C6         0.8514   -14.3346     7.3262 C.ar       2 BB2          0.0000
    42 C7         1.1179   -13.0426     6.9090 C.ar       2 BB2          0.0000
    43 C8         0.8918   -11.9734     7.7582 C.ar       2 BB2          0.0000
    44 C9         0.3932   -12.1888     9.0257 C.ar       2 BB2          0.0000
    45 C10        0.1472   -11.0231     9.9488 C.3        2 BB2          0.0000
    46 N11       -1.2932   -10.7753    10.0492 N.pl3      2 BB2          0.0000
    47 C12       -2.2529   -11.3618     9.2971 C.2        2 BB2          0.0000
    48 C13       -3.4309   -10.8465     9.7198 C.2        2 BB2          0.0000
    49 N14       -3.1380    -9.9810    10.6969 N.2        2 BB2          0.0000
    50 N15       -1.8637    -9.9660    10.8717 N.2        2 BB2          0.0000
    51 H16        0.1514   -15.5747     8.9183 H          2 BB2          0.0000
    52 H17        1.0303   -15.1641     6.6582 H          2 BB2          0.0000
    53 H18        1.5046   -12.8676     5.9157 H          2 BB2          0.0000
    54 H19        1.1024   -10.9676     7.4259 H          2 BB2          0.0000
    55 H20        0.5463   -11.2516    10.9369 H          2 BB2          0.0000
    56 H21        0.6418   -10.1360     9.5534 H          2 BB2          0.0000
    57 H22       -2.1081   -12.0939     8.5164 H          2 BB2          0.0000
    58 H23       -4.4139   -11.0863     9.3423 H          2 BB2          0.0000
@<TRIPOS>BOND
     1      1      2 1
     2      1     16 1
     3      1     17 1
     4      1     18 1
     5      2      3 1
     6      2     19 1
     7      2     20 1
     8      3      4 1
     9      3      8 1
    10      3     21 1
    11      4      5 1
    12      4      6 1
    13      4     22 1
    14      5     36 1
    15      6      7 1
    16      6     23 1
    17      6     24 1
    18      7      8 1
    19      7     25 1
    20      7     26 1
    21      8      9 am
    22      9     10 2
    23      9     11 1
    24     11     12 1
    25     12     13 1
    26     12     14 1
    27     12     15 1
    28     13     27 1
    29     13     28 1
    30     13     29 1
    31     14     30 1
    32     14     31 1
    33     14     32 1
    34     15     33 1
    35     15     34 1
    36     15     35 1
    37     37     38 2
    38     38     39 1
    39     39     40 ar
    40     39     44 ar
    41     40     41 ar
    42     40     51 1
    43     41     42 ar
    44     41     52 1
    45     42     43 ar
    46     42     53 1
    47     43     44 ar
    48     43     54 1
    49     44     45 1
    50     45     46 1
    51     45     55 1
    52     45     56 1
    53     46     47 1
    54     46     50 1
    55     47     48 2
    56     47     57 1
    57     48     49 1
    58     48     58 1
    59     49     50 2
    60      5     38 am
@<TRIPOS>SUBSTRUCTURE
     1 BB1           5
     2 BB2          38
@<TRIPOS>MOLECULE
EN300-312564_i001_EN300-223795_i001_5_13_1
  49   50   2   0   0
SMALL
USER_CHARGES
@<TRIPOS>ATOM
     1 C1         2.5966   -17.2018    14.7804 C.3        1 BB1          0.0000
     2 C2         2.7103   -17.4098    13.2689 C.3        1 BB1          0.0000
     3 C3         1.4043   -16.9829    12.5957 C.3        1 BB1          0.0000
     4 C4         1.4188   -15.4611    12.3397 C.3        1 BB1          0.0000
     5 N5         1.7634   -15.1725    10.9412 N.am       1 BB1          0.0000
     6 C6        -0.0447   -15.0439    12.6418 C.3        1 BB1          0.0000
     7 C7        -0.4040   -15.9941    13.8113 C.3        1 BB1          0.0000
     8 N8         0.2679   -17.2652    13.4849 N.am       1 BB1          0.0000
     9 C9        -0.0990   -18.4841    13.9278 C.2        1 BB1          0.0000
    10 O10       -1.1109   -18.6112    14.5883 O.2        1 BB1          0.0000
    11 O11        0.6559   -19.5607    13.6384 O.3        1 BB1          0.0000
    12 C12        0.4169   -20.7621    14.4183 C.3        1 BB1          0.0000
    13 C13        1.4830   -21.8074    14.0842 C.3        1 BB1          0.0000
    14 C14        0.4837   -20.4240    15.9089 C.3        1 BB1          0.0000
    15 C15       -0.9676   -21.3204    14.0835 C.3        1 BB1          0.0000
    16 H16        3.5014   -17.5668    15.2664 H          1 BB1          0.0000
    17 H17        2.4732   -16.1399    14.9928 H          1 BB1          0.0000
    18 H18        1.7342   -17.7506    15.1588 H          1 BB1          0.0000
    19 H19        3.5326   -16.8090    12.8802 H          1 BB1          0.0000
    20 H20        2.8993   -18.4627    13.0602 H          1 BB1          0.0000
    21 H21        1.2817   -17.5161    11.6530 H          1 BB1          0.0000
    22 H22        2.1124   -14.9627    13.0171 H          1 BB1          0.0000
    23 H23       -0.0971   -14.0014    12.9555 H          1 BB1          0.0000
    24 H24       -0.6881   -15.2239    11.7805 H          1 BB1          0.0000
    25 H25       -0.0262   -15.5963    14.7531 H          1 BB1          0.0000
    26 H26       -1.4831   -16.1385    13.8652 H          1 BB1          0.0000
    27 H27        2.4693   -21.4096    14.3227 H          1 BB1          0.0000
    28 H28        1.3036   -22.7091    14.6696 H          1 BB1          0.0000
    29 H29        1.4354   -22.0482    13.0222 H          1 BB1          0.0000
    30 H30       -0.2758   -19.6792    16.1470 H          1 BB1          0.0000
    31 H31        0.3043   -21.3257    16.4944 H          1 BB1          0.0000
    32 H32        1.4701   -20.0261    16.1475 H          1 BB1          0.0000
    33 H33       -1.0152   -21.5612    13.0215 H          1 BB1          0.0000
    34 H34       -1.1469   -22.2222    14.6689 H          1 BB1          0.0000
    35 H35       -1.7271   -20.5756    14.3215 H          1 BB1          0.0000
    36 H37        2.6808   -14.7544    10.9003 H          1 BB1          0.0000
    37 O1         0.1998   -15.5767    10.2835 O.2        2 BB2          0.0000
    38 C2        -0.1214   -14.6741    11.0454 C.2        2 BB2          0.0000
    39 C4        -0.5198   -13.3679    10.5087 C.2        2 BB2          0.0000
    40 C5        -1.2337   -12.3734    11.2774 C.2        2 BB2          0.0000
    41 C6        -1.4890   -11.2682    10.5893 C.2        2 BB2          0.0000
    42 S7        -0.8614   -11.3974     8.9556 S.3        2 BB2          0.0000
    43 C8        -0.2501   -12.9637     9.2351 C.2        2 BB2          0.0000
    44 C9         0.4817   -13.7924     8.2110 C.3        2 BB2          0.0000
    45 F10        0.6752   -13.0353     7.0506 F          2 BB2          0.0000
    46 F11        1.7227   -14.1815     8.7264 F          2 BB2          0.0000
    47 F12       -0.2737   -14.9296     7.9053 F          2 BB2          0.0000
    48 H13       -1.5292   -12.5156    12.3063 H          2 BB2          0.0000
    49 H14       -2.0113   -10.4077    10.9806 H          2 BB2          0.0000
@<TRIPOS>BOND
     1      1      2 1
     2      1     16 1
     3      1     17 1
     4      1     18 1
     5      2      3 1
     6      2     19 1
     7      2     20 1
     8      3      4 1
     9      3      8 1
    10      3     21 1
    11      4      5 1
    12      4      6 1
    13      4     22 1
    14      5     36 1
    15      6      7 1
    16      6     23 1
    17      6     24 1
    18      7      8 1
    19      7     25 1
    20      7     26 1
    21      8      9 am
    22      9     10 2
    23      9     11 1
    24     11     12 1
    25     12     13 1
    26     12     14 1
    27     12     15 1
    28     13     27 1
    29     13     28 1
    30     13     29 1
    31     14     30 1
    32     14     31 1
    33     14     32 1
    34     15     33 1
    35     15     34 1
    36     15     35 1
    37     37     38 2
    38     38     39 1
    39     39     40 1
    40     39     43 2
    41     40     41 2
    42     40     48 1
    43     41     42 1
    44     41     49 1
    45     42     43 1
    46     43     44 1
    47     44     45 1
    48     44     46 1
    49     44     47 1
    50      5     38 am
@<TRIPOS>SUBSTRUCTURE
     1 BB1           5
     2 BB2          38
@<TRIPOS>MOLECULE
EN300-312564_i001_EN300-344045_i001_5_2_1
  65   67   2   0   0
SMALL
USER_CHARGES
@<TRIPOS>ATOM
     1 C1         2.5966   -17.2018    14.7804 C.3        1 BB1          0.0000
     2 C2         2.7103   -17.4098    13.2689 C.3        1 BB1          0.0000
     3 C3         1.4043   -16.9829    12.5957 C.3        1 BB1          0.0000
     4 C4         1.4188   -15.4611    12.3397 C.3        1 BB1          0.0000
     5 N5         1.7634   -15.1725    10.9412 N.am       1 BB1          0.0000
     6 C6        -0.0447   -15.0439    12.6418 C.3        1 BB1          0.0000
     7 C7        -0.4040   -15.9941    13.8113 C.3        1 BB1          0.0000
     8 N8         0.2679   -17.2652    13.4849 N.am       1 BB1          0.0000
     9 C9        -0.0990   -18.4841    13.9278 C.2        1 BB1          0.0000
    10 O10       -1.1109   -18.6112    14.5883 O.2        1 BB1          0.0000
    11 O11        0.6559   -19.5607    13.6384 O.3        1 BB1          0.0000
    12 C12        0.4169   -20.7621    14.4183 C.3        1 BB1          0.0000
    13 C13        1.4830   -21.8074    14.0842 C.3        1 BB1          0.0000
    14 C14        0.4837   -20.4240    15.9089 C.3        1 BB1          0.0000
    15 C15       -0.9676   -21.3204    14.0835 C.3        1 BB1          0.0000
    16 H16        3.5014   -17.5668    15.2664 H          1 BB1          0.0000
    17 H17        2.4732   -16.1399    14.9928 H          1 BB1          0.0000
    18 H18        1.7342   -17.7506    15.1588 H          1 BB1          0.0000
    19 H19        3.5326   -16.8090    12.8802 H          1 BB1          0.0000
    20 H20        2.8993   -18.4627    13.0602 H          1 BB1          0.0000
    21 H21        1.2817   -17.5161    11.6530 H          1 BB1          0.0000
    22 H22        2.1124   -14.9627    13.0171 H          1 BB1          0.0000
    23 H23       -0.0971   -14.0014    12.9555 H          1 BB1          0.0000
    24 H24       -0.6881   -15.2239    11.7805 H          1 BB1          0.0000
    25 H25       -0.0262   -15.5963    14.7531 H          1 BB1          0.0000
    26 H26       -1.4831   -16.1385    13.8652 H          1 BB1          0.0000
    27 H27        2.4693   -21.4096    14.3227 H          1 BB1          0.0000
    28 H28        1.3036   -22.7091    14.6696 H          1 BB1          0.0000
    29 H29        1.4354   -22.0482    13.0222 H          1 BB1          0.0000
    30 H30       -0.2758   -19.6792    16.1470 H          1 BB1          0.0000
    31 H31        0.3043   -21.3257    16.4944 H          1 BB1          0.0000
    32 H32        1.4701   -20.0261    16.1475 H          1 BB1          0.0000
    33 H33       -1.0152   -21.5612    13.0215 H          1 BB1          0.0000
    34 H34       -1.1469   -22.2222    14.6689 H          1 BB1          0.0000
    35 H35       -1.7271   -20.5756    14.3215 H          1 BB1          0.0000
    36 H37        2.6808   -14.7544    10.9003 H          1 BB1          0.0000
    37 O1         0.5661   -15.7707    10.9576 O.2        2 BB2          0.0000
    38 C2         0.2489   -14.5943    11.0019 C.2        2 BB2          0.0000
    39 C4         0.9922   -13.5817    10.1694 C.3        2 BB2          0.0000
    40 C5         0.0568   -13.0163     9.0988 C.3        2 BB2          0.0000
    41 C6         0.8768   -12.3025     8.0042 C.3        2 BB2          0.0000
    42 C7         1.0511   -13.3749     6.9002 C.3        2 BB2          0.0000
    43 C8        -0.3163   -14.1023     6.9114 C.3        2 BB2          0.0000
    44 C9        -0.7017   -14.1605     8.4040 C.3        2 BB2          0.0000
    45 C10       -0.9194   -12.0528     9.7233 C.ar       2 BB2          0.0000
    46 C11       -0.7018   -11.5818    11.0046 C.ar       2 BB2          0.0000
    47 C12       -1.5972   -10.6981    11.5774 C.ar       2 BB2          0.0000
    48 C13       -2.7099   -10.2850    10.8687 C.ar       2 BB2          0.0000
    49 C14       -2.9270   -10.7553     9.5871 C.ar       2 BB2          0.0000
    50 C15       -2.0292   -11.6357     9.0126 C.ar       2 BB2          0.0000
    51 H16        1.3431   -12.7722    10.8096 H          2 BB2          0.0000
    52 H17        1.8455   -14.0614     9.6898 H          2 BB2          0.0000
    53 H18        0.3298   -11.4425     7.6177 H          2 BB2          0.0000
    54 H19        1.8472   -11.9949     8.3939 H          2 BB2          0.0000
    55 H20        1.2319   -12.9071     5.9324 H          2 BB2          0.0000
    56 H21        1.8570   -14.0634     7.1543 H          2 BB2          0.0000
    57 H22       -1.0559   -13.5330     6.3483 H          2 BB2          0.0000
    58 H23       -0.2166   -15.1082     6.5036 H          2 BB2          0.0000
    59 H24       -0.4034   -15.1187     8.8294 H          2 BB2          0.0000
    60 H25       -1.7765   -14.0194     8.5179 H          2 BB2          0.0000
    61 H26        0.1674   -11.9045    11.5583 H          2 BB2          0.0000
    62 H27       -1.4278   -10.3307    12.5787 H          2 BB2          0.0000
    63 H28       -3.4099    -9.5951    11.3165 H          2 BB2          0.0000
    64 H29       -3.7964   -10.4328     9.0334 H          2 BB2          0.0000
    65 H30       -2.1987   -12.0032     8.0113 H          2 BB2          0.0000
@<TRIPOS>BOND
     1      1      2 1
     2      1     16 1
     3      1     17 1
     4      1     18 1
     5      2      3 1
     6      2     19 1
     7      2     20 1
     8      3      4 1
     9      3      8 1
    10      3     21 1
    11      4      5 1
    12      4      6 1
    13      4     22 1
    14      5     36 1
    15      6      7 1
    16      6     23 1
    17      6     24 1
    18      7      8 1
    19      7     25 1
    20      7     26 1
    21      8      9 am
    22      9     10 2
    23      9     11 1
    24     11     12 1
    25     12     13 1
    26     12     14 1
    27     12     15 1
    28     13     27 1
    29     13     28 1
    30     13     29 1
    31     14     30 1
    32     14     31 1
    33     14     32 1
    34     15     33 1
    35     15     34 1
    36     15     35 1
    37     37     38 2
    38     38     39 1
    39     39     40 1
    40     39     51 1
    41     39     52 1
    42     40     41 1
    43     40     44 1
    44     40     45 1
    45     41     42 1
    46     41     53 1
    47     41     54 1
    48     42     43 1
    49     42     55 1
    50     42     56 1
    51     43     44 1
    52     43     57 1
    53     43     58 1
    54     44     59 1
    55     44     60 1
    56     45     46 ar
    57     45     50 ar
    58     46     47 ar
    59     46     61 1
    60     47     48 ar
    61     47     62 1
    62     48     49 ar
    63     48     63 1
    64     49     50 ar
    65     49     64 1
    66     50     65 1
    67      5     38 am
@<TRIPOS>SUBSTRUCTURE
     1 BB1           5
     2 BB2          38
@<TRIPOS>MOLECULE
EN300-312564_i001_EN300-701715_i002_6_4_1
  62   63   2   0   0
SMALL
USER_CHARGES
@<TRIPOS>ATOM
     1 C1         0.7940   -14.5642     8.6274 C.3        1 BB1          0.0000
     2 C2         0.2008   -15.4350     9.7367 C.3        1 BB1          0.0000
     3 C3         0.7210   -14.9566    11.0938 C.3        1 BB1          0.0000
     4 C4         1.0254   -16.1705    11.9967 C.3        1 BB1          0.0000
     5 N5         2.4643   -16.4662    12.0023 N.am       1 BB1          0.0000
     6 C6         0.5586   -15.6888    13.3957 C.3        1 BB1          0.0000
     7 C7        -0.6761   -14.8269    13.0319 C.3        1 BB1          0.0000
     8 N8        -0.3102   -14.1567    11.7708 N.am       1 BB1          0.0000
     9 C9        -0.8339   -13.0017    11.3144 C.2        1 BB1          0.0000
    10 O10       -1.6179   -12.3769    12.0008 O.2        1 BB1          0.0000
    11 O11       -0.4883   -12.5404    10.0976 O.3        1 BB1          0.0000
    12 C12       -0.9201   -11.1971     9.7549 C.3        1 BB1          0.0000
    13 C13       -0.4111   -10.2130    10.8100 C.3        1 BB1          0.0000
    14 C14       -0.3555   -10.8138     8.3856 C.3        1 BB1          0.0000
    15 C15       -2.4486   -11.1492     9.7080 C.3        1 BB1          0.0000
    16 H16        0.4759   -14.9454     7.6570 H          1 BB1          0.0000
    17 H17        0.4466   -13.5379     8.7461 H          1 BB1          0.0000
    18 H18        1.8820   -14.5889     8.6886 H          1 BB1          0.0000
    19 H19       -0.8864   -15.3583     9.7168 H          1 BB1          0.0000
    20 H20        0.4946   -16.4729     9.5803 H          1 BB1          0.0000
    21 H21        1.6237   -14.3616    10.9558 H          1 BB1          0.0000
    22 H22        0.4551   -17.0424    11.6760 H          1 BB1          0.0000
    23 H23        0.2745   -16.5323    14.0248 H          1 BB1          0.0000
    24 H24        1.3277   -15.0854    13.8780 H          1 BB1          0.0000
    25 H25       -1.5509   -15.4603    12.8849 H          1 BB1          0.0000
    26 H26       -0.8674   -14.0896    13.8117 H          1 BB1          0.0000
    27 H27        0.6778   -10.2472    10.8435 H          1 BB1          0.0000
    28 H28       -0.7352    -9.2047    10.5528 H          1 BB1          0.0000
    29 H29       -0.8133   -10.4861    11.7856 H          1 BB1          0.0000
    30 H30       -0.7181   -11.5148     7.6338 H          1 BB1          0.0000
    31 H31       -0.6797    -9.8054     8.1283 H          1 BB1          0.0000
    32 H32        0.7334   -10.8479     8.4189 H          1 BB1          0.0000
    33 H33       -2.8509   -11.4224    10.6835 H          1 BB1          0.0000
    34 H34       -2.7727   -10.1408     9.4507 H          1 BB1          0.0000
    35 H35       -2.8112   -11.8503     8.9562 H          1 BB1          0.0000
    36 H37        2.6647   -17.1481    12.7185 H          1 BB1          0.0000
    37 C1        -0.5387   -18.9237    15.8766 C.3        2 BB2          0.0000
    38 O2        -0.7445   -18.5135    14.5233 O.3        2 BB2          0.0000
    39 C3         0.4635   -18.2743    13.7984 C.3        2 BB2          0.0000
    40 C4         0.1383   -18.0769    12.3164 C.3        2 BB2          0.0000
    41 C5        -0.5428   -19.3340    11.7719 C.3        2 BB2          0.0000
    42 C6         0.3946   -20.5325    11.9331 C.3        2 BB2          0.0000
    43 C7         0.7197   -20.7299    13.4151 C.3        2 BB2          0.0000
    44 C8         1.6571   -21.9282    13.5763 C.3        2 BB2          0.0000
    45 C9         1.4009   -19.4727    13.9597 C.3        2 BB2          0.0000
    46 C10        1.1344   -17.0360    14.3348 C.2        2 BB2          0.0000
    47 O12        0.5149   -15.9881    14.4032 O.2        2 BB2          0.0000
    48 H13        0.0095   -18.1483    16.4119 H          2 BB2          0.0000
    49 H14       -1.5032   -19.0850    16.3582 H          2 BB2          0.0000
    50 H15        0.0348   -19.8505    15.8922 H          2 BB2          0.0000
    51 H16       -0.5295   -17.2231    12.2016 H          2 BB2          0.0000
    52 H17        1.0597   -17.8944    11.7635 H          2 BB2          0.0000
    53 H18       -1.4642   -19.5165    12.3249 H          2 BB2          0.0000
    54 H19       -0.7744   -19.1934    10.7161 H          2 BB2          0.0000
    55 H20       -0.0906   -21.4280    11.5452 H          2 BB2          0.0000
    56 H21        1.3160   -20.3499    11.3801 H          2 BB2          0.0000
    57 H22       -0.2017   -20.9123    13.9680 H          2 BB2          0.0000
    58 H23        2.5786   -21.7458    13.0233 H          2 BB2          0.0000
    59 H24        1.8888   -22.0689    14.6321 H          2 BB2          0.0000
    60 H25        1.1719   -22.8239    13.1883 H          2 BB2          0.0000
    61 H26        2.3223   -19.2902    13.4066 H          2 BB2          0.0000
    62 H27        1.6326   -19.6133    15.0154 H          2 BB2          0.0000
@<TRIPOS>BOND
     1      1      2 1
     2      1     16 1
     3      1     17 1
     4      1     18 1
     5      2      3 1
     6      2     19 1
     7      2     20 1
     8      3      4 1
     9      3      8 1
    10      3     21 1
    11      4      5 1
    12      4      6 1
    13      4     22 1
    14      5     36 1
    15      6      7 1
    16      6     23 1
    17      6     24 1
    18      7      8 1
    19      7     25 1
    20      7     26 1
    21      8      9 am
    22      9     10 2
    23      9     11 1
    24     11     12 1
    25     12     13 1
    26     12     14 1
    27     12     15 1
    28     13     27 1
    29     13     28 1
    30     13     29 1
    31     14     30 1
    32     14     31 1
    33     14     32 1
    34     15     33 1
    35     15     34 1
    36     15     35 1
    37     37     38 1
    38     37     48 1
    39     37     49 1
    40     37     50 1
    41     38     39 1
    42     39     40 1
    43     39     45 1
    44     39     46 1
    45     40     41 1
    46     40     51 1
    47     40     52 1
    48     41     42 1
    49     41     53 1
    50     41     54 1
    51     42     43 1
    52     42     55 1
    53     42     56 1
    54     43     44 1
    55     43     45 1
    56     43     57 1
    57     44     58 1
    58     44     59 1
    59     44     60 1
    60     45     61 1
    61     45     62 1
    62     46     47 2
    63      5     46 am
@<TRIPOS>SUBSTRUCTURE
     1 BB1           5
     2 BB2          46
@<TRIPOS>MOLECULE
EN300-312564_i001_EN300-97777_i001_7_19_1
  64   64   2   0   0
SMALL
USER_CHARGES
@<TRIPOS>ATOM
     1 C1         0.8765   -14.0539     7.9815 C.3        1 BB1          0.0000
     2 C2         0.2175   -14.9105     9.0645 C.3        1 BB1          0.0000
     3 C3         0.6179   -14.3847    10.4445 C.3        1 BB1          0.0000
     4 C4         0.7845   -15.5630    11.4270 C.3        1 BB1          0.0000
     5 N5         2.2033   -15.9060    11.5915 N.am       1 BB1          0.0000
     6 C6         0.1993   -14.9989    12.7486 C.3        1 BB1          0.0000
     7 C7        -0.9594   -14.1149    12.2234 C.3        1 BB1          0.0000
     8 N8        -0.4444   -13.5190    10.9771 N.am       1 BB1          0.0000
     9 C9        -0.8757   -12.3706    10.4188 C.2        1 BB1          0.0000
    10 O10       -0.4403   -12.0184     9.3405 O.2        1 BB1          0.0000
    11 O11       -1.7888   -11.6137    11.0560 O.3        1 BB1          0.0000
    12 C12       -2.6862   -10.8272    10.2286 C.3        1 BB1          0.0000
    13 C13       -3.3093   -11.7240     9.1570 C.3        1 BB1          0.0000
    14 C14       -3.7926   -10.2306    11.1008 C.3        1 BB1          0.0000
    15 C15       -1.9021    -9.6985     9.5562 C.3        1 BB1          0.0000
    16 H16        0.6449   -14.4677     7.0001 H          1 BB1          0.0000
    17 H17        0.4976   -13.0339     8.0444 H          1 BB1          0.0000
    18 H18        1.9566   -14.0500     8.1285 H          1 BB1          0.0000
    19 H19       -0.8661   -14.8614     8.9573 H          1 BB1          0.0000
    20 H20        0.5465   -15.9444     8.9602 H          1 BB1          0.0000
    21 H21        1.5519   -13.8275    10.3721 H          1 BB1          0.0000
    22 H22        0.2162   -16.4299    11.0896 H          1 BB1          0.0000
    23 H23       -0.1779   -15.8011    13.3828 H          1 BB1          0.0000
    24 H24        0.9390   -14.3989    13.2788 H          1 BB1          0.0000
    25 H25       -1.8386   -14.7251    12.0171 H          1 BB1          0.0000
    26 H26       -1.1991   -13.3348    12.9461 H          1 BB1          0.0000
    27 H27       -3.8678   -12.5282     9.6360 H          1 BB1          0.0000
    28 H28       -3.9829   -11.1337     8.5359 H          1 BB1          0.0000
    29 H29       -2.5211   -12.1491     8.5357 H          1 BB1          0.0000
    30 H30       -3.3487    -9.5916    11.8642 H          1 BB1          0.0000
    31 H31       -4.4662    -9.6402    10.4797 H          1 BB1          0.0000
    32 H32       -4.3511   -11.0347    11.5798 H          1 BB1          0.0000
    33 H33       -1.1139   -10.1236     8.9349 H          1 BB1          0.0000
    34 H34       -2.5758    -9.1081     8.9352 H          1 BB1          0.0000
    35 H35       -1.4582    -9.0596    10.3197 H          1 BB1          0.0000
    36 H38        2.4527   -16.6301    10.9346 H          1 BB1          0.0000
    37 C1         0.0416   -20.7360    14.9060 C.3        2 BB2          0.0000
    38 C2         0.1840   -20.5981    13.3889 C.3        2 BB2          0.0000
    39 C3         1.6587   -20.7254    13.0013 C.3        2 BB2          0.0000
    40 C4        -0.6217   -21.7004    12.6986 C.3        2 BB2          0.0000
    41 O5        -0.3156   -19.3001    12.9719 O.3        2 BB2          0.0000
    42 C6        -0.1370   -18.9623    11.6808 C.2        2 BB2          0.0000
    43 O7         0.1824   -19.8090    10.8700 O.2        2 BB2          0.0000
    44 N8        -0.3127   -17.6851    11.2879 N.am       2 BB2          0.0000
    45 C9        -0.1185   -17.3176     9.8831 C.3        2 BB2          0.0000
    46 C10       -1.0017   -18.1350     9.0354 C.1        2 BB2          0.0000
    47 C11       -1.7062   -18.7868     8.3594 C.1        2 BB2          0.0000
    48 C12       -0.6979   -16.6643    12.2656 C.3        2 BB2          0.0000
    49 C13        0.4114   -16.4870    13.2702 C.2        2 BB2          0.0000
    50 O14        0.3050   -15.6556    14.1555 O.2        2 BB2          0.0000
    51 H16        0.6157   -19.9507    15.3977 H          2 BB2          0.0000
    52 H17       -1.0089   -20.6453    15.1820 H          2 BB2          0.0000
    53 H18        0.4168   -21.7104    15.2190 H          2 BB2          0.0000
    54 H19        2.0337   -21.6998    13.3144 H          2 BB2          0.0000
    55 H20        1.7601   -20.6270    11.9205 H          2 BB2          0.0000
    56 H21        2.2327   -19.9400    13.4932 H          2 BB2          0.0000
    57 H22       -1.6723   -21.6096    12.9747 H          2 BB2          0.0000
    58 H23       -0.5203   -21.6021    11.6178 H          2 BB2          0.0000
    59 H24       -0.2466   -22.6748    13.0116 H          2 BB2          0.0000
    60 H25       -0.3582   -16.2631     9.7470 H          2 BB2          0.0000
    61 H26        0.9198   -17.4935     9.6018 H          2 BB2          0.0000
    62 H27       -2.3362   -19.3699     7.7548 H          2 BB2          0.0000
    63 H28       -0.8780   -15.7195    11.7527 H          2 BB2          0.0000
    64 H29       -1.6067   -16.9778    12.7794 H          2 BB2          0.0000
@<TRIPOS>BOND
     1      1      2 1
     2      1     16 1
     3      1     17 1
     4      1     18 1
     5      2      3 1
     6      2     19 1
     7      2     20 1
     8      3      4 1
     9      3      8 1
    10      3     21 1
    11      4      5 1
    12      4      6 1
    13      4     22 1
    14      5     36 1
    15      6      7 1
    16      6     23 1
    17      6     24 1
    18      7      8 1
    19      7     25 1
    20      7     26 1
    21      8      9 am
    22      9     10 2
    23      9     11 1
    24     11     12 1
    25     12     13 1
    26     12     14 1
    27     12     15 1
    28     13     27 1
    29     13     28 1
    30     13     29 1
    31     14     30 1
    32     14     31 1
    33     14     32 1
    34     15     33 1
    35     15     34 1
    36     15     35 1
    37     37     38 1
    38     37     51 1
    39     37     52 1
    40     37     53 1
    41     38     39 1
    42     38     40 1
    43     38     41 1
    44     39     54 1
    45     39     55 1
    46     39     56 1
    47     40     57 1
    48     40     58 1
    49     40     59 1
    50     41     42 1
    51     42     43 2
    52     42     44 am
    53     44     45 1
    54     44     48 1
    55     45     46 1
    56     45     60 1
    57     45     61 1
    58     46     47 3
    59     47     62 1
    60     48     49 1
    61     48     63 1
    62     48     64 1
    63     49     50 2
    64      5     49 am
@<TRIPOS>SUBSTRUCTURE
     1 BB1           5
     2 BB2          49
@<TRIPOS>MOLECULE
EN300-312564_i001_EN300-34862_i002_7_1_1
  48   49   2   0   0
SMALL
USER_CHARGES
@<TRIPOS>ATOM
     1 C1         0.8765   -14.0539     7.9815 C.3        1 BB1          0.0000
     2 C2         0.2175   -14.9105     9.0645 C.3        1 BB1          0.0000
     3 C3         0.6179   -14.3847    10.4445 C.3        1 BB1          0.0000
     4 C4         0.7845   -15.5630    11.4270 C.3        1 BB1          0.0000
     5 N5         2.2033   -15.9060    11.5915 N.am       1 BB1          0.0000
     6 C6         0.1993   -14.9989    12.7486 C.3        1 BB1          0.0000
     7 C7        -0.9594   -14.1149    12.2234 C.3        1 BB1          0.0000
     8 N8        -0.4444   -13.5190    10.9771 N.am       1 BB1          0.0000
     9 C9        -0.8757   -12.3706    10.4188 C.2        1 BB1          0.0000
    10 O10       -0.4403   -12.0184     9.3405 O.2        1 BB1          0.0000
    11 O11       -1.7888   -11.6137    11.0560 O.3        1 BB1          0.0000
    12 C12       -2.6862   -10.8272    10.2286 C.3        1 BB1          0.0000
    13 C13       -3.3093   -11.7240     9.1570 C.3        1 BB1          0.0000
    14 C14       -3.7926   -10.2306    11.1008 C.3        1 BB1          0.0000
    15 C15       -1.9021    -9.6985     9.5562 C.3        1 BB1          0.0000
    16 H16        0.6449   -14.4677     7.0001 H          1 BB1          0.0000
    17 H17        0.4976   -13.0339     8.0444 H          1 BB1          0.0000
    18 H18        1.9566   -14.0500     8.1285 H          1 BB1          0.0000
    19 H19       -0.8661   -14.8614     8.9573 H          1 BB1          0.0000
    20 H20        0.5465   -15.9444     8.9602 H          1 BB1          0.0000
    21 H21        1.5519   -13.8275    10.3721 H          1 BB1          0.0000
    22 H22        0.2162   -16.4299    11.0896 H          1 BB1          0.0000
    23 H23       -0.1779   -15.8011    13.3828 H          1 BB1          0.0000
    24 H24        0.9390   -14.3989    13.2788 H          1 BB1          0.0000
    25 H25       -1.8386   -14.7251    12.0171 H          1 BB1          0.0000
    26 H26       -1.1991   -13.3348    12.9461 H          1 BB1          0.0000
    27 H27       -3.8678   -12.5282     9.6360 H          1 BB1          0.0000
    28 H28       -3.9829   -11.1337     8.5359 H          1 BB1          0.0000
    29 H29       -2.5211   -12.1491     8.5357 H          1 BB1          0.0000
    30 H30       -3.3487    -9.5916    11.8642 H          1 BB1          0.0000
    31 H31       -4.4662    -9.6402    10.4797 H          1 BB1          0.0000
    32 H32       -4.3511   -11.0347    11.5798 H          1 BB1          0.0000
    33 H33       -1.1139   -10.1236     8.9349 H          1 BB1          0.0000
    34 H34       -2.5758    -9.1081     8.9352 H          1 BB1          0.0000
    35 H35       -1.4582    -9.0596    10.3197 H          1 BB1          0.0000
    36 H38        2.4527   -16.6301    10.9346 H          1 BB1          0.0000
    37 O1         0.9775   -15.9087    14.1996 O.2        2 BB2          0.0000
    38 C2         1.7110   -16.2827    13.3004 C.2        2 BB2          0.0000
    39 C4         2.4553   -17.5868    13.4281 C.3        2 BB2          0.0000
    40 C5         2.0008   -18.2992    14.7086 C.3        2 BB2          0.0000
    41 S6         1.3339   -19.8858    14.1146 S.3        2 BB2          0.0000
    42 C7         1.6432   -19.5854    12.4010 C.2        2 BB2          0.0000
    43 O8         1.3812   -20.3543    11.4960 O.2        2 BB2          0.0000
    44 N9         2.2058   -18.3893    12.2522 N.am       2 BB2          0.0000
    45 H10        3.5235   -17.3808    13.4958 H          2 BB2          0.0000
    46 H11        2.8475   -18.4656    15.3747 H          2 BB2          0.0000
    47 H12        1.2247   -17.7226    15.2121 H          2 BB2          0.0000
    48 H13        2.4438   -18.0617    11.3709 H          2 BB2          0.0000
@<TRIPOS>BOND
     1      1      2 1
     2      1     16 1
     3      1     17 1
     4      1     18 1
     5      2      3 1
     6      2     19 1
     7      2     20 1
     8      3      4 1
     9      3      8 1
    10      3     21 1
    11      4      5 1
    12      4      6 1
    13      4     22 1
    14      5     36 1
    15      6      7 1
    16      6     23 1
    17      6     24 1
    18      7      8 1
    19      7     25 1
    20      7     26 1
    21      8      9 am
    22      9     10 2
    23      9     11 1
    24     11     12 1
    25     12     13 1
    26     12     14 1
    27     12     15 1
    28     13     27 1
    29     13     28 1
    30     13     29 1
    31     14     30 1
    32     14     31 1
    33     14     32 1
    34     15     33 1
    35     15     34 1
    36     15     35 1
    37     37     38 2
    38     38     39 1
    39     39     40 1
    40     39     44 1
    41     39     45 1
    42     40     41 1
    43     40     46 1
    44     40     47 1
    45     41     42 1
    46     42     43 2
    47     42     44 am
    48     44     48 1
    49      5     38 am
@<TRIPOS>SUBSTRUCTURE
     1 BB1           5
     2 BB2          38
@<TRIPOS>MOLECULE
EN300-312564_i001_EN300-34862_i002_7_14_1
  48   49   2   0   0
SMALL
USER_CHARGES
@<TRIPOS>ATOM
     1 C1         0.8765   -14.0539     7.9815 C.3        1 BB1          0.0000
     2 C2         0.2175   -14.9105     9.0645 C.3        1 BB1          0.0000
     3 C3         0.6179   -14.3847    10.4445 C.3        1 BB1          0.0000
     4 C4         0.7845   -15.5630    11.4270 C.3        1 BB1          0.0000
     5 N5         2.2033   -15.9060    11.5915 N.am       1 BB1          0.0000
     6 C6         0.1993   -14.9989    12.7486 C.3        1 BB1          0.0000
     7 C7        -0.9594   -14.1149    12.2234 C.3        1 BB1          0.0000
     8 N8        -0.4444   -13.5190    10.9771 N.am       1 BB1          0.0000
     9 C9        -0.8757   -12.3706    10.4188 C.2        1 BB1          0.0000
    10 O10       -0.4403   -12.0184     9.3405 O.2        1 BB1          0.0000
    11 O11       -1.7888   -11.6137    11.0560 O.3        1 BB1          0.0000
    12 C12       -2.6862   -10.8272    10.2286 C.3        1 BB1          0.0000
    13 C13       -3.3093   -11.7240     9.1570 C.3        1 BB1          0.0000
    14 C14       -3.7926   -10.2306    11.1008 C.3        1 BB1          0.0000
    15 C15       -1.9021    -9.6985     9.5562 C.3        1 BB1          0.0000
    16 H16        0.6449   -14.4677     7.0001 H          1 BB1          0.0000
    17 H17        0.4976   -13.0339     8.0444 H          1 BB1          0.0000
    18 H18        1.9566   -14.0500     8.1285 H          1 BB1          0.0000
    19 H19       -0.8661   -14.8614     8.9573 H          1 BB1          0.0000
    20 H20        0.5465   -15.9444     8.9602 H          1 BB1          0.0000
    21 H21        1.5519   -13.8275    10.3721 H          1 BB1          0.0000
    22 H22        0.2162   -16.4299    11.0896 H          1 BB1          0.0000
    23 H23       -0.1779   -15.8011    13.3828 H          1 BB1          0.0000
    24 H24        0.9390   -14.3989    13.2788 H          1 BB1          0.0000
    25 H25       -1.8386   -14.7251    12.0171 H          1 BB1          0.0000
    26 H26       -1.1991   -13.3348    12.9461 H          1 BB1          0.0000
    27 H27       -3.8678   -12.5282     9.6360 H          1 BB1          0.0000
    28 H28       -3.9829   -11.1337     8.5359 H          1 BB1          0.0000
    29 H29       -2.5211   -12.1491     8.5357 H          1 BB1          0.0000
    30 H30       -3.3487    -9.5916    11.8642 H          1 BB1          0.0000
    31 H31       -4.4662    -9.6402    10.4797 H          1 BB1          0.0000
    32 H32       -4.3511   -11.0347    11.5798 H          1 BB1          0.0000
    33 H33       -1.1139   -10.1236     8.9349 H          1 BB1          0.0000
    34 H34       -2.5758    -9.1081     8.9352 H          1 BB1          0.0000
    35 H35       -1.4582    -9.0596    10.3197 H          1 BB1          0.0000
    36 H37        2.3629   -16.2354    12.5318 H          1 BB1          0.0000
    37 O1         0.6242   -15.5676    12.3308 O.2        2 BB2          0.0000
    38 C2         0.8251   -16.2952    13.2882 C.2        2 BB2          0.0000
    39 C4         1.0108   -17.7766    13.0830 C.3        2 BB2          0.0000
    40 C5        -0.0651   -18.5304    13.8755 C.3        2 BB2          0.0000
    41 S6        -0.9625   -19.4773    12.6055 S.3        2 BB2          0.0000
    42 C7         0.0017   -18.9102    11.2376 C.2        2 BB2          0.0000
    43 O8        -0.1655   -19.2378    10.0784 O.2        2 BB2          0.0000
    44 N9         0.9376   -18.0697    11.6695 N.am       2 BB2          0.0000
    45 H10        1.9940   -18.0661    13.4540 H          2 BB2          0.0000
    46 H11        0.3944   -19.2026    14.6002 H          2 BB2          0.0000
    47 H12       -0.7345   -17.8292    14.3739 H          2 BB2          0.0000
    48 H13        1.5594   -17.6608    11.0474 H          2 BB2          0.0000
@<TRIPOS>BOND
     1      1      2 1
     2      1     16 1
     3      1     17 1
     4      1     18 1
     5      2      3 1
     6      2     19 1
     7      2     20 1
     8      3      4 1
     9      3      8 1
    10      3     21 1
    11      4      5 1
    12      4      6 1
    13      4     22 1
    14      5     36 1
    15      6      7 1
    16      6     23 1
    17      6     24 1
    18      7      8 1
    19      7     25 1
    20      7     26 1
    21      8      9 am
    22      9     10 2
    23      9     11 1
    24     11     12 1
    25     12     13 1
    26     12     14 1
    27     12     15 1
    28     13     27 1
    29     13     28 1
    30     13     29 1
    31     14     30 1
    32     14     31 1
    33     14     32 1
    34     15     33 1
    35     15     34 1
    36     15     35 1
    37     37     38 2
    38     38     39 1
    39     39     40 1
    40     39     44 1
    41     39     45 1
    42     40     41 1
    43     40     46 1
    44     40     47 1
    45     41     42 1
    46     42     43 2
    47     42     44 am
    48     44     48 1
    49      5     38 am
@<TRIPOS>SUBSTRUCTURE
     1 BB1           5
     2 BB2          38
@<TRIPOS>MOLECULE
EN300-312564_i001_EN300-34862_i002_7_3_1
  48   49   2   0   0
SMALL
USER_CHARGES
@<TRIPOS>ATOM
     1 C1         0.8765   -14.0539     7.9815 C.3        1 BB1          0.0000
     2 C2         0.2175   -14.9105     9.0645 C.3        1 BB1          0.0000
     3 C3         0.6179   -14.3847    10.4445 C.3        1 BB1          0.0000
     4 C4         0.7845   -15.5630    11.4270 C.3        1 BB1          0.0000
     5 N5         2.2033   -15.9060    11.5915 N.am       1 BB1          0.0000
     6 C6         0.1993   -14.9989    12.7486 C.3        1 BB1          0.0000
     7 C7        -0.9594   -14.1149    12.2234 C.3        1 BB1          0.0000
     8 N8        -0.4444   -13.5190    10.9771 N.am       1 BB1          0.0000
     9 C9        -0.8757   -12.3706    10.4188 C.2        1 BB1          0.0000
    10 O10       -0.4403   -12.0184     9.3405 O.2        1 BB1          0.0000
    11 O11       -1.7888   -11.6137    11.0560 O.3        1 BB1          0.0000
    12 C12       -2.6862   -10.8272    10.2286 C.3        1 BB1          0.0000
    13 C13       -3.3093   -11.7240     9.1570 C.3        1 BB1          0.0000
    14 C14       -3.7926   -10.2306    11.1008 C.3        1 BB1          0.0000
    15 C15       -1.9021    -9.6985     9.5562 C.3        1 BB1          0.0000
    16 H16        0.6449   -14.4677     7.0001 H          1 BB1          0.0000
    17 H17        0.4976   -13.0339     8.0444 H          1 BB1          0.0000
    18 H18        1.9566   -14.0500     8.1285 H          1 BB1          0.0000
    19 H19       -0.8661   -14.8614     8.9573 H          1 BB1          0.0000
    20 H20        0.5465   -15.9444     8.9602 H          1 BB1          0.0000
    21 H21        1.5519   -13.8275    10.3721 H          1 BB1          0.0000
    22 H22        0.2162   -16.4299    11.0896 H          1 BB1          0.0000
    23 H23       -0.1779   -15.8011    13.3828 H          1 BB1          0.0000
    24 H24        0.9390   -14.3989    13.2788 H          1 BB1          0.0000
    25 H25       -1.8386   -14.7251    12.0171 H          1 BB1          0.0000
    26 H26       -1.1991   -13.3348    12.9461 H          1 BB1          0.0000
    27 H27       -3.8678   -12.5282     9.6360 H          1 BB1          0.0000
    28 H28       -3.9829   -11.1337     8.5359 H          1 BB1          0.0000
    29 H29       -2.5211   -12.1491     8.5357 H          1 BB1          0.0000
    30 H30       -3.3487    -9.5916    11.8642 H          1 BB1          0.0000
    31 H31       -4.4662    -9.6402    10.4797 H          1 BB1          0.0000
    32 H32       -4.3511   -11.0347    11.5798 H          1 BB1          0.0000
    33 H33       -1.1139   -10.1236     8.9349 H          1 BB1          0.0000
    34 H34       -2.5758    -9.1081     8.9352 H          1 BB1          0.0000
    35 H35       -1.4582    -9.0596    10.3197 H          1 BB1          0.0000
    36 H38        2.4527   -16.6301    10.9346 H          1 BB1          0.0000
    37 O1         0.8494   -16.1347    14.3982 O.2        2 BB2          0.0000
    38 C2         1.5373   -16.5492    13.4809 C.2        2 BB2          0.0000
    39 C4         1.8134   -18.0252    13.3532 C.3        2 BB2          0.0000
    40 C5         1.0261   -18.7770    14.4343 C.3        2 BB2          0.0000
    41 S6        -0.0426   -19.9094    13.4907 S.3        2 BB2          0.0000
    42 C7         0.5226   -19.4077    11.8934 C.2        2 BB2          0.0000
    43 O8         0.1265   -19.8593    10.8359 O.2        2 BB2          0.0000
    44 N9         1.4468   -18.4603    12.0245 N.am       2 BB2          0.0000
    45 H10        2.8788   -18.2013    13.5019 H          2 BB2          0.0000
    46 H11        1.7025   -19.3380    15.0793 H          2 BB2          0.0000
    47 H12        0.4242   -18.0832    15.0212 H          2 BB2          0.0000
    48 H13        1.8667   -18.0683    11.2429 H          2 BB2          0.0000
@<TRIPOS>BOND
     1      1      2 1
     2      1     16 1
     3      1     17 1
     4      1     18 1
     5      2      3 1
     6      2     19 1
     7      2     20 1
     8      3      4 1
     9      3      8 1
    10      3     21 1
    11      4      5 1
    12      4      6 1
    13      4     22 1
    14      5     36 1
    15      6      7 1
    16      6     23 1
    17      6     24 1
    18      7      8 1
    19      7     25 1
    20      7     26 1
    21      8      9 am
    22      9     10 2
    23      9     11 1
    24     11     12 1
    25     12     13 1
    26     12     14 1
    27     12     15 1
    28     13     27 1
    29     13     28 1
    30     13     29 1
    31     14     30 1
    32     14     31 1
    33     14     32 1
    34     15     33 1
    35     15     34 1
    36     15     35 1
    37     37     38 2
    38     38     39 1
    39     39     40 1
    40     39     44 1
    41     39     45 1
    42     40     41 1
    43     40     46 1
    44     40     47 1
    45     41     42 1
    46     42     43 2
    47     42     44 am
    48     44     48 1
    49      5     38 am
@<TRIPOS>SUBSTRUCTURE
     1 BB1           5
     2 BB2          38
@<TRIPOS>MOLECULE
EN300-312564_i001_EN300-701715_i002_7_19_1
  62   63   2   0   0
SMALL
USER_CHARGES
@<TRIPOS>ATOM
     1 C1         0.8765   -14.0539     7.9815 C.3        1 BB1          0.0000
     2 C2         0.2175   -14.9105     9.0645 C.3        1 BB1          0.0000
     3 C3         0.6179   -14.3847    10.4445 C.3        1 BB1          0.0000
     4 C4         0.7845   -15.5630    11.4270 C.3        1 BB1          0.0000
     5 N5         2.2033   -15.9060    11.5915 N.am       1 BB1          0.0000
     6 C6         0.1993   -14.9989    12.7486 C.3        1 BB1          0.0000
     7 C7        -0.9594   -14.1149    12.2234 C.3        1 BB1          0.0000
     8 N8        -0.4444   -13.5190    10.9771 N.am       1 BB1          0.0000
     9 C9        -0.8757   -12.3706    10.4188 C.2        1 BB1          0.0000
    10 O10       -0.4403   -12.0184     9.3405 O.2        1 BB1          0.0000
    11 O11       -1.7888   -11.6137    11.0560 O.3        1 BB1          0.0000
    12 C12       -2.6862   -10.8272    10.2286 C.3        1 BB1          0.0000
    13 C13       -3.3093   -11.7240     9.1570 C.3        1 BB1          0.0000
    14 C14       -3.7926   -10.2306    11.1008 C.3        1 BB1          0.0000
    15 C15       -1.9021    -9.6985     9.5562 C.3        1 BB1          0.0000
    16 H16        0.6449   -14.4677     7.0001 H          1 BB1          0.0000
    17 H17        0.4976   -13.0339     8.0444 H          1 BB1          0.0000
    18 H18        1.9566   -14.0500     8.1285 H          1 BB1          0.0000
    19 H19       -0.8661   -14.8614     8.9573 H          1 BB1          0.0000
    20 H20        0.5465   -15.9444     8.9602 H          1 BB1          0.0000
    21 H21        1.5519   -13.8275    10.3721 H          1 BB1          0.0000
    22 H22        0.2162   -16.4299    11.0896 H          1 BB1          0.0000
    23 H23       -0.1779   -15.8011    13.3828 H          1 BB1          0.0000
    24 H24        0.9390   -14.3989    13.2788 H          1 BB1          0.0000
    25 H25       -1.8386   -14.7251    12.0171 H          1 BB1          0.0000
    26 H26       -1.1991   -13.3348    12.9461 H          1 BB1          0.0000
    27 H27       -3.8678   -12.5282     9.6360 H          1 BB1          0.0000
    28 H28       -3.9829   -11.1337     8.5359 H          1 BB1          0.0000
    29 H29       -2.5211   -12.1491     8.5357 H          1 BB1          0.0000
    30 H30       -3.3487    -9.5916    11.8642 H          1 BB1          0.0000
    31 H31       -4.4662    -9.6402    10.4797 H          1 BB1          0.0000
    32 H32       -4.3511   -11.0347    11.5798 H          1 BB1          0.0000
    33 H33       -1.1139   -10.1236     8.9349 H          1 BB1          0.0000
    34 H34       -2.5758    -9.1081     8.9352 H          1 BB1          0.0000
    35 H35       -1.4582    -9.0596    10.3197 H          1 BB1          0.0000
    36 H38        2.4527   -16.6301    10.9346 H          1 BB1          0.0000
    37 C1        -0.3936   -18.6582    15.3522 C.3        2 BB2          0.0000
    38 O2        -0.6853   -17.9828    14.1271 O.3        2 BB2          0.0000
    39 C3         0.4537   -17.7847    13.2872 C.3        2 BB2          0.0000
    40 C4         0.0186   -17.0963    11.9919 C.3        2 BB2          0.0000
    41 C5        -1.0036   -17.9737    11.2666 C.3        2 BB2          0.0000
    42 C6        -0.3713   -19.3275    10.9372 C.3        2 BB2          0.0000
    43 C7         0.0638   -20.0159    12.2324 C.3        2 BB2          0.0000
    44 C8         0.6962   -21.3695    11.9030 C.3        2 BB2          0.0000
    45 C9         1.0860   -19.1384    12.9578 C.3        2 BB2          0.0000
    46 C10        1.4605   -16.9205    14.0017 C.2        2 BB2          0.0000
    47 O12        1.1423   -15.8106    14.3934 O.2        2 BB2          0.0000
    48 H13        0.3304   -18.0776    15.9238 H          2 BB2          0.0000
    49 H14       -1.3095   -18.7697    15.9327 H          2 BB2          0.0000
    50 H15        0.0207   -19.6427    15.1346 H          2 BB2          0.0000
    51 H16       -0.4319   -16.1319    12.2266 H          2 BB2          0.0000
    52 H17        0.8874   -16.9452    11.3513 H          2 BB2          0.0000
    53 H18       -1.8723   -18.1249    11.9073 H          2 BB2          0.0000
    54 H19       -1.3135   -17.4833    10.3438 H          2 BB2          0.0000
    55 H20       -1.0995   -19.9525    10.4204 H          2 BB2          0.0000
    56 H21        0.4975   -19.1763    10.2964 H          2 BB2          0.0000
    57 H22       -0.8050   -20.1669    12.8731 H          2 BB2          0.0000
    58 H23        1.5649   -21.2185    11.2623 H          2 BB2          0.0000
    59 H24        1.0061   -21.8599    12.8259 H          2 BB2          0.0000
    60 H25       -0.0321   -21.9946    11.3862 H          2 BB2          0.0000
    61 H26        1.9548   -18.9873    12.3171 H          2 BB2          0.0000
    62 H27        1.3960   -19.6288    13.8806 H          2 BB2          0.0000
@<TRIPOS>BOND
     1      1      2 1
     2      1     16 1
     3      1     17 1
     4      1     18 1
     5      2      3 1
     6      2     19 1
     7      2     20 1
     8      3      4 1
     9      3      8 1
    10      3     21 1
    11      4      5 1
    12      4      6 1
    13      4     22 1
    14      5     36 1
    15      6      7 1
    16      6     23 1
    17      6     24 1
    18      7      8 1
    19      7     25 1
    20      7     26 1
    21      8      9 am
    22      9     10 2
    23      9     11 1
    24     11     12 1
    25     12     13 1
    26     12     14 1
    27     12     15 1
    28     13     27 1
    29     13     28 1
    30     13     29 1
    31     14     30 1
    32     14     31 1
    33     14     32 1
    34     15     33 1
    35     15     34 1
    36     15     35 1
    37     37     38 1
    38     37     48 1
    39     37     49 1
    40     37     50 1
    41     38     39 1
    42     39     40 1
    43     39     45 1
    44     39     46 1
    45     40     41 1
    46     40     51 1
    47     40     52 1
    48     41     42 1
    49     41     53 1
    50     41     54 1
    51     42     43 1
    52     42     55 1
    53     42     56 1
    54     43     44 1
    55     43     45 1
    56     43     57 1
    57     44     58 1
    58     44     59 1
    59     44     60 1
    60     45     61 1
    61     45     62 1
    62     46     47 2
    63      5     46 am
@<TRIPOS>SUBSTRUCTURE
     1 BB1           5
     2 BB2          46
@<TRIPOS>MOLECULE
EN300-312564_i001_EN300-701715_i002_7_3_1
  62   63   2   0   0
SMALL
USER_CHARGES
@<TRIPOS>ATOM
     1 C1         0.8765   -14.0539     7.9815 C.3        1 BB1          0.0000
     2 C2         0.2175   -14.9105     9.0645 C.3        1 BB1          0.0000
     3 C3         0.6179   -14.3847    10.4445 C.3        1 BB1          0.0000
     4 C4         0.7845   -15.5630    11.4270 C.3        1 BB1          0.0000
     5 N5         2.2033   -15.9060    11.5915 N.am       1 BB1          0.0000
     6 C6         0.1993   -14.9989    12.7486 C.3        1 BB1          0.0000
     7 C7        -0.9594   -14.1149    12.2234 C.3        1 BB1          0.0000
     8 N8        -0.4444   -13.5190    10.9771 N.am       1 BB1          0.0000
     9 C9        -0.8757   -12.3706    10.4188 C.2        1 BB1          0.0000
    10 O10       -0.4403   -12.0184     9.3405 O.2        1 BB1          0.0000
    11 O11       -1.7888   -11.6137    11.0560 O.3        1 BB1          0.0000
    12 C12       -2.6862   -10.8272    10.2286 C.3        1 BB1          0.0000
    13 C13       -3.3093   -11.7240     9.1570 C.3        1 BB1          0.0000
    14 C14       -3.7926   -10.2306    11.1008 C.3        1 BB1          0.0000
    15 C15       -1.9021    -9.6985     9.5562 C.3        1 BB1          0.0000
    16 H16        0.6449   -14.4677     7.0001 H          1 BB1          0.0000
    17 H17        0.4976   -13.0339     8.0444 H          1 BB1          0.0000
    18 H18        1.9566   -14.0500     8.1285 H          1 BB1          0.0000
    19 H19       -0.8661   -14.8614     8.9573 H          1 BB1          0.0000
    20 H20        0.5465   -15.9444     8.9602 H          1 BB1          0.0000
    21 H21        1.5519   -13.8275    10.3721 H          1 BB1          0.0000
    22 H22        0.2162   -16.4299    11.0896 H          1 BB1          0.0000
    23 H23       -0.1779   -15.8011    13.3828 H          1 BB1          0.0000
    24 H24        0.9390   -14.3989    13.2788 H          1 BB1          0.0000
    25 H25       -1.8386   -14.7251    12.0171 H          1 BB1          0.0000
    26 H26       -1.1991   -13.3348    12.9461 H          1 BB1          0.0000
    27 H27       -3.8678   -12.5282     9.6360 H          1 BB1          0.0000
    28 H28       -3.9829   -11.1337     8.5359 H          1 BB1          0.0000
    29 H29       -2.5211   -12.1491     8.5357 H          1 BB1          0.0000
    30 H30       -3.3487    -9.5916    11.8642 H          1 BB1          0.0000
    31 H31       -4.4662    -9.6402    10.4797 H          1 BB1          0.0000
    32 H32       -4.3511   -11.0347    11.5798 H          1 BB1          0.0000
    33 H33       -1.1139   -10.1236     8.9349 H          1 BB1          0.0000
    34 H34       -2.5758    -9.1081     8.9352 H          1 BB1          0.0000
    35 H35       -1.4582    -9.0596    10.3197 H          1 BB1          0.0000
    36 H38        2.4527   -16.6301    10.9346 H          1 BB1          0.0000
    37 C1        -0.6989   -17.7193    11.7099 C.3        2 BB2          0.0000
    38 O2        -0.6901   -18.1381    13.0761 O.3        2 BB2          0.0000
    39 C3         0.5888   -18.0398    13.7059 C.3        2 BB2          0.0000
    40 C4         1.6206   -18.8209    12.8898 C.3        2 BB2          0.0000
    41 C5         1.2023   -20.2905    12.8116 C.3        2 BB2          0.0000
    42 C6         1.1215   -20.8737    14.2237 C.3        2 BB2          0.0000
    43 C7         0.0897   -20.0925    15.0399 C.3        2 BB2          0.0000
    44 C8         0.0090   -20.6757    16.4520 C.3        2 BB2          0.0000
    45 C9         0.5080   -18.6229    15.1181 C.3        2 BB2          0.0000
    46 C10        1.0009   -16.5922    13.7830 C.2        2 BB2          0.0000
    47 O11        0.3347   -15.8023    14.4301 O.2        2 BB2          0.0000
    48 H13       -0.0093   -18.3381    11.1357 H          2 BB2          0.0000
    49 H14       -1.7051   -17.8242    11.3041 H          2 BB2          0.0000
    50 H15       -0.3890   -16.6761    11.6476 H          2 BB2          0.0000
    51 H16        1.6782   -18.4055    11.8837 H          2 BB2          0.0000
    52 H17        2.5961   -18.7459    13.3702 H          2 BB2          0.0000
    53 H18        0.2267   -20.3655    12.3312 H          2 BB2          0.0000
    54 H19        1.9373   -20.8471    12.2301 H          2 BB2          0.0000
    55 H20        0.8234   -21.9206    14.1680 H          2 BB2          0.0000
    56 H21        2.0971   -20.7987    14.7041 H          2 BB2          0.0000
    57 H22       -0.8858   -20.1675    14.5594 H          2 BB2          0.0000
    58 H23        0.9845   -20.6007    16.9325 H          2 BB2          0.0000
    59 H24       -0.7262   -20.1191    17.0335 H          2 BB2          0.0000
    60 H25       -0.2891   -21.7227    16.3963 H          2 BB2          0.0000
    61 H26        1.4836   -18.5479    15.5985 H          2 BB2          0.0000
    62 H27       -0.2270   -18.0663    15.6996 H          2 BB2          0.0000
@<TRIPOS>BOND
     1      1      2 1
     2      1     16 1
     3      1     17 1
     4      1     18 1
     5      2      3 1
     6      2     19 1
     7      2     20 1
     8      3      4 1
     9      3      8 1
    10      3     21 1
    11      4      5 1
    12      4      6 1
    13      4     22 1
    14      5     36 1
    15      6      7 1
    16      6     23 1
    17      6     24 1
    18      7      8 1
    19      7     25 1
    20      7     26 1
    21      8      9 am
    22      9     10 2
    23      9     11 1
    24     11     12 1
    25     12     13 1
    26     12     14 1
    27     12     15 1
    28     13     27 1
    29     13     28 1
    30     13     29 1
    31     14     30 1
    32     14     31 1
    33     14     32 1
    34     15     33 1
    35     15     34 1
    36     15     35 1
    37     37     38 1
    38     37     48 1
    39     37     49 1
    40     37     50 1
    41     38     39 1
    42     39     40 1
    43     39     45 1
    44     39     46 1
    45     40     41 1
    46     40     51 1
    47     40     52 1
    48     41     42 1
    49     41     53 1
    50     41     54 1
    51     42     43 1
    52     42     55 1
    53     42     56 1
    54     43     44 1
    55     43     45 1
    56     43     57 1
    57     44     58 1
    58     44     59 1
    59     44     60 1
    60     45     61 1
    61     45     62 1
    62     46     47 2
    63      5     46 am
@<TRIPOS>SUBSTRUCTURE
     1 BB1           5
     2 BB2          46
@<TRIPOS>MOLECULE
EN300-312564_i001_EN300-222254_i002_8_4_1
  59   61   2   0   0
SMALL
USER_CHARGES
@<TRIPOS>ATOM
     1 C1         1.3550   -17.1043    14.9974 C.3        1 BB1          0.0000
     2 C2         2.4112   -17.2432    13.8993 C.3        1 BB1          0.0000
     3 C3         1.7537   -17.0474    12.5316 C.3        1 BB1          0.0000
     4 C4         1.7965   -15.5560    12.1374 C.3        1 BB1          0.0000
     5 N5         2.8950   -15.2984    11.1967 N.am       1 BB1          0.0000
     6 C6         0.4227   -15.3388    11.4498 C.3        1 BB1          0.0000
     7 C7        -0.4942   -16.2649    12.2873 C.3        1 BB1          0.0000
     8 N8         0.3387   -17.4415    12.5961 N.am       1 BB1          0.0000
     9 C9        -0.1208   -18.6742    12.8887 C.2        1 BB1          0.0000
    10 O10       -1.3112   -18.9097    12.8258 O.2        1 BB1          0.0000
    11 O11        0.7392   -19.6448    13.2509 O.3        1 BB1          0.0000
    12 C12        0.2571   -21.0127    13.1801 C.3        1 BB1          0.0000
    13 C13        1.4158   -21.9761    13.4451 C.3        1 BB1          0.0000
    14 C14       -0.8329   -21.2243    14.2327 C.3        1 BB1          0.0000
    15 C15       -0.3194   -21.2789    11.7881 C.3        1 BB1          0.0000
    16 H16        1.8097   -17.3084    15.9667 H          1 BB1          0.0000
    17 H17        0.9545   -16.0906    14.9903 H          1 BB1          0.0000
    18 H18        0.5482   -17.8149    14.8176 H          1 BB1          0.0000
    19 H19        3.1849   -16.4887    14.0417 H          1 BB1          0.0000
    20 H20        2.8583   -18.2359    13.9487 H          1 BB1          0.0000
    21 H21        2.2732   -17.6441    11.7819 H          1 BB1          0.0000
    22 H22        1.8921   -14.9259    13.0217 H          1 BB1          0.0000
    23 H23        0.1057   -14.2990    11.5300 H          1 BB1          0.0000
    24 H24        0.4526   -15.6572    10.4077 H          1 BB1          0.0000
    25 H25       -0.8005   -15.7652    13.2062 H          1 BB1          0.0000
    26 H26       -1.3676   -16.5605    11.7059 H          1 BB1          0.0000
    27 H27        1.8266   -21.7864    14.4367 H          1 BB1          0.0000
    28 H28        1.0540   -23.0028    13.3920 H          1 BB1          0.0000
    29 H29        2.1924   -21.8253    12.6952 H          1 BB1          0.0000
    30 H30       -1.6584   -20.5380    14.0439 H          1 BB1          0.0000
    31 H31       -1.1948   -22.2511    14.1795 H          1 BB1          0.0000
    32 H32       -0.4222   -21.0346    15.2243 H          1 BB1          0.0000
    33 H33        0.4572   -21.1280    11.0383 H          1 BB1          0.0000
    34 H34       -0.6812   -22.3057    11.7351 H          1 BB1          0.0000
    35 H35       -1.1449   -20.5925    11.5994 H          1 BB1          0.0000
    36 H38        2.8121   -14.3617    10.8310 H          1 BB1          0.0000
    37 C2         0.8004   -14.8911    10.7774 C.2        2 BB2          0.0000
    38 O3         0.0117   -15.5813    11.4007 O.2        2 BB2          0.0000
    39 C4         0.3644   -14.2102     9.5059 C.3        2 BB2          0.0000
    40 C5         1.4242   -14.2481     8.3921 C.3        2 BB2          0.0000
    41 C6         1.0198   -12.8008     8.0660 C.3        2 BB2          0.0000
    42 C7         0.5555   -12.6843     9.5274 C.3        2 BB2          0.0000
    43 C8        -0.7309   -11.9171     9.6928 C.ar       2 BB2          0.0000
    44 C9        -1.9103   -12.4281     9.1855 C.ar       2 BB2          0.0000
    45 C10       -3.0908   -11.7247     9.3363 C.ar       2 BB2          0.0000
    46 C11       -3.0929   -10.5086     9.9959 C.ar       2 BB2          0.0000
    47 Cl12      -4.5761    -9.6265    10.1853 Cl         2 BB2          0.0000
    48 C13       -1.9132    -9.9958    10.5049 C.ar       2 BB2          0.0000
    49 C14       -0.7321   -10.7026    10.3583 C.ar       2 BB2          0.0000
    50 F15        0.4206   -10.2031    10.8554 F          2 BB2          0.0000
    51 H16       -0.6264   -14.5228     9.1765 H          2 BB2          0.0000
    52 H17        2.4446   -14.3433     8.7634 H          2 BB2          0.0000
    53 H18        1.1950   -14.9556     7.5952 H          2 BB2          0.0000
    54 H19        1.8642   -12.1556     7.8234 H          2 BB2          0.0000
    55 H20        0.2078   -12.7268     7.3427 H          2 BB2          0.0000
    56 H21        1.3384   -12.3520    10.2091 H          2 BB2          0.0000
    57 H22       -1.9097   -13.3774     8.6703 H          2 BB2          0.0000
    58 H23       -4.0119   -12.1247     8.9388 H          2 BB2          0.0000
    59 H24       -1.9145    -9.0466    11.0198 H          2 BB2          0.0000
@<TRIPOS>BOND
     1      1      2 1
     2      1     16 1
     3      1     17 1
     4      1     18 1
     5      2      3 1
     6      2     19 1
     7      2     20 1
     8      3      4 1
     9      3      8 1
    10      3     21 1
    11      4      5 1
    12      4      6 1
    13      4     22 1
    14      5     36 1
    15      6      7 1
    16      6     23 1
    17      6     24 1
    18      7      8 1
    19      7     25 1
    20      7     26 1
    21      8      9 am
    22      9     10 2
    23      9     11 1
    24     11     12 1
    25     12     13 1
    26     12     14 1
    27     12     15 1
    28     13     27 1
    29     13     28 1
    30     13     29 1
    31     14     30 1
    32     14     31 1
    33     14     32 1
    34     15     33 1
    35     15     34 1
    36     15     35 1
    37     37     38 2
    38     37     39 1
    39     39     40 1
    40     39     42 1
    41     39     51 1
    42     40     41 1
    43     40     52 1
    44     40     53 1
    45     41     42 1
    46     41     54 1
    47     41     55 1
    48     42     43 1
    49     42     56 1
    50     43     44 ar
    51     43     49 ar
    52     44     45 ar
    53     44     57 1
    54     45     46 ar
    55     45     58 1
    56     46     47 1
    57     46     48 ar
    58     48     49 ar
    59     48     59 1
    60     49     50 1
    61      5     37 am
@<TRIPOS>SUBSTRUCTURE
     1 BB1           5
     2 BB2          37
@<TRIPOS>MOLECULE
EN300-312564_i001_EN300-306118_i001_8_10_1
  58   60   2   0   0
SMALL
USER_CHARGES
@<TRIPOS>ATOM
     1 C1         1.3550   -17.1043    14.9974 C.3        1 BB1          0.0000
     2 C2         2.4112   -17.2432    13.8993 C.3        1 BB1          0.0000
     3 C3         1.7537   -17.0474    12.5316 C.3        1 BB1          0.0000
     4 C4         1.7965   -15.5560    12.1374 C.3        1 BB1          0.0000
     5 N5         2.8950   -15.2984    11.1967 N.am       1 BB1          0.0000
     6 C6         0.4227   -15.3388    11.4498 C.3        1 BB1          0.0000
     7 C7        -0.4942   -16.2649    12.2873 C.3        1 BB1          0.0000
     8 N8         0.3387   -17.4415    12.5961 N.am       1 BB1          0.0000
     9 C9        -0.1208   -18.6742    12.8887 C.2        1 BB1          0.0000
    10 O10       -1.3112   -18.9097    12.8258 O.2        1 BB1          0.0000
    11 O11        0.7392   -19.6448    13.2509 O.3        1 BB1          0.0000
    12 C12        0.2571   -21.0127    13.1801 C.3        1 BB1          0.0000
    13 C13        1.4158   -21.9761    13.4451 C.3        1 BB1          0.0000
    14 C14       -0.8329   -21.2243    14.2327 C.3        1 BB1          0.0000
    15 C15       -0.3194   -21.2789    11.7881 C.3        1 BB1          0.0000
    16 H16        1.8097   -17.3084    15.9667 H          1 BB1          0.0000
    17 H17        0.9545   -16.0906    14.9903 H          1 BB1          0.0000
    18 H18        0.5482   -17.8149    14.8176 H          1 BB1          0.0000
    19 H19        3.1849   -16.4887    14.0417 H          1 BB1          0.0000
    20 H20        2.8583   -18.2359    13.9487 H          1 BB1          0.0000
    21 H21        2.2732   -17.6441    11.7819 H          1 BB1          0.0000
    22 H22        1.8921   -14.9259    13.0217 H          1 BB1          0.0000
    23 H23        0.1057   -14.2990    11.5300 H          1 BB1          0.0000
    24 H24        0.4526   -15.6572    10.4077 H          1 BB1          0.0000
    25 H25       -0.8005   -15.7652    13.2062 H          1 BB1          0.0000
    26 H26       -1.3676   -16.5605    11.7059 H          1 BB1          0.0000
    27 H27        1.8266   -21.7864    14.4367 H          1 BB1          0.0000
    28 H28        1.0540   -23.0028    13.3920 H          1 BB1          0.0000
    29 H29        2.1924   -21.8253    12.6952 H          1 BB1          0.0000
    30 H30       -1.6584   -20.5380    14.0439 H          1 BB1          0.0000
    31 H31       -1.1948   -22.2511    14.1795 H          1 BB1          0.0000
    32 H32       -0.4222   -21.0346    15.2243 H          1 BB1          0.0000
    33 H33        0.4572   -21.1280    11.0383 H          1 BB1          0.0000
    34 H34       -0.6812   -22.3057    11.7351 H          1 BB1          0.0000
    35 H35       -1.1449   -20.5925    11.5994 H          1 BB1          0.0000
    36 H37        2.8498   -15.9612    10.4372 H          1 BB1          0.0000
    37 O1        -0.6922   -13.8017    11.4451 O.2        2 BB2          0.0000
    38 C2         0.1195   -14.4038    10.7566 C.2        2 BB2          0.0000
    39 C4         0.4114   -13.9416     9.3863 C.ar       2 BB2          0.0000
    40 C5         0.5717   -14.8674     8.3525 C.ar       2 BB2          0.0000
    41 C6         0.8445   -14.4280     7.0737 C.ar       2 BB2          0.0000
    42 C7         0.9599   -13.0739     6.8139 C.ar       2 BB2          0.0000
    43 C8         0.8024   -12.1509     7.8331 C.ar       2 BB2          0.0000
    44 C9         0.5231   -12.5754     9.1151 C.ar       2 BB2          0.0000
    45 C10        0.3514   -11.5687    10.2234 C.3        2 BB2          0.0000
    46 N11       -1.0436   -11.1231    10.2665 N.pl3      2 BB2          0.0000
    47 C12       -1.4690    -9.8410    10.1885 C.2        2 BB2          0.0000
    48 C13       -2.8194    -9.8863    10.2682 C.2        2 BB2          0.0000
    49 N14       -3.1497   -11.1769    10.3896 N.2        2 BB2          0.0000
    50 N15       -2.0753   -11.8843    10.3797 N.2        2 BB2          0.0000
    51 H16        0.4826   -15.9247     8.5541 H          2 BB2          0.0000
    52 H17        0.9688   -15.1425     6.2735 H          2 BB2          0.0000
    53 H18        1.1744   -12.7356     5.8108 H          2 BB2          0.0000
    54 H19        0.8941   -11.0955     7.6231 H          2 BB2          0.0000
    55 H20        0.6156   -12.0283    11.1758 H          2 BB2          0.0000
    56 H21        1.0008   -10.7127    10.0405 H          2 BB2          0.0000
    57 H22       -0.8546    -8.9590    10.0839 H          2 BB2          0.0000
    58 H23       -3.4970    -9.0458    10.2398 H          2 BB2          0.0000
@<TRIPOS>BOND
     1      1      2 1
     2      1     16 1
     3      1     17 1
     4      1     18 1
     5      2      3 1
     6      2     19 1
     7      2     20 1
     8      3      4 1
     9      3      8 1
    10      3     21 1
    11      4      5 1
    12      4      6 1
    13      4     22 1
    14      5     36 1
    15      6      7 1
    16      6     23 1
    17      6     24 1
    18      7      8 1
    19      7     25 1
    20      7     26 1
    21      8      9 am
    22      9     10 2
    23      9     11 1
    24     11     12 1
    25     12     13 1
    26     12     14 1
    27     12     15 1
    28     13     27 1
    29     13     28 1
    30     13     29 1
    31     14     30 1
    32     14     31 1
    33     14     32 1
    34     15     33 1
    35     15     34 1
    36     15     35 1
    37     37     38 2
    38     38     39 1
    39     39     40 ar
    40     39     44 ar
    41     40     41 ar
    42     40     51 1
    43     41     42 ar
    44     41     52 1
    45     42     43 ar
    46     42     53 1
    47     43     44 ar
    48     43     54 1
    49     44     45 1
    50     45     46 1
    51     45     55 1
    52     45     56 1
    53     46     47 1
    54     46     50 1
    55     47     48 2
    56     47     57 1
    57     48     49 1
    58     48     58 1
    59     49     50 2
    60      5     38 am
@<TRIPOS>SUBSTRUCTURE
     1 BB1           5
     2 BB2          38
@<TRIPOS>MOLECULE
EN300-312564_i001_EN300-344045_i001_8_3_1
  65   67   2   0   0
SMALL
USER_CHARGES
@<TRIPOS>ATOM
     1 C1         1.3550   -17.1043    14.9974 C.3        1 BB1          0.0000
     2 C2         2.4112   -17.2432    13.8993 C.3        1 BB1          0.0000
     3 C3         1.7537   -17.0474    12.5316 C.3        1 BB1          0.0000
     4 C4         1.7965   -15.5560    12.1374 C.3        1 BB1          0.0000
     5 N5         2.8950   -15.2984    11.1967 N.am       1 BB1          0.0000
     6 C6         0.4227   -15.3388    11.4498 C.3        1 BB1          0.0000
     7 C7        -0.4942   -16.2649    12.2873 C.3        1 BB1          0.0000
     8 N8         0.3387   -17.4415    12.5961 N.am       1 BB1          0.0000
     9 C9        -0.1208   -18.6742    12.8887 C.2        1 BB1          0.0000
    10 O10       -1.3112   -18.9097    12.8258 O.2        1 BB1          0.0000
    11 O11        0.7392   -19.6448    13.2509 O.3        1 BB1          0.0000
    12 C12        0.2571   -21.0127    13.1801 C.3        1 BB1          0.0000
    13 C13        1.4158   -21.9761    13.4451 C.3        1 BB1          0.0000
    14 C14       -0.8329   -21.2243    14.2327 C.3        1 BB1          0.0000
    15 C15       -0.3194   -21.2789    11.7881 C.3        1 BB1          0.0000
    16 H16        1.8097   -17.3084    15.9667 H          1 BB1          0.0000
    17 H17        0.9545   -16.0906    14.9903 H          1 BB1          0.0000
    18 H18        0.5482   -17.8149    14.8176 H          1 BB1          0.0000
    19 H19        3.1849   -16.4887    14.0417 H          1 BB1          0.0000
    20 H20        2.8583   -18.2359    13.9487 H          1 BB1          0.0000
    21 H21        2.2732   -17.6441    11.7819 H          1 BB1          0.0000
    22 H22        1.8921   -14.9259    13.0217 H          1 BB1          0.0000
    23 H23        0.1057   -14.2990    11.5300 H          1 BB1          0.0000
    24 H24        0.4526   -15.6572    10.4077 H          1 BB1          0.0000
    25 H25       -0.8005   -15.7652    13.2062 H          1 BB1          0.0000
    26 H26       -1.3676   -16.5605    11.7059 H          1 BB1          0.0000
    27 H27        1.8266   -21.7864    14.4367 H          1 BB1          0.0000
    28 H28        1.0540   -23.0028    13.3920 H          1 BB1          0.0000
    29 H29        2.1924   -21.8253    12.6952 H          1 BB1          0.0000
    30 H30       -1.6584   -20.5380    14.0439 H          1 BB1          0.0000
    31 H31       -1.1948   -22.2511    14.1795 H          1 BB1          0.0000
    32 H32       -0.4222   -21.0346    15.2243 H          1 BB1          0.0000
    33 H33        0.4572   -21.1280    11.0383 H          1 BB1          0.0000
    34 H34       -0.6812   -22.3057    11.7351 H          1 BB1          0.0000
    35 H35       -1.1449   -20.5925    11.5994 H          1 BB1          0.0000
    36 H36        3.7778   -15.3956    11.6758 H          1 BB1          0.0000
    37 C2         0.5459   -14.5453    10.1019 C.2        2 BB2          0.0000
    38 O3         0.1752   -15.4776     9.4091 O.2        2 BB2          0.0000
    39 C4        -0.4230   -13.4540    10.4780 C.3        2 BB2          0.0000
    40 C5        -0.6345   -12.5251     9.2809 C.3        2 BB2          0.0000
    41 C6         0.6374   -11.6890     9.0294 C.3        2 BB2          0.0000
    42 C7         1.4011   -12.4785     7.9373 C.3        2 BB2          0.0000
    43 C8         0.2593   -12.9923     7.0255 C.3        2 BB2          0.0000
    44 C9        -0.8749   -13.3536     8.0068 C.3        2 BB2          0.0000
    45 C10       -1.8085   -11.6149     9.5352 C.ar       2 BB2          0.0000
    46 C11       -3.0826   -12.1418     9.6348 C.ar       2 BB2          0.0000
    47 C12       -4.1594   -11.3070     9.8680 C.ar       2 BB2          0.0000
    48 C13       -3.9620    -9.9453    10.0023 C.ar       2 BB2          0.0000
    49 C14       -2.6878    -9.4186     9.9036 C.ar       2 BB2          0.0000
    50 C15       -1.6104   -10.2540     9.6747 C.ar       2 BB2          0.0000
    51 H16       -1.3759   -13.8977    10.7665 H          2 BB2          0.0000
    52 H17       -0.0201   -12.8827    11.3144 H          2 BB2          0.0000
    53 H18        0.3751   -10.6947     8.6682 H          2 BB2          0.0000
    54 H19        1.2348   -11.6204     9.9386 H          2 BB2          0.0000
    55 H20        2.0718   -11.8214     7.3835 H          2 BB2          0.0000
    56 H21        1.9500   -13.3119     8.3758 H          2 BB2          0.0000
    57 H22       -0.0641   -12.2083     6.3407 H          2 BB2          0.0000
    58 H23        0.5807   -13.8747     6.4723 H          2 BB2          0.0000
    59 H24       -0.8408   -14.4175     8.2413 H          2 BB2          0.0000
    60 H25       -1.8409   -13.0975     7.5716 H          2 BB2          0.0000
    61 H26       -3.2369   -13.2055     9.5299 H          2 BB2          0.0000
    62 H27       -5.1549   -11.7185     9.9450 H          2 BB2          0.0000
    63 H28       -4.8033    -9.2931    10.1838 H          2 BB2          0.0000
    64 H29       -2.5335    -8.3548    10.0082 H          2 BB2          0.0000
    65 H30       -0.6148    -9.8425     9.5976 H          2 BB2          0.0000
@<TRIPOS>BOND
     1      1      2 1
     2      1     16 1
     3      1     17 1
     4      1     18 1
     5      2      3 1
     6      2     19 1
     7      2     20 1
     8      3      4 1
     9      3      8 1
    10      3     21 1
    11      4      5 1
    12      4      6 1
    13      4     22 1
    14      5     36 1
    15      6      7 1
    16      6     23 1
    17      6     24 1
    18      7      8 1
    19      7     25 1
    20      7     26 1
    21      8      9 am
    22      9     10 2
    23      9     11 1
    24     11     12 1
    25     12     13 1
    26     12     14 1
    27     12     15 1
    28     13     27 1
    29     13     28 1
    30     13     29 1
    31     14     30 1
    32     14     31 1
    33     14     32 1
    34     15     33 1
    35     15     34 1
    36     15     35 1
    37     37     38 2
    38     37     39 1
    39     39     40 1
    40     39     51 1
    41     39     52 1
    42     40     41 1
    43     40     44 1
    44     40     45 1
    45     41     42 1
    46     41     53 1
    47     41     54 1
    48     42     43 1
    49     42     55 1
    50     42     56 1
    51     43     44 1
    52     43     57 1
    53     43     58 1
    54     44     59 1
    55     44     60 1
    56     45     46 ar
    57     45     50 ar
    58     46     47 ar
    59     46     61 1
    60     47     48 ar
    61     47     62 1
    62     48     49 ar
    63     48     63 1
    64     49     50 ar
    65     49     64 1
    66     50     65 1
    67      5     37 am
@<TRIPOS>SUBSTRUCTURE
     1 BB1           5
     2 BB2          37
@<TRIPOS>MOLECULE
EN300-843819_i001_EN300-34862_i002_1_10_1
  52   54   2   0   0
SMALL
USER_CHARGES
@<TRIPOS>ATOM
     1 C1        -1.2214    -9.8781    11.2435 C.3        1 BB1          0.0000
     2 C2        -2.1416   -10.7651    10.4024 C.3        1 BB1          0.0000
     3 C3        -3.5980   -10.5006    10.7890 C.3        1 BB1          0.0000
     4 C4        -1.9416   -10.4460     8.9194 C.3        1 BB1          0.0000
     5 O5        -1.8224   -12.1608    10.6445 O.3        1 BB1          0.0000
     6 C6        -0.5442   -12.5391    10.4474 C.2        1 BB1          0.0000
     7 O7         0.2354   -11.7843     9.9005 O.2        1 BB1          0.0000
     8 C8        -0.0917   -13.8684    10.8953 C.2        1 BB1          0.0000
     9 C9        -0.7004   -14.6423    11.8430 C.2        1 BB1          0.0000
    10 N10        0.0274   -15.7713    11.9515 N.pl3      1 BB1          0.0000
    11 N11        1.0905   -15.6577    11.0445 N.2        1 BB1          0.0000
    12 N12        0.9863   -14.5275    10.4363 N.2        1 BB1          0.0000
    13 C13       -0.2404   -16.9004    12.8458 C.3        1 BB1          0.0000
    14 C14       -0.1258   -16.4379    14.2996 C.3        1 BB1          0.0000
    15 C15        1.2863   -15.9077    14.5564 C.3        1 BB1          0.0000
    16 C16        2.3041   -17.0194    14.2932 C.3        1 BB1          0.0000
    17 C17        2.1895   -17.4819    12.8394 C.3        1 BB1          0.0000
    18 C18        0.7774   -18.0121    12.5826 C.3        1 BB1          0.0000
    19 N19        0.6675   -18.4563    11.1866 N.am       1 BB1          0.0000
    20 H20       -1.3638   -10.1055    12.3000 H          1 BB1          0.0000
    21 H21       -0.1838   -10.0666    10.9679 H          1 BB1          0.0000
    22 H22       -1.4610    -8.8304    11.0617 H          1 BB1          0.0000
    23 H23       -3.8377    -9.4528    10.6074 H          1 BB1          0.0000
    24 H24       -4.2537   -11.1325    10.1898 H          1 BB1          0.0000
    25 H25       -3.7405   -10.7279    11.8455 H          1 BB1          0.0000
    26 H26       -0.9040   -10.6345     8.6439 H          1 BB1          0.0000
    27 H27       -2.5972   -11.0779     8.3201 H          1 BB1          0.0000
    28 H28       -2.1812    -9.3983     8.7377 H          1 BB1          0.0000
    29 H29       -1.5931   -14.3960    12.3989 H          1 BB1          0.0000
    30 H30       -1.2463   -17.2782    12.6628 H          1 BB1          0.0000
    31 H31       -0.8509   -15.6459    14.4872 H          1 BB1          0.0000
    32 H32       -0.3251   -17.2779    14.9650 H          1 BB1          0.0000
    33 H33        1.4855   -15.0677    13.8911 H          1 BB1          0.0000
    34 H34        1.3679   -15.5781    15.5922 H          1 BB1          0.0000
    35 H35        3.3100   -16.6416    14.4761 H          1 BB1          0.0000
    36 H36        2.1048   -17.8594    14.9586 H          1 BB1          0.0000
    37 H37        2.3888   -16.6418    12.1740 H          1 BB1          0.0000
    38 H38        2.9146   -18.2738    12.6518 H          1 BB1          0.0000
    39 H39        0.5782   -18.8522    13.2478 H          1 BB1          0.0000
    40 H42        1.5176   -18.2283    10.6932 H          1 BB1          0.0000
    41 O1        -1.0375   -18.9513    12.4219 O.2        2 BB2          0.0000
    42 C2        -0.3489   -19.7996    11.8809 C.2        2 BB2          0.0000
    43 C4        -0.1440   -21.1381    12.5424 C.3        2 BB2          0.0000
    44 C5        -0.9105   -21.1624    13.8712 C.3        2 BB2          0.0000
    45 S6        -2.0718   -22.5518    13.6823 S.3        2 BB2          0.0000
    46 C7        -1.5627   -22.9965    12.0496 C.2        2 BB2          0.0000
    47 O8        -2.0284   -23.9088    11.3941 O.2        2 BB2          0.0000
    48 N9        -0.5927   -22.1803    11.6470 N.am       2 BB2          0.0000
    49 H10        0.9186   -21.2765    12.7422 H          2 BB2          0.0000
    50 H11       -0.2290   -21.3438    14.7024 H          2 BB2          0.0000
    51 H12       -1.4526   -20.2281    14.0170 H          2 BB2          0.0000
    52 H13       -0.1942   -22.2823    10.7686 H          2 BB2          0.0000
@<TRIPOS>BOND
     1      1      2 1
     2      1     20 1
     3      1     21 1
     4      1     22 1
     5      2      3 1
     6      2      4 1
     7      2      5 1
     8      3     23 1
     9      3     24 1
    10      3     25 1
    11      4     26 1
    12      4     27 1
    13      4     28 1
    14      5      6 1
    15      6      7 2
    16      6      8 1
    17      8      9 2
    18      8     12 1
    19      9     10 1
    20      9     29 1
    21     10     11 1
    22     10     13 1
    23     11     12 2
    24     13     14 1
    25     13     18 1
    26     13     30 1
    27     14     15 1
    28     14     31 1
    29     14     32 1
    30     15     16 1
    31     15     33 1
    32     15     34 1
    33     16     17 1
    34     16     35 1
    35     16     36 1
    36     17     18 1
    37     17     37 1
    38     17     38 1
    39     18     19 1
    40     18     39 1
    41     19     40 1
    42     41     42 2
    43     42     43 1
    44     43     44 1
    45     43     48 1
    46     43     49 1
    47     44     45 1
    48     44     50 1
    49     44     51 1
    50     45     46 1
    51     46     47 2
    52     46     48 am
    53     48     52 1
    54     19     42 am
@<TRIPOS>SUBSTRUCTURE
     1 BB1          19
     2 BB2          42
@<TRIPOS>MOLECULE
EN300-843819_i001_EN300-34862_i002_13_10_1
  52   54   2   0   0
SMALL
USER_CHARGES
@<TRIPOS>ATOM
     1 C1        -1.9018   -11.5999     9.1898 C.3        1 BB1          0.0000
     2 C2        -1.4902   -11.3554    10.6430 C.3        1 BB1          0.0000
     3 C3        -0.3408   -10.3465    10.6847 C.3        1 BB1          0.0000
     4 C4        -2.6833   -10.8019    11.4248 C.3        1 BB1          0.0000
     5 O5        -1.0581   -12.6062    11.2406 O.3        1 BB1          0.0000
     6 C6        -0.1761   -13.3462    10.5405 C.2        1 BB1          0.0000
     7 O7         0.5203   -12.8217     9.6940 O.2        1 BB1          0.0000
     8 C8        -0.0561   -14.7919    10.8013 C.2        1 BB1          0.0000
     9 C9        -0.2528   -15.4054    12.0065 C.2        1 BB1          0.0000
    10 N10       -0.0466   -16.7230    11.8121 N.pl3      1 BB1          0.0000
    11 N11        0.2795   -16.8875    10.4585 N.2        1 BB1          0.0000
    12 N12        0.2596   -15.7310     9.8926 N.2        1 BB1          0.0000
    13 C13       -0.1439   -17.7804    12.8214 C.3        1 BB1          0.0000
    14 C14       -0.0800   -17.1595    14.2183 C.3        1 BB1          0.0000
    15 C15        1.2464   -16.4154    14.3855 C.3        1 BB1          0.0000
    16 C16        2.4073   -17.3964    14.2100 C.3        1 BB1          0.0000
    17 C17        2.3434   -18.0173    12.8131 C.3        1 BB1          0.0000
    18 C18        1.0170   -18.7615    12.6459 C.3        1 BB1          0.0000
    19 N19        0.9558   -19.3576    11.3046 N.am       1 BB1          0.0000
    20 H20       -1.0518   -11.9941     8.6328 H          1 BB1          0.0000
    21 H21       -2.7207   -12.3186     9.1601 H          1 BB1          0.0000
    22 H22       -2.2262   -10.6609     8.7412 H          1 BB1          0.0000
    23 H23       -0.6651    -9.4075    10.2360 H          1 BB1          0.0000
    24 H24       -0.0475   -10.1723    11.7200 H          1 BB1          0.0000
    25 H25        0.5092   -10.7408    10.1277 H          1 BB1          0.0000
    26 H26       -3.5021   -11.5207    11.3951 H          1 BB1          0.0000
    27 H27       -2.3900   -10.6278    12.4601 H          1 BB1          0.0000
    28 H28       -3.0076    -9.8630    10.9761 H          1 BB1          0.0000
    29 H29       -0.5214   -14.9263    12.9365 H          1 BB1          0.0000
    30 H30       -1.0887   -18.3106    12.7023 H          1 BB1          0.0000
    31 H31       -0.9070   -16.4606    14.3435 H          1 BB1          0.0000
    32 H32       -0.1524   -17.9463    14.9693 H          1 BB1          0.0000
    33 H33        1.3188   -15.6287    13.6347 H          1 BB1          0.0000
    34 H34        1.2918   -15.9730    15.3808 H          1 BB1          0.0000
    35 H35        3.3521   -16.8663    14.3291 H          1 BB1          0.0000
    36 H36        2.3349   -18.1832    14.9610 H          1 BB1          0.0000
    37 H37        2.4158   -17.2306    12.0621 H          1 BB1          0.0000
    38 H38        3.1704   -18.7162    12.6880 H          1 BB1          0.0000
    39 H39        0.9446   -19.5482    13.3967 H          1 BB1          0.0000
    40 H40        1.5352   -20.1831    11.2767 H          1 BB1          0.0000
    41 O1        -1.0375   -18.9513    12.4219 O.2        2 BB2          0.0000
    42 C2        -0.3489   -19.7996    11.8809 C.2        2 BB2          0.0000
    43 C4        -0.1440   -21.1381    12.5424 C.3        2 BB2          0.0000
    44 C5        -0.9105   -21.1624    13.8712 C.3        2 BB2          0.0000
    45 S6        -2.0718   -22.5518    13.6823 S.3        2 BB2          0.0000
    46 C7        -1.5627   -22.9965    12.0496 C.2        2 BB2          0.0000
    47 O8        -2.0284   -23.9088    11.3941 O.2        2 BB2          0.0000
    48 N9        -0.5927   -22.1803    11.6470 N.am       2 BB2          0.0000
    49 H10        0.9186   -21.2765    12.7422 H          2 BB2          0.0000
    50 H11       -0.2290   -21.3438    14.7024 H          2 BB2          0.0000
    51 H12       -1.4526   -20.2281    14.0170 H          2 BB2          0.0000
    52 H13       -0.1942   -22.2823    10.7686 H          2 BB2          0.0000
@<TRIPOS>BOND
     1      1      2 1
     2      1     20 1
     3      1     21 1
     4      1     22 1
     5      2      3 1
     6      2      4 1
     7      2      5 1
     8      3     23 1
     9      3     24 1
    10      3     25 1
    11      4     26 1
    12      4     27 1
    13      4     28 1
    14      5      6 1
    15      6      7 2
    16      6      8 1
    17      8      9 2
    18      8     12 1
    19      9     10 1
    20      9     29 1
    21     10     11 1
    22     10     13 1
    23     11     12 2
    24     13     14 1
    25     13     18 1
    26     13     30 1
    27     14     15 1
    28     14     31 1
    29     14     32 1
    30     15     16 1
    31     15     33 1
    32     15     34 1
    33     16     17 1
    34     16     35 1
    35     16     36 1
    36     17     18 1
    37     17     37 1
    38     17     38 1
    39     18     19 1
    40     18     39 1
    41     19     40 1
    42     41     42 2
    43     42     43 1
    44     43     44 1
    45     43     48 1
    46     43     49 1
    47     44     45 1
    48     44     50 1
    49     44     51 1
    50     45     46 1
    51     46     47 2
    52     46     48 am
    53     48     52 1
    54     19     42 am
@<TRIPOS>SUBSTRUCTURE
     1 BB1          19
     2 BB2          42
@<TRIPOS>MOLECULE
EN300-843819_i001_EN300-34862_i002_3_10_1
  52   54   2   0   0
SMALL
USER_CHARGES
@<TRIPOS>ATOM
     1 C1        -0.8218   -10.0908    11.2022 C.3        1 BB1          0.0000
     2 C2        -1.9382   -10.8683    10.5022 C.3        1 BB1          0.0000
     3 C3        -3.2886   -10.4748    11.1042 C.3        1 BB1          0.0000
     4 C4        -1.9303   -10.5384     9.0082 C.3        1 BB1          0.0000
     5 O5        -1.7237   -12.2928    10.6845 O.3        1 BB1          0.0000
     6 C6        -0.4994   -12.7701    10.3865 C.2        1 BB1          0.0000
     7 O7         0.1817   -12.2145     9.5474 O.2        1 BB1          0.0000
     8 C8         0.0137   -13.9661    11.0783 C.2        1 BB1          0.0000
     9 C9        -0.5117   -14.5208    12.2114 C.2        1 BB1          0.0000
    10 N10        0.2487   -15.5927    12.5102 N.pl3      1 BB1          0.0000
    11 N11        1.2460   -15.6695    11.5276 N.2        1 BB1          0.0000
    12 N12        1.0744   -14.6996    10.6982 N.2        1 BB1          0.0000
    13 C13        0.0683   -16.5027    13.6440 C.3        1 BB1          0.0000
    14 C14        1.3292   -16.4939    14.5106 C.3        1 BB1          0.0000
    15 C15        2.5259   -16.9520    13.6745 C.3        1 BB1          0.0000
    16 C16        2.2733   -18.3691    13.1560 C.3        1 BB1          0.0000
    17 C17        1.0125   -18.3779    12.2894 C.3        1 BB1          0.0000
    18 C18       -0.1842   -17.9198    13.1256 C.3        1 BB1          0.0000
    19 N19       -1.3949   -17.9283    12.2935 N.am       1 BB1          0.0000
    20 H20       -0.8275   -10.3258    12.2665 H          1 BB1          0.0000
    21 H21        0.1402   -10.3711    10.7733 H          1 BB1          0.0000
    22 H22       -0.9828    -9.0214    11.0653 H          1 BB1          0.0000
    23 H23       -3.4497    -9.4054    10.9674 H          1 BB1          0.0000
    24 H24       -4.0841   -11.0287    10.6056 H          1 BB1          0.0000
    25 H25       -3.2943   -10.7099    12.1685 H          1 BB1          0.0000
    26 H26       -0.9682   -10.8188     8.5793 H          1 BB1          0.0000
    27 H27       -2.7256   -11.0923     8.5095 H          1 BB1          0.0000
    28 H28       -2.0912    -9.4691     8.8714 H          1 BB1          0.0000
    29 H29       -1.3710   -14.1676    12.7622 H          1 BB1          0.0000
    30 H30       -0.7842   -16.1765    14.2397 H          1 BB1          0.0000
    31 H31        1.5091   -15.4843    14.8801 H          1 BB1          0.0000
    32 H32        1.1950   -17.1710    15.3543 H          1 BB1          0.0000
    33 H33        2.6601   -16.2750    12.8310 H          1 BB1          0.0000
    34 H34        3.4242   -16.9457    14.2919 H          1 BB1          0.0000
    35 H35        3.1259   -18.6954    12.5604 H          1 BB1          0.0000
    36 H36        2.1391   -19.0461    13.9997 H          1 BB1          0.0000
    37 H37        1.1467   -17.7009    11.4458 H          1 BB1          0.0000
    38 H38        0.8325   -19.3874    11.9201 H          1 BB1          0.0000
    39 H39       -0.3186   -18.5969    13.9691 H          1 BB1          0.0000
    40 H41       -2.2082   -18.0172    12.8840 H          1 BB1          0.0000
    41 C2        -0.3489   -19.7996    11.8809 C.2        2 BB2          0.0000
    42 O3         0.1780   -19.5632    10.8072 O.2        2 BB2          0.0000
    43 C4        -0.1440   -21.1381    12.5424 C.3        2 BB2          0.0000
    44 C5        -0.9105   -21.1624    13.8712 C.3        2 BB2          0.0000
    45 S6        -2.0718   -22.5518    13.6823 S.3        2 BB2          0.0000
    46 C7        -1.5627   -22.9965    12.0496 C.2        2 BB2          0.0000
    47 O8        -2.0284   -23.9088    11.3941 O.2        2 BB2          0.0000
    48 N9        -0.5927   -22.1803    11.6470 N.am       2 BB2          0.0000
    49 H10        0.9186   -21.2765    12.7422 H          2 BB2          0.0000
    50 H11       -0.2290   -21.3438    14.7024 H          2 BB2          0.0000
    51 H12       -1.4526   -20.2281    14.0170 H          2 BB2          0.0000
    52 H13       -0.1942   -22.2823    10.7686 H          2 BB2          0.0000
@<TRIPOS>BOND
     1      1      2 1
     2      1     20 1
     3      1     21 1
     4      1     22 1
     5      2      3 1
     6      2      4 1
     7      2      5 1
     8      3     23 1
     9      3     24 1
    10      3     25 1
    11      4     26 1
    12      4     27 1
    13      4     28 1
    14      5      6 1
    15      6      7 2
    16      6      8 1
    17      8      9 2
    18      8     12 1
    19      9     10 1
    20      9     29 1
    21     10     11 1
    22     10     13 1
    23     11     12 2
    24     13     14 1
    25     13     18 1
    26     13     30 1
    27     14     15 1
    28     14     31 1
    29     14     32 1
    30     15     16 1
    31     15     33 1
    32     15     34 1
    33     16     17 1
    34     16     35 1
    35     16     36 1
    36     17     18 1
    37     17     37 1
    38     17     38 1
    39     18     19 1
    40     18     39 1
    41     19     40 1
    42     41     42 2
    43     41     43 1
    44     43     44 1
    45     43     48 1
    46     43     49 1
    47     44     45 1
    48     44     50 1
    49     44     51 1
    50     45     46 1
    51     46     47 2
    52     46     48 am
    53     48     52 1
    54     19     41 am
@<TRIPOS>SUBSTRUCTURE
     1 BB1          19
     2 BB2          41
@<TRIPOS>MOLECULE
EN300-843819_i001_EN300-34862_i002_5_10_1
  52   54   2   0   0
SMALL
USER_CHARGES
@<TRIPOS>ATOM
     1 C1        -0.0762   -10.3852    10.6521 C.3        1 BB1          0.0000
     2 C2        -0.9257   -11.1384     9.6265 C.3        1 BB1          0.0000
     3 C3        -2.3835   -10.6889     9.7431 C.3        1 BB1          0.0000
     4 C4        -0.4104   -10.8372     8.2177 C.3        1 BB1          0.0000
     5 O5        -0.8375   -12.5655     9.8793 O.3        1 BB1          0.0000
     6 C6        -0.9470   -12.9676    11.1607 C.2        1 BB1          0.0000
     7 O7        -1.5756   -12.2977    11.9562 O.2        1 BB1          0.0000
     8 C8        -0.3043   -14.2200    11.5975 C.2        1 BB1          0.0000
     9 C9        -0.4093   -14.7813    12.8391 C.2        1 BB1          0.0000
    10 N10        0.3248   -15.9113    12.8201 N.pl3      1 BB1          0.0000
    11 N11        0.8750   -16.0164    11.5348 N.2        1 BB1          0.0000
    12 N12        0.4799   -15.0067    10.8402 N.2        1 BB1          0.0000
    13 C13        0.5125   -16.8495    13.9295 C.3        1 BB1          0.0000
    14 C14        1.9721   -16.8136    14.3866 C.3        1 BB1          0.0000
    15 C15        2.8811   -17.2123    13.2222 C.3        1 BB1          0.0000
    16 C16        2.5263   -18.6269    12.7594 C.3        1 BB1          0.0000
    17 C17        1.0666   -18.6628    12.3024 C.3        1 BB1          0.0000
    18 C18        0.1577   -18.2641    13.4668 C.3        1 BB1          0.0000
    19 N19       -1.2439   -18.2987    13.0280 N.am       1 BB1          0.0000
    20 H20       -0.4433   -10.5998    11.6558 H          1 BB1          0.0000
    21 H21        0.9624   -10.7054    10.5689 H          1 BB1          0.0000
    22 H22       -0.1424    -9.3139    10.4622 H          1 BB1          0.0000
    23 H23       -2.4498    -9.6176     9.5533 H          1 BB1          0.0000
    24 H24       -2.9888   -11.2255     9.0124 H          1 BB1          0.0000
    25 H25       -2.7507   -10.9035    10.7467 H          1 BB1          0.0000
    26 H26        0.6282   -11.1575     8.1345 H          1 BB1          0.0000
    27 H27       -1.0156   -11.3738     7.4869 H          1 BB1          0.0000
    28 H28       -0.4766    -9.7660     8.0279 H          1 BB1          0.0000
    29 H29       -0.9722   -14.3934    13.6754 H          1 BB1          0.0000
    30 H30       -0.1351   -16.5655    14.7590 H          1 BB1          0.0000
    31 H31        2.2249   -15.8059    14.7163 H          1 BB1          0.0000
    32 H32        2.1118   -17.5117    15.2120 H          1 BB1          0.0000
    33 H33        2.7415   -16.5143    12.3968 H          1 BB1          0.0000
    34 H34        3.9211   -17.1867    13.5478 H          1 BB1          0.0000
    35 H35        3.1739   -18.9109    11.9300 H          1 BB1          0.0000
    36 H36        2.6659   -19.3249    13.5849 H          1 BB1          0.0000
    37 H37        0.9270   -17.9648    11.4769 H          1 BB1          0.0000
    38 H38        0.8139   -19.6705    11.9728 H          1 BB1          0.0000
    39 H39        0.2972   -18.9621    14.2922 H          1 BB1          0.0000
    40 H41       -1.8457   -18.0763    13.8068 H          1 BB1          0.0000
    41 C2        -0.3489   -19.7996    11.8809 C.2        2 BB2          0.0000
    42 O3         0.1780   -19.5632    10.8072 O.2        2 BB2          0.0000
    43 C4        -0.1440   -21.1381    12.5424 C.3        2 BB2          0.0000
    44 C5        -0.9105   -21.1624    13.8712 C.3        2 BB2          0.0000
    45 S6        -2.0718   -22.5518    13.6823 S.3        2 BB2          0.0000
    46 C7        -1.5627   -22.9965    12.0496 C.2        2 BB2          0.0000
    47 O8        -2.0284   -23.9088    11.3941 O.2        2 BB2          0.0000
    48 N9        -0.5927   -22.1803    11.6470 N.am       2 BB2          0.0000
    49 H10        0.9186   -21.2765    12.7422 H          2 BB2          0.0000
    50 H11       -0.2290   -21.3438    14.7024 H          2 BB2          0.0000
    51 H12       -1.4526   -20.2281    14.0170 H          2 BB2          0.0000
    52 H13       -0.1942   -22.2823    10.7686 H          2 BB2          0.0000
@<TRIPOS>BOND
     1      1      2 1
     2      1     20 1
     3      1     21 1
     4      1     22 1
     5      2      3 1
     6      2      4 1
     7      2      5 1
     8      3     23 1
     9      3     24 1
    10      3     25 1
    11      4     26 1
    12      4     27 1
    13      4     28 1
    14      5      6 1
    15      6      7 2
    16      6      8 1
    17      8      9 2
    18      8     12 1
    19      9     10 1
    20      9     29 1
    21     10     11 1
    22     10     13 1
    23     11     12 2
    24     13     14 1
    25     13     18 1
    26     13     30 1
    27     14     15 1
    28     14     31 1
    29     14     32 1
    30     15     16 1
    31     15     33 1
    32     15     34 1
    33     16     17 1
    34     16     35 1
    35     16     36 1
    36     17     18 1
    37     17     37 1
    38     17     38 1
    39     18     19 1
    40     18     39 1
    41     19     40 1
    42     41     42 2
    43     41     43 1
    44     43     44 1
    45     43     48 1
    46     43     49 1
    47     44     45 1
    48     44     50 1
    49     44     51 1
    50     45     46 1
    51     46     47 2
    52     46     48 am
    53     48     52 1
    54     19     41 am
@<TRIPOS>SUBSTRUCTURE
     1 BB1          19
     2 BB2          41
@<TRIPOS>MOLECULE
EN300-843819_i001_EN300-107901_i001_5_4_1
  66   69   2   0   0
SMALL
USER_CHARGES
@<TRIPOS>ATOM
     1 C1        -0.0762   -10.3852    10.6521 C.3        1 BB1          0.0000
     2 C2        -0.9257   -11.1384     9.6265 C.3        1 BB1          0.0000
     3 C3        -2.3835   -10.6889     9.7431 C.3        1 BB1          0.0000
     4 C4        -0.4104   -10.8372     8.2177 C.3        1 BB1          0.0000
     5 O5        -0.8375   -12.5655     9.8793 O.3        1 BB1          0.0000
     6 C6        -0.9470   -12.9676    11.1607 C.2        1 BB1          0.0000
     7 O7        -1.5756   -12.2977    11.9562 O.2        1 BB1          0.0000
     8 C8        -0.3043   -14.2200    11.5975 C.2        1 BB1          0.0000
     9 C9        -0.4093   -14.7813    12.8391 C.2        1 BB1          0.0000
    10 N10        0.3248   -15.9113    12.8201 N.pl3      1 BB1          0.0000
    11 N11        0.8750   -16.0164    11.5348 N.2        1 BB1          0.0000
    12 N12        0.4799   -15.0067    10.8402 N.2        1 BB1          0.0000
    13 C13        0.5125   -16.8495    13.9295 C.3        1 BB1          0.0000
    14 C14        1.9721   -16.8136    14.3866 C.3        1 BB1          0.0000
    15 C15        2.8811   -17.2123    13.2222 C.3        1 BB1          0.0000
    16 C16        2.5263   -18.6269    12.7594 C.3        1 BB1          0.0000
    17 C17        1.0666   -18.6628    12.3024 C.3        1 BB1          0.0000
    18 C18        0.1577   -18.2641    13.4668 C.3        1 BB1          0.0000
    19 N19       -1.2439   -18.2987    13.0280 N.am       1 BB1          0.0000
    20 H20       -0.4433   -10.5998    11.6558 H          1 BB1          0.0000
    21 H21        0.9624   -10.7054    10.5689 H          1 BB1          0.0000
    22 H22       -0.1424    -9.3139    10.4622 H          1 BB1          0.0000
    23 H23       -2.4498    -9.6176     9.5533 H          1 BB1          0.0000
    24 H24       -2.9888   -11.2255     9.0124 H          1 BB1          0.0000
    25 H25       -2.7507   -10.9035    10.7467 H          1 BB1          0.0000
    26 H26        0.6282   -11.1575     8.1345 H          1 BB1          0.0000
    27 H27       -1.0156   -11.3738     7.4869 H          1 BB1          0.0000
    28 H28       -0.4766    -9.7660     8.0279 H          1 BB1          0.0000
    29 H29       -0.9722   -14.3934    13.6754 H          1 BB1          0.0000
    30 H30       -0.1351   -16.5655    14.7590 H          1 BB1          0.0000
    31 H31        2.2249   -15.8059    14.7163 H          1 BB1          0.0000
    32 H32        2.1118   -17.5117    15.2120 H          1 BB1          0.0000
    33 H33        2.7415   -16.5143    12.3968 H          1 BB1          0.0000
    34 H34        3.9211   -17.1867    13.5478 H          1 BB1          0.0000
    35 H35        3.1739   -18.9109    11.9300 H          1 BB1          0.0000
    36 H36        2.6659   -19.3249    13.5849 H          1 BB1          0.0000
    37 H37        0.9270   -17.9648    11.4769 H          1 BB1          0.0000
    38 H38        0.8139   -19.6705    11.9728 H          1 BB1          0.0000
    39 H39        0.2972   -18.9621    14.2922 H          1 BB1          0.0000
    40 H42       -1.3826   -17.6225    12.2920 H          1 BB1          0.0000
    41 O1        -0.3287   -20.4986    16.0013 O.2        2 BB2          0.0000
    42 C2        -0.1757   -20.1825    14.8338 C.2        2 BB2          0.0000
    43 C4         1.0432   -20.6241    14.0949 C.3        2 BB2          0.0000
    44 C5         0.8990   -21.2030    12.6975 C.3        2 BB2          0.0000
    45 C6        -0.4517   -21.3010    12.0465 C.3        2 BB2          0.0000
    46 C7        -0.9722   -22.7814    12.1185 C.3        2 BB2          0.0000
    47 C8        -2.0724   -22.6227    13.2273 C.3        2 BB2          0.0000
    48 C9        -1.6873   -22.8119    14.6758 C.3        2 BB2          0.0000
    49 C10       -0.3536   -23.1502    15.2446 C.3        2 BB2          0.0000
    50 C11        0.7170   -23.3272    14.1877 C.3        2 BB2          0.0000
    51 C12        1.4331   -22.0503    13.8246 C.3        2 BB2          0.0000
    52 H13        1.8882   -19.9042    14.2180 H          2 BB2          0.0000
    53 H14        1.6733   -20.8380    11.9582 H          2 BB2          0.0000
    54 H15       -1.1863   -20.6416    12.4956 H          2 BB2          0.0000
    55 H16       -0.3701   -21.0412    10.9794 H          2 BB2          0.0000
    56 H17       -1.5153   -22.9670    11.1655 H          2 BB2          0.0000
    57 H18       -0.2431   -23.5029    12.2358 H          2 BB2          0.0000
    58 H19       -2.5203   -21.6331    13.0939 H          2 BB2          0.0000
    59 H20       -2.8589   -23.3504    12.9750 H          2 BB2          0.0000
    60 H21       -2.0870   -21.9325    15.2312 H          2 BB2          0.0000
    61 H22       -2.3857   -23.6132    15.0514 H          2 BB2          0.0000
    62 H23       -0.0390   -22.4303    16.0205 H          2 BB2          0.0000
    63 H24       -0.4444   -24.1095    15.8205 H          2 BB2          0.0000
    64 H25        1.5181   -23.9779    14.7047 H          2 BB2          0.0000
    65 H26        0.4701   -24.0288    13.4060 H          2 BB2          0.0000
    66 H27        2.5724   -22.2167    13.8223 H          2 BB2          0.0000
@<TRIPOS>BOND
     1      1      2 1
     2      1     20 1
     3      1     21 1
     4      1     22 1
     5      2      3 1
     6      2      4 1
     7      2      5 1
     8      3     23 1
     9      3     24 1
    10      3     25 1
    11      4     26 1
    12      4     27 1
    13      4     28 1
    14      5      6 1
    15      6      7 2
    16      6      8 1
    17      8      9 2
    18      8     12 1
    19      9     10 1
    20      9     29 1
    21     10     11 1
    22     10     13 1
    23     11     12 2
    24     13     14 1
    25     13     18 1
    26     13     30 1
    27     14     15 1
    28     14     31 1
    29     14     32 1
    30     15     16 1
    31     15     33 1
    32     15     34 1
    33     16     17 1
    34     16     35 1
    35     16     36 1
    36     17     18 1
    37     17     37 1
    38     17     38 1
    39     18     19 1
    40     18     39 1
    41     19     40 1
    42     41     42 2
    43     42     43 1
    44     43     44 1
    45     43     51 1
    46     43     52 1
    47     44     45 1
    48     44     51 1
    49     44     53 1
    50     45     46 1
    51     45     54 1
    52     45     55 1
    53     46     47 1
    54     46     56 1
    55     46     57 1
    56     47     48 1
    57     47     58 1
    58     47     59 1
    59     48     49 1
    60     48     60 1
    61     48     61 1
    62     49     50 1
    63     49     62 1
    64     49     63 1
    65     50     51 1
    66     50     64 1
    67     50     65 1
    68     51     66 1
    69     19     42 am
@<TRIPOS>SUBSTRUCTURE
     1 BB1          19
     2 BB2          42
@<TRIPOS>MOLECULE
EN300-843819_i001_EN300-34862_i002_6_10_1
  52   54   2   0   0
SMALL
USER_CHARGES
@<TRIPOS>ATOM
     1 C1        -2.9162   -11.1729    10.4527 C.3        1 BB1          0.0000
     2 C2        -1.4421   -10.9729    10.0950 C.3        1 BB1          0.0000
     3 C3        -1.3324   -10.4323     8.6679 C.3        1 BB1          0.0000
     4 C4        -0.8121    -9.9745    11.0683 C.3        1 BB1          0.0000
     5 O5        -0.7452   -12.2434    10.1862 O.3        1 BB1          0.0000
     6 C6        -0.8648   -12.9252    11.3423 C.2        1 BB1          0.0000
     7 O7        -1.3013   -12.3713    12.3319 O.2        1 BB1          0.0000
     8 C8        -0.4662   -14.3427    11.4065 C.2        1 BB1          0.0000
     9 C9        -0.6459   -15.1756    12.4750 C.2        1 BB1          0.0000
    10 N10       -0.1458   -16.3764    12.1224 N.pl3      1 BB1          0.0000
    11 N11        0.3398   -16.2454    10.8136 N.2        1 BB1          0.0000
    12 N12        0.1302   -15.0369    10.4218 N.2        1 BB1          0.0000
    13 C13       -0.1150   -17.5862    12.9481 C.3        1 BB1          0.0000
    14 C14       -0.0748   -17.1938    14.4263 C.3        1 BB1          0.0000
    15 C15        1.1779   -16.3586    14.6985 C.3        1 BB1          0.0000
    16 C16        2.4226   -17.1791    14.3547 C.3        1 BB1          0.0000
    17 C17        2.3825   -17.5715    12.8765 C.3        1 BB1          0.0000
    18 C18        1.1298   -18.4067    12.6043 C.3        1 BB1          0.0000
    19 N19        1.0914   -18.7835    11.1849 N.am       1 BB1          0.0000
    20 H20       -3.3651   -11.8842     9.7593 H          1 BB1          0.0000
    21 H21       -2.9943   -11.5580    11.4694 H          1 BB1          0.0000
    22 H22       -3.4394   -10.2191    10.3843 H          1 BB1          0.0000
    23 H23       -1.8557    -9.4786     8.5994 H          1 BB1          0.0000
    24 H24       -0.2823   -10.2898     8.4130 H          1 BB1          0.0000
    25 H25       -1.7813   -11.1436     7.9745 H          1 BB1          0.0000
    26 H26       -0.8901   -10.3596    12.0850 H          1 BB1          0.0000
    27 H27        0.2381    -9.8319    10.8135 H          1 BB1          0.0000
    28 H28       -1.3353    -9.0208    10.9998 H          1 BB1          0.0000
    29 H29       -1.1007   -14.9204    13.4208 H          1 BB1          0.0000
    30 H30       -1.0073   -18.1812    12.7541 H          1 BB1          0.0000
    31 H31       -0.9616   -16.6093    14.6713 H          1 BB1          0.0000
    32 H32       -0.0519   -18.0939    15.0407 H          1 BB1          0.0000
    33 H33        1.1549   -15.4585    14.0842 H          1 BB1          0.0000
    34 H34        1.2064   -16.0790    15.7517 H          1 BB1          0.0000
    35 H35        3.3150   -16.5840    14.5486 H          1 BB1          0.0000
    36 H36        2.4455   -18.0792    14.9691 H          1 BB1          0.0000
    37 H37        2.3596   -16.6714    12.2621 H          1 BB1          0.0000
    38 H38        3.2692   -18.1560    12.6315 H          1 BB1          0.0000
    39 H39        1.1527   -19.3068    13.2185 H          1 BB1          0.0000
    40 H40        1.5845   -19.6540    11.0545 H          1 BB1          0.0000
    41 O1        -1.0375   -18.9513    12.4219 O.2        2 BB2          0.0000
    42 C2        -0.3489   -19.7996    11.8809 C.2        2 BB2          0.0000
    43 C4        -0.1440   -21.1381    12.5424 C.3        2 BB2          0.0000
    44 C5        -0.9105   -21.1624    13.8712 C.3        2 BB2          0.0000
    45 S6        -2.0718   -22.5518    13.6823 S.3        2 BB2          0.0000
    46 C7        -1.5627   -22.9965    12.0496 C.2        2 BB2          0.0000
    47 O8        -2.0284   -23.9088    11.3941 O.2        2 BB2          0.0000
    48 N9        -0.5927   -22.1803    11.6470 N.am       2 BB2          0.0000
    49 H10        0.9186   -21.2765    12.7422 H          2 BB2          0.0000
    50 H11       -0.2290   -21.3438    14.7024 H          2 BB2          0.0000
    51 H12       -1.4526   -20.2281    14.0170 H          2 BB2          0.0000
    52 H13       -0.1942   -22.2823    10.7686 H          2 BB2          0.0000
@<TRIPOS>BOND
     1      1      2 1
     2      1     20 1
     3      1     21 1
     4      1     22 1
     5      2      3 1
     6      2      4 1
     7      2      5 1
     8      3     23 1
     9      3     24 1
    10      3     25 1
    11      4     26 1
    12      4     27 1
    13      4     28 1
    14      5      6 1
    15      6      7 2
    16      6      8 1
    17      8      9 2
    18      8     12 1
    19      9     10 1
    20      9     29 1
    21     10     11 1
    22     10     13 1
    23     11     12 2
    24     13     14 1
    25     13     18 1
    26     13     30 1
    27     14     15 1
    28     14     31 1
    29     14     32 1
    30     15     16 1
    31     15     33 1
    32     15     34 1
    33     16     17 1
    34     16     35 1
    35     16     36 1
    36     17     18 1
    37     17     37 1
    38     17     38 1
    39     18     19 1
    40     18     39 1
    41     19     40 1
    42     41     42 2
    43     42     43 1
    44     43     44 1
    45     43     48 1
    46     43     49 1
    47     44     45 1
    48     44     50 1
    49     44     51 1
    50     45     46 1
    51     46     47 2
    52     46     48 am
    53     48     52 1
    54     19     42 am
@<TRIPOS>SUBSTRUCTURE
     1 BB1          19
     2 BB2          42
@<TRIPOS>MOLECULE
EN300-843819_i001_EN300-34862_i002_8_10_1
  52   54   2   0   0
SMALL
USER_CHARGES
@<TRIPOS>ATOM
     1 C1        -0.5714    -9.6632    11.4212 C.3        1 BB1          0.0000
     2 C2        -0.3753   -10.7576    10.3701 C.3        1 BB1          0.0000
     3 C3        -1.2982   -10.4921     9.1791 C.3        1 BB1          0.0000
     4 C4         1.0800   -10.7562     9.8978 C.3        1 BB1          0.0000
     5 O5        -0.6944   -12.0494    10.9511 O.3        1 BB1          0.0000
     6 C6        -0.4087   -13.1397    10.2127 C.2        1 BB1          0.0000
     7 O7        -0.2440   -13.0351     9.0133 O.2        1 BB1          0.0000
     8 C8        -0.2959   -14.4592    10.8598 C.2        1 BB1          0.0000
     9 C9        -0.3819   -14.7008    12.2021 C.2        1 BB1          0.0000
    10 N10       -0.2271   -16.0290    12.3704 N.pl3      1 BB1          0.0000
    11 N11       -0.0458   -16.5814    11.0945 N.2        1 BB1          0.0000
    12 N12       -0.0970   -15.6295    10.2288 N.2        1 BB1          0.0000
    13 C13       -0.2446   -16.7561    13.6421 C.3        1 BB1          0.0000
    14 C14        0.9168   -16.2807    14.5173 C.3        1 BB1          0.0000
    15 C15        2.2402   -16.5455    13.7966 C.3        1 BB1          0.0000
    16 C16        2.3840   -18.0451    13.5289 C.3        1 BB1          0.0000
    17 C17        1.2226   -18.5204    12.6537 C.3        1 BB1          0.0000
    18 C18       -0.1008   -18.2556    13.3744 C.3        1 BB1          0.0000
    19 N19       -1.2159   -18.7121    12.5340 N.am       1 BB1          0.0000
    20 H20       -1.6082    -9.6641    11.7576 H          1 BB1          0.0000
    21 H21        0.0861    -9.8523    12.2696 H          1 BB1          0.0000
    22 H22       -0.3319    -8.6934    10.9850 H          1 BB1          0.0000
    23 H23       -1.0588    -9.5223     8.7429 H          1 BB1          0.0000
    24 H24       -1.1586   -11.2718     8.4302 H          1 BB1          0.0000
    25 H25       -2.3350   -10.4931     9.5155 H          1 BB1          0.0000
    26 H26        1.7375   -10.9454    10.7463 H          1 BB1          0.0000
    27 H27        1.2197   -11.5359     9.1490 H          1 BB1          0.0000
    28 H28        1.3195    -9.7864     9.4617 H          1 BB1          0.0000
    29 H29       -0.5423   -13.9680    12.9791 H          1 BB1          0.0000
    30 H30       -1.1874   -16.5675    14.1556 H          1 BB1          0.0000
    31 H31        0.8144   -15.2124    14.7081 H          1 BB1          0.0000
    32 H32        0.9038   -16.8216    15.4636 H          1 BB1          0.0000
    33 H33        2.2532   -16.0046    12.8505 H          1 BB1          0.0000
    34 H34        3.0677   -16.2068    14.4202 H          1 BB1          0.0000
    35 H35        3.3268   -18.2336    13.0154 H          1 BB1          0.0000
    36 H36        2.3710   -18.5860    14.4752 H          1 BB1          0.0000
    37 H37        1.2356   -17.9795    11.7074 H          1 BB1          0.0000
    38 H38        1.3250   -19.5887    12.4629 H          1 BB1          0.0000
    39 H39       -0.1139   -18.7966    14.3206 H          1 BB1          0.0000
    40 H41       -1.3636   -19.6998    12.6787 H          1 BB1          0.0000
    41 C2        -0.3489   -19.7996    11.8809 C.2        2 BB2          0.0000
    42 O3         0.1780   -19.5632    10.8072 O.2        2 BB2          0.0000
    43 C4        -0.1440   -21.1381    12.5424 C.3        2 BB2          0.0000
    44 C5        -0.9105   -21.1624    13.8712 C.3        2 BB2          0.0000
    45 S6        -2.0718   -22.5518    13.6823 S.3        2 BB2          0.0000
    46 C7        -1.5627   -22.9965    12.0496 C.2        2 BB2          0.0000
    47 O8        -2.0284   -23.9088    11.3941 O.2        2 BB2          0.0000
    48 N9        -0.5927   -22.1803    11.6470 N.am       2 BB2          0.0000
    49 H10        0.9186   -21.2765    12.7422 H          2 BB2          0.0000
    50 H11       -0.2290   -21.3438    14.7024 H          2 BB2          0.0000
    51 H12       -1.4526   -20.2281    14.0170 H          2 BB2          0.0000
    52 H13       -0.1942   -22.2823    10.7686 H          2 BB2          0.0000
@<TRIPOS>BOND
     1      1      2 1
     2      1     20 1
     3      1     21 1
     4      1     22 1
     5      2      3 1
     6      2      4 1
     7      2      5 1
     8      3     23 1
     9      3     24 1
    10      3     25 1
    11      4     26 1
    12      4     27 1
    13      4     28 1
    14      5      6 1
    15      6      7 2
    16      6      8 1
    17      8      9 2
    18      8     12 1
    19      9     10 1
    20      9     29 1
    21     10     11 1
    22     10     13 1
    23     11     12 2
    24     13     14 1
    25     13     18 1
    26     13     30 1
    27     14     15 1
    28     14     31 1
    29     14     32 1
    30     15     16 1
    31     15     33 1
    32     15     34 1
    33     16     17 1
    34     16     35 1
    35     16     36 1
    36     17     18 1
    37     17     37 1
    38     17     38 1
    39     18     19 1
    40     18     39 1
    41     19     40 1
    42     41     42 2
    43     41     43 1
    44     43     44 1
    45     43     48 1
    46     43     49 1
    47     44     45 1
    48     44     50 1
    49     44     51 1
    50     45     46 1
    51     46     47 2
    52     46     48 am
    53     48     52 1
    54     19     41 am
@<TRIPOS>SUBSTRUCTURE
     1 BB1          19
     2 BB2          41
@<TRIPOS>MOLECULE
EN300-703997_i001_EN300-194291_i002_1_16_1
  49   51   2   0   0
SMALL
USER_CHARGES
@<TRIPOS>ATOM
     1 C1        -0.1565   -21.5324    12.6801 C.3        1 BB1          0.0000
     2 O2         0.6499   -20.3250    12.6930 O.3        1 BB1          0.0000
     3 C3        -0.0062   -19.1543    12.7138 C.2        1 BB1          0.0000
     4 O4        -1.2097   -19.1379    12.8199 O.2        1 BB1          0.0000
     5 C5         0.7582   -17.8601    12.6047 C.3        1 BB1          0.0000
     6 N6         2.1770   -18.1378    12.2926 N.am       1 BB1          0.0000
     7 C7         2.9604   -17.1024    13.0141 C.3        1 BB1          0.0000
     8 C8         2.2122   -16.9685    14.3642 C.3        1 BB1          0.0000
     9 C9         0.7293   -17.1184    13.9539 C.3        1 BB1          0.0000
    10 C10        0.0820   -15.7418    13.7895 C.3        1 BB1          0.0000
    11 C11       -0.0294   -17.9420    14.9965 C.3        1 BB1          0.0000
    12 H12       -0.7805   -21.5622    13.5733 H          1 BB1          0.0000
    13 H13       -0.7908   -21.5364    11.7936 H          1 BB1          0.0000
    14 H14        0.4963   -22.4052    12.6637 H          1 BB1          0.0000
    15 H15        0.3217   -17.2358    11.8250 H          1 BB1          0.0000
    16 H16        3.9853   -17.4373    13.1738 H          1 BB1          0.0000
    17 H17        2.9436   -16.1583    12.4696 H          1 BB1          0.0000
    18 H18        2.5055   -17.7647    15.0484 H          1 BB1          0.0000
    19 H19        2.3921   -15.9900    14.8095 H          1 BB1          0.0000
    20 H20        0.6258   -15.1725    13.0357 H          1 BB1          0.0000
    21 H21       -0.9548   -15.8630    13.4754 H          1 BB1          0.0000
    22 H22        0.1139   -15.2094    14.7400 H          1 BB1          0.0000
    23 H23        0.0014   -17.4288    15.9577 H          1 BB1          0.0000
    24 H24       -1.0661   -18.0610    14.6813 H          1 BB1          0.0000
    25 H25        0.4357   -18.9229    15.0934 H          1 BB1          0.0000
    26 C2         0.9864   -15.6654    12.0206 C.2        2 BB2          0.0000
    27 O3         2.1974   -15.5995    12.1456 O.2        2 BB2          0.0000
    28 C4         0.3162   -15.0305    10.8295 C.3        2 BB2          0.0000
    29 C5        -0.7059   -13.9613    11.2751 C.3        2 BB2          0.0000
    30 N6        -0.6164   -12.8925    10.2732 N.am       2 BB2          0.0000
    31 C7         0.5153   -12.9905     9.5545 C.2        2 BB2          0.0000
    32 O8         0.8423   -12.2317     8.6666 O.2        2 BB2          0.0000
    33 C9         1.3218   -14.1850    10.0143 C.3        2 BB2          0.0000
    34 C10       -1.5851   -11.8982    10.0900 C.ar       2 BB2          0.0000
    35 C11       -1.1994   -10.5761     9.9146 C.ar       2 BB2          0.0000
    36 C12       -2.1559    -9.5957     9.7334 C.ar       2 BB2          0.0000
    37 C13       -3.4988    -9.9298     9.7271 C.ar       2 BB2          0.0000
    38 F14       -4.4322    -8.9694     9.5498 F          2 BB2          0.0000
    39 C15       -3.8874   -11.2498     9.9021 C.ar       2 BB2          0.0000
    40 F16       -5.1988   -11.5745     9.8952 F          2 BB2          0.0000
    41 C17       -2.9323   -12.2343    10.0779 C.ar       2 BB2          0.0000
    42 H18       -0.1577   -15.7858    10.2026 H          2 BB2          0.0000
    43 H19       -1.7111   -14.3826    11.2883 H          2 BB2          0.0000
    44 H20       -0.4442   -13.5770    12.2610 H          2 BB2          0.0000
    45 H21        2.1512   -13.8654    10.6453 H          2 BB2          0.0000
    46 H22        1.6889   -14.7501     9.1575 H          2 BB2          0.0000
    47 H23       -0.1517   -10.3141     9.9201 H          2 BB2          0.0000
    48 H24       -1.8553    -8.5674     9.5970 H          2 BB2          0.0000
    49 H25       -3.2342   -13.2622    10.2142 H          2 BB2          0.0000
@<TRIPOS>BOND
     1      1      2 1
     2      1     12 1
     3      1     13 1
     4      1     14 1
     5      2      3 1
     6      3      4 2
     7      3      5 1
     8      5      6 1
     9      5      9 1
    10      5     15 1
    11      6      7 1
    12      7      8 1
    13      7     16 1
    14      7     17 1
    15      8      9 1
    16      8     18 1
    17      8     19 1
    18      9     10 1
    19      9     11 1
    20     10     20 1
    21     10     21 1
    22     10     22 1
    23     11     23 1
    24     11     24 1
    25     11     25 1
    26     26     27 2
    27     26     28 1
    28     28     29 1
    29     28     33 1
    30     28     42 1
    31     29     30 1
    32     29     43 1
    33     29     44 1
    34     30     31 am
    35     30     34 1
    36     31     32 2
    37     31     33 1
    38     33     45 1
    39     33     46 1
    40     34     35 ar
    41     34     41 ar
    42     35     36 ar
    43     35     47 1
    44     36     37 ar
    45     36     48 1
    46     37     38 1
    47     37     39 ar
    48     39     40 1
    49     39     41 ar
    50     41     49 1
    51      6     26 am
@<TRIPOS>SUBSTRUCTURE
     1 BB1           6
     2 BB2          26
@<TRIPOS>MOLECULE
EN300-703997_i001_EN300-4287209_i001_11_3_1
  40   41   2   0   0
SMALL
USER_CHARGES
@<TRIPOS>ATOM
     1 C1         1.0029   -20.6586    12.0487 C.3        1 BB1          0.0000
     2 O2         0.9762   -19.2087    11.9760 O.3        1 BB1          0.0000
     3 C3        -0.1656   -18.6014    12.3353 C.2        1 BB1          0.0000
     4 O4        -1.1221   -19.2609    12.6673 O.2        1 BB1          0.0000
     5 C5        -0.2547   -17.0971    12.3246 C.3        1 BB1          0.0000
     6 N6         0.2851   -16.5694    11.0528 N.am       1 BB1          0.0000
     7 C7         0.9574   -15.2907    11.3977 C.3        1 BB1          0.0000
     8 C8         1.6402   -15.6035    12.7529 C.3        1 BB1          0.0000
     9 C9         0.6078   -16.5124    13.4585 C.3        1 BB1          0.0000
    10 C10       -0.2584   -15.6897    14.4144 C.3        1 BB1          0.0000
    11 C11        1.3192   -17.6346    14.2172 C.3        1 BB1          0.0000
    12 H12        0.8135   -20.9745    13.0746 H          1 BB1          0.0000
    13 H13        0.2342   -21.0695    11.3943 H          1 BB1          0.0000
    14 H14        1.9812   -21.0203    11.7319 H          1 BB1          0.0000
    15 H15       -1.2924   -16.7859    12.4452 H          1 BB1          0.0000
    16 H16        1.7003   -15.0309    10.6436 H          1 BB1          0.0000
    17 H17        0.2265   -14.4900    11.5110 H          1 BB1          0.0000
    18 H18        2.5794   -16.1345    12.5981 H          1 BB1          0.0000
    19 H19        1.8024   -14.6889    13.3233 H          1 BB1          0.0000
    20 H20       -0.7674   -14.9030    13.8575 H          1 BB1          0.0000
    21 H21       -0.9975   -16.3385    14.8846 H          1 BB1          0.0000
    22 H22        0.3725   -15.2416    15.1820 H          1 BB1          0.0000
    23 H23        1.9638   -17.2034    14.9832 H          1 BB1          0.0000
    24 H24        0.5785   -18.2813    14.6876 H          1 BB1          0.0000
    25 H25        1.9218   -18.2183    13.5216 H          1 BB1          0.0000
    26 O1         0.9022   -15.2848    11.2052 O.2        2 BB2          0.0000
    27 C2        -0.0043   -14.5201    11.5040 C.2        2 BB2          0.0000
    28 C4        -0.4017   -13.4480    10.5724 C.ar       2 BB2          0.0000
    29 C5        -1.5033   -12.6425    10.8617 C.ar       2 BB2          0.0000
    30 C6        -1.8709   -11.6325     9.9767 C.ar       2 BB2          0.0000
    31 C7        -3.0001   -10.8010    10.2667 C.1        2 BB2          0.0000
    32 C8        -3.9259   -10.1193    10.5044 C.1        2 BB2          0.0000
    33 C9        -1.1364   -11.4311     8.8058 C.ar       2 BB2          0.0000
    34 C10       -0.0472   -12.2308     8.5230 C.ar       2 BB2          0.0000
    35 C11        0.3287   -13.2319     9.3982 C.ar       2 BB2          0.0000
    36 Cl12       1.6998   -14.2324     9.0338 Cl         2 BB2          0.0000
    37 H13       -2.0687   -12.8018    11.7680 H          2 BB2          0.0000
    38 H14       -4.7538    -9.5095    10.7170 H          2 BB2          0.0000
    39 H15       -1.4217   -10.6476     8.1195 H          2 BB2          0.0000
    40 H16        0.5164   -12.0702     7.6158 H          2 BB2          0.0000
@<TRIPOS>BOND
     1      1      2 1
     2      1     12 1
     3      1     13 1
     4      1     14 1
     5      2      3 1
     6      3      4 2
     7      3      5 1
     8      5      6 1
     9      5      9 1
    10      5     15 1
    11      6      7 1
    12      7      8 1
    13      7     16 1
    14      7     17 1
    15      8      9 1
    16      8     18 1
    17      8     19 1
    18      9     10 1
    19      9     11 1
    20     10     20 1
    21     10     21 1
    22     10     22 1
    23     11     23 1
    24     11     24 1
    25     11     25 1
    26     26     27 2
    27     27     28 1
    28     28     29 ar
    29     28     35 ar
    30     29     30 ar
    31     29     37 1
    32     30     31 1
    33     30     33 ar
    34     31     32 3
    35     32     38 1
    36     33     34 ar
    37     33     39 1
    38     34     35 ar
    39     34     40 1
    40     35     36 1
    41      6     27 am
@<TRIPOS>SUBSTRUCTURE
     1 BB1           6
     2 BB2          27
@<TRIPOS>MOLECULE
EN300-703997_i001_EN300-19857_i001_11_20_1
  38   39   2   0   0
SMALL
USER_CHARGES
@<TRIPOS>ATOM
     1 C1         1.0029   -20.6586    12.0487 C.3        1 BB1          0.0000
     2 O2         0.9762   -19.2087    11.9760 O.3        1 BB1          0.0000
     3 C3        -0.1656   -18.6014    12.3353 C.2        1 BB1          0.0000
     4 O4        -1.1221   -19.2609    12.6673 O.2        1 BB1          0.0000
     5 C5        -0.2547   -17.0971    12.3246 C.3        1 BB1          0.0000
     6 N6         0.2851   -16.5694    11.0528 N.am       1 BB1          0.0000
     7 C7         0.9574   -15.2907    11.3977 C.3        1 BB1          0.0000
     8 C8         1.6402   -15.6035    12.7529 C.3        1 BB1          0.0000
     9 C9         0.6078   -16.5124    13.4585 C.3        1 BB1          0.0000
    10 C10       -0.2584   -15.6897    14.4144 C.3        1 BB1          0.0000
    11 C11        1.3192   -17.6346    14.2172 C.3        1 BB1          0.0000
    12 H12        0.8135   -20.9745    13.0746 H          1 BB1          0.0000
    13 H13        0.2342   -21.0695    11.3943 H          1 BB1          0.0000
    14 H14        1.9812   -21.0203    11.7319 H          1 BB1          0.0000
    15 H15       -1.2924   -16.7859    12.4452 H          1 BB1          0.0000
    16 H16        1.7003   -15.0309    10.6436 H          1 BB1          0.0000
    17 H17        0.2265   -14.4900    11.5110 H          1 BB1          0.0000
    18 H18        2.5794   -16.1345    12.5981 H          1 BB1          0.0000
    19 H19        1.8024   -14.6889    13.3233 H          1 BB1          0.0000
    20 H20       -0.7674   -14.9030    13.8575 H          1 BB1          0.0000
    21 H21       -0.9975   -16.3385    14.8846 H          1 BB1          0.0000
    22 H22        0.3725   -15.2416    15.1820 H          1 BB1          0.0000
    23 H23        1.9638   -17.2034    14.9832 H          1 BB1          0.0000
    24 H24        0.5785   -18.2813    14.6876 H          1 BB1          0.0000
    25 H25        1.9218   -18.2183    13.5216 H          1 BB1          0.0000
    26 C2        -0.0612   -14.3703    11.2846 C.2        2 BB2          0.0000
    27 O3         0.9101   -15.0078    10.9027 O.2        2 BB2          0.0000
    28 C4        -0.4899   -13.1665    10.5471 C.ar       2 BB2          0.0000
    29 C5         0.2870   -12.6738     9.4958 C.ar       2 BB2          0.0000
    30 C6        -0.1195   -11.5478     8.8104 C.ar       2 BB2          0.0000
    31 C7        -1.2938   -10.9062     9.1618 C.ar       2 BB2          0.0000
    32 C8        -2.0692   -11.3882    10.2031 C.ar       2 BB2          0.0000
    33 Br9       -3.6723   -10.5028    10.6742 Br         2 BB2          0.0000
    34 C10       -1.6778   -12.5173    10.8933 C.ar       2 BB2          0.0000
    35 H11        1.2041   -13.1732     9.2205 H          2 BB2          0.0000
    36 H12        0.4805   -11.1659     7.9978 H          2 BB2          0.0000
    37 H13       -1.6071   -10.0250     8.6216 H          2 BB2          0.0000
    38 H14       -2.2830   -12.8926    11.7053 H          2 BB2          0.0000
@<TRIPOS>BOND
     1      1      2 1
     2      1     12 1
     3      1     13 1
     4      1     14 1
     5      2      3 1
     6      3      4 2
     7      3      5 1
     8      5      6 1
     9      5      9 1
    10      5     15 1
    11      6      7 1
    12      7      8 1
    13      7     16 1
    14      7     17 1
    15      8      9 1
    16      8     18 1
    17      8     19 1
    18      9     10 1
    19      9     11 1
    20     10     20 1
    21     10     21 1
    22     10     22 1
    23     11     23 1
    24     11     24 1
    25     11     25 1
    26     26     27 2
    27     26     28 1
    28     28     29 ar
    29     28     34 ar
    30     29     30 ar
    31     29     35 1
    32     30     31 ar
    33     30     36 1
    34     31     32 ar
    35     31     37 1
    36     32     33 1
    37     32     34 ar
    38     34     38 1
    39      6     26 am
@<TRIPOS>SUBSTRUCTURE
     1 BB1           6
     2 BB2          26
@<TRIPOS>MOLECULE
EN300-703997_i001_EN300-222254_i002_11_4_1
  48   50   2   0   0
SMALL
USER_CHARGES
@<TRIPOS>ATOM
     1 C1         1.0029   -20.6586    12.0487 C.3        1 BB1          0.0000
     2 O2         0.9762   -19.2087    11.9760 O.3        1 BB1          0.0000
     3 C3        -0.1656   -18.6014    12.3353 C.2        1 BB1          0.0000
     4 O4        -1.1221   -19.2609    12.6673 O.2        1 BB1          0.0000
     5 C5        -0.2547   -17.0971    12.3246 C.3        1 BB1          0.0000
     6 N6         0.2851   -16.5694    11.0528 N.am       1 BB1          0.0000
     7 C7         0.9574   -15.2907    11.3977 C.3        1 BB1          0.0000
     8 C8         1.6402   -15.6035    12.7529 C.3        1 BB1          0.0000
     9 C9         0.6078   -16.5124    13.4585 C.3        1 BB1          0.0000
    10 C10       -0.2584   -15.6897    14.4144 C.3        1 BB1          0.0000
    11 C11        1.3192   -17.6346    14.2172 C.3        1 BB1          0.0000
    12 H12        0.8135   -20.9745    13.0746 H          1 BB1          0.0000
    13 H13        0.2342   -21.0695    11.3943 H          1 BB1          0.0000
    14 H14        1.9812   -21.0203    11.7319 H          1 BB1          0.0000
    15 H15       -1.2924   -16.7859    12.4452 H          1 BB1          0.0000
    16 H16        1.7003   -15.0309    10.6436 H          1 BB1          0.0000
    17 H17        0.2265   -14.4900    11.5110 H          1 BB1          0.0000
    18 H18        2.5794   -16.1345    12.5981 H          1 BB1          0.0000
    19 H19        1.8024   -14.6889    13.3233 H          1 BB1          0.0000
    20 H20       -0.7674   -14.9030    13.8575 H          1 BB1          0.0000
    21 H21       -0.9975   -16.3385    14.8846 H          1 BB1          0.0000
    22 H22        0.3725   -15.2416    15.1820 H          1 BB1          0.0000
    23 H23        1.9638   -17.2034    14.9832 H          1 BB1          0.0000
    24 H24        0.5785   -18.2813    14.6876 H          1 BB1          0.0000
    25 H25        1.9218   -18.2183    13.5216 H          1 BB1          0.0000
    26 C2         0.8004   -14.8911    10.7774 C.2        2 BB2          0.0000
    27 O3         0.0117   -15.5813    11.4007 O.2        2 BB2          0.0000
    28 C4         0.3644   -14.2102     9.5059 C.3        2 BB2          0.0000
    29 C5         1.4242   -14.2481     8.3921 C.3        2 BB2          0.0000
    30 C6         1.0198   -12.8008     8.0660 C.3        2 BB2          0.0000
    31 C7         0.5555   -12.6843     9.5274 C.3        2 BB2          0.0000
    32 C8        -0.7309   -11.9171     9.6928 C.ar       2 BB2          0.0000
    33 C9        -1.9103   -12.4281     9.1855 C.ar       2 BB2          0.0000
    34 C10       -3.0908   -11.7247     9.3363 C.ar       2 BB2          0.0000
    35 C11       -3.0929   -10.5086     9.9959 C.ar       2 BB2          0.0000
    36 Cl12      -4.5761    -9.6265    10.1853 Cl         2 BB2          0.0000
    37 C13       -1.9132    -9.9958    10.5049 C.ar       2 BB2          0.0000
    38 C14       -0.7321   -10.7026    10.3583 C.ar       2 BB2          0.0000
    39 F15        0.4206   -10.2031    10.8554 F          2 BB2          0.0000
    40 H16       -0.6264   -14.5228     9.1765 H          2 BB2          0.0000
    41 H17        2.4446   -14.3433     8.7634 H          2 BB2          0.0000
    42 H18        1.1950   -14.9556     7.5952 H          2 BB2          0.0000
    43 H19        1.8642   -12.1556     7.8234 H          2 BB2          0.0000
    44 H20        0.2078   -12.7268     7.3427 H          2 BB2          0.0000
    45 H21        1.3384   -12.3520    10.2091 H          2 BB2          0.0000
    46 H22       -1.9097   -13.3774     8.6703 H          2 BB2          0.0000
    47 H23       -4.0119   -12.1247     8.9388 H          2 BB2          0.0000
    48 H24       -1.9145    -9.0466    11.0198 H          2 BB2          0.0000
@<TRIPOS>BOND
     1      1      2 1
     2      1     12 1
     3      1     13 1
     4      1     14 1
     5      2      3 1
     6      3      4 2
     7      3      5 1
     8      5      6 1
     9      5      9 1
    10      5     15 1
    11      6      7 1
    12      7      8 1
    13      7     16 1
    14      7     17 1
    15      8      9 1
    16      8     18 1
    17      8     19 1
    18      9     10 1
    19      9     11 1
    20     10     20 1
    21     10     21 1
    22     10     22 1
    23     11     23 1
    24     11     24 1
    25     11     25 1
    26     26     27 2
    27     26     28 1
    28     28     29 1
    29     28     31 1
    30     28     40 1
    31     29     30 1
    32     29     41 1
    33     29     42 1
    34     30     31 1
    35     30     43 1
    36     30     44 1
    37     31     32 1
    38     31     45 1
    39     32     33 ar
    40     32     38 ar
    41     33     34 ar
    42     33     46 1
    43     34     35 ar
    44     34     47 1
    45     35     36 1
    46     35     37 ar
    47     37     38 ar
    48     37     48 1
    49     38     39 1
    50      6     26 am
@<TRIPOS>SUBSTRUCTURE
     1 BB1           6
     2 BB2          26
@<TRIPOS>MOLECULE
EN300-703997_i001_EN300-222254_i002_11_7_1
  48   50   2   0   0
SMALL
USER_CHARGES
@<TRIPOS>ATOM
     1 C1         1.0029   -20.6586    12.0487 C.3        1 BB1          0.0000
     2 O2         0.9762   -19.2087    11.9760 O.3        1 BB1          0.0000
     3 C3        -0.1656   -18.6014    12.3353 C.2        1 BB1          0.0000
     4 O4        -1.1221   -19.2609    12.6673 O.2        1 BB1          0.0000
     5 C5        -0.2547   -17.0971    12.3246 C.3        1 BB1          0.0000
     6 N6         0.2851   -16.5694    11.0528 N.am       1 BB1          0.0000
     7 C7         0.9574   -15.2907    11.3977 C.3        1 BB1          0.0000
     8 C8         1.6402   -15.6035    12.7529 C.3        1 BB1          0.0000
     9 C9         0.6078   -16.5124    13.4585 C.3        1 BB1          0.0000
    10 C10       -0.2584   -15.6897    14.4144 C.3        1 BB1          0.0000
    11 C11        1.3192   -17.6346    14.2172 C.3        1 BB1          0.0000
    12 H12        0.8135   -20.9745    13.0746 H          1 BB1          0.0000
    13 H13        0.2342   -21.0695    11.3943 H          1 BB1          0.0000
    14 H14        1.9812   -21.0203    11.7319 H          1 BB1          0.0000
    15 H15       -1.2924   -16.7859    12.4452 H          1 BB1          0.0000
    16 H16        1.7003   -15.0309    10.6436 H          1 BB1          0.0000
    17 H17        0.2265   -14.4900    11.5110 H          1 BB1          0.0000
    18 H18        2.5794   -16.1345    12.5981 H          1 BB1          0.0000
    19 H19        1.8024   -14.6889    13.3233 H          1 BB1          0.0000
    20 H20       -0.7674   -14.9030    13.8575 H          1 BB1          0.0000
    21 H21       -0.9975   -16.3385    14.8846 H          1 BB1          0.0000
    22 H22        0.3725   -15.2416    15.1820 H          1 BB1          0.0000
    23 H23        1.9638   -17.2034    14.9832 H          1 BB1          0.0000
    24 H24        0.5785   -18.2813    14.6876 H          1 BB1          0.0000
    25 H25        1.9218   -18.2183    13.5216 H          1 BB1          0.0000
    26 O1         1.0761   -15.2604    11.4874 O.2        2 BB2          0.0000
    27 C2         0.0691   -14.5794    11.3943 C.2        2 BB2          0.0000
    28 C4        -0.3286   -14.0010    10.0609 C.3        2 BB2          0.0000
    29 C5         0.7881   -14.0614     9.0053 C.3        2 BB2          0.0000
    30 C6         0.3404   -12.6575     8.5654 C.3        2 BB2          0.0000
    31 C7        -0.2035   -12.4698     9.9915 C.3        2 BB2          0.0000
    32 C8        -1.5280   -11.7529    10.0428 C.ar       2 BB2          0.0000
    33 C9        -2.6243   -12.2791     9.3866 C.ar       2 BB2          0.0000
    34 C10       -3.8397   -11.6218     9.4328 C.ar       2 BB2          0.0000
    35 C11       -3.9599   -10.4369    10.1366 C.ar       2 BB2          0.0000
    36 Cl12      -5.4867    -9.6127    10.1944 Cl         2 BB2          0.0000
    37 C13       -2.8635    -9.9090    10.7946 C.ar       2 BB2          0.0000
    38 C14       -1.6479   -10.5698    10.7526 C.ar       2 BB2          0.0000
    39 F15       -0.5765   -10.0555    11.3951 F          2 BB2          0.0000
    40 H16       -1.2870   -14.3786     9.7046 H          2 BB2          0.0000
    41 H17        1.7910   -14.0862     9.4316 H          2 BB2          0.0000
    42 H18        0.6306   -14.8277     8.2463 H          2 BB2          0.0000
    43 H19        1.1683   -11.9913     8.3226 H          2 BB2          0.0000
    44 H20       -0.4354   -12.6666     7.7998 H          2 BB2          0.0000
    45 H21        0.5283   -12.0595    10.6874 H          2 BB2          0.0000
    46 H22       -2.5316   -13.2041     8.8369 H          2 BB2          0.0000
    47 H23       -4.6958   -12.0336     8.9190 H          2 BB2          0.0000
    48 H24       -2.9569    -8.9840    11.3440 H          2 BB2          0.0000
@<TRIPOS>BOND
     1      1      2 1
     2      1     12 1
     3      1     13 1
     4      1     14 1
     5      2      3 1
     6      3      4 2
     7      3      5 1
     8      5      6 1
     9      5      9 1
    10      5     15 1
    11      6      7 1
    12      7      8 1
    13      7     16 1
    14      7     17 1
    15      8      9 1
    16      8     18 1
    17      8     19 1
    18      9     10 1
    19      9     11 1
    20     10     20 1
    21     10     21 1
    22     10     22 1
    23     11     23 1
    24     11     24 1
    25     11     25 1
    26     26     27 2
    27     27     28 1
    28     28     29 1
    29     28     31 1
    30     28     40 1
    31     29     30 1
    32     29     41 1
    33     29     42 1
    34     30     31 1
    35     30     43 1
    36     30     44 1
    37     31     32 1
    38     31     45 1
    39     32     33 ar
    40     32     38 ar
    41     33     34 ar
    42     33     46 1
    43     34     35 ar
    44     34     47 1
    45     35     36 1
    46     35     37 ar
    47     37     38 ar
    48     37     48 1
    49     38     39 1
    50      6     27 am
@<TRIPOS>SUBSTRUCTURE
     1 BB1           6
     2 BB2          27
@<TRIPOS>MOLECULE
EN300-703997_i001_EN300-222254_i002_11_9_1
  48   50   2   0   0
SMALL
USER_CHARGES
@<TRIPOS>ATOM
     1 C1         1.0029   -20.6586    12.0487 C.3        1 BB1          0.0000
     2 O2         0.9762   -19.2087    11.9760 O.3        1 BB1          0.0000
     3 C3        -0.1656   -18.6014    12.3353 C.2        1 BB1          0.0000
     4 O4        -1.1221   -19.2609    12.6673 O.2        1 BB1          0.0000
     5 C5        -0.2547   -17.0971    12.3246 C.3        1 BB1          0.0000
     6 N6         0.2851   -16.5694    11.0528 N.am       1 BB1          0.0000
     7 C7         0.9574   -15.2907    11.3977 C.3        1 BB1          0.0000
     8 C8         1.6402   -15.6035    12.7529 C.3        1 BB1          0.0000
     9 C9         0.6078   -16.5124    13.4585 C.3        1 BB1          0.0000
    10 C10       -0.2584   -15.6897    14.4144 C.3        1 BB1          0.0000
    11 C11        1.3192   -17.6346    14.2172 C.3        1 BB1          0.0000
    12 H12        0.8135   -20.9745    13.0746 H          1 BB1          0.0000
    13 H13        0.2342   -21.0695    11.3943 H          1 BB1          0.0000
    14 H14        1.9812   -21.0203    11.7319 H          1 BB1          0.0000
    15 H15       -1.2924   -16.7859    12.4452 H          1 BB1          0.0000
    16 H16        1.7003   -15.0309    10.6436 H          1 BB1          0.0000
    17 H17        0.2265   -14.4900    11.5110 H          1 BB1          0.0000
    18 H18        2.5794   -16.1345    12.5981 H          1 BB1          0.0000
    19 H19        1.8024   -14.6889    13.3233 H          1 BB1          0.0000
    20 H20       -0.7674   -14.9030    13.8575 H          1 BB1          0.0000
    21 H21       -0.9975   -16.3385    14.8846 H          1 BB1          0.0000
    22 H22        0.3725   -15.2416    15.1820 H          1 BB1          0.0000
    23 H23        1.9638   -17.2034    14.9832 H          1 BB1          0.0000
    24 H24        0.5785   -18.2813    14.6876 H          1 BB1          0.0000
    25 H25        1.9218   -18.2183    13.5216 H          1 BB1          0.0000
    26 O1        -0.2518   -16.8805    10.2544 O.2        2 BB2          0.0000
    27 C2        -0.3919   -16.9343     9.0444 C.2        2 BB2          0.0000
    28 C4        -0.1618   -15.7049     8.2039 C.3        2 BB2          0.0000
    29 C5         0.9915   -15.8536     7.1976 C.3        2 BB2          0.0000
    30 C6         1.3768   -14.4060     7.5447 C.3        2 BB2          0.0000
    31 C7         0.6904   -14.6319     8.9021 C.3        2 BB2          0.0000
    32 C8        -0.1062   -13.4455     9.3806 C.ar       2 BB2          0.0000
    33 C9        -0.3494   -12.3867     8.5268 C.ar       2 BB2          0.0000
    34 C10       -1.0796   -11.2978     8.9651 C.ar       2 BB2          0.0000
    35 C11       -1.5683   -11.2671    10.2590 C.ar       2 BB2          0.0000
    36 Cl12      -2.4857    -9.8994    10.8081 Cl         2 BB2          0.0000
    37 C13       -1.3262   -12.3265    11.1150 C.ar       2 BB2          0.0000
    38 C14       -0.5994   -13.4191    10.6744 C.ar       2 BB2          0.0000
    39 F15       -0.3628   -14.4545    11.5093 F          2 BB2          0.0000
    40 H16       -1.0793   -15.3164     7.7621 H          2 BB2          0.0000
    41 H17        1.7396   -16.5881     7.4961 H          2 BB2          0.0000
    42 H18        0.6586   -15.9819     6.1676 H          2 BB2          0.0000
    43 H19        2.4524   -14.2466     7.6205 H          2 BB2          0.0000
    44 H20        0.8803   -13.6610     6.9229 H          2 BB2          0.0000
    45 H21        1.3560   -15.0323     9.6667 H          2 BB2          0.0000
    46 H22        0.0317   -12.4097     7.5164 H          2 BB2          0.0000
    47 H23       -1.2685   -10.4704     8.2971 H          2 BB2          0.0000
    48 H24       -1.7075   -12.3029    12.1251 H          2 BB2          0.0000
@<TRIPOS>BOND
     1      1      2 1
     2      1     12 1
     3      1     13 1
     4      1     14 1
     5      2      3 1
     6      3      4 2
     7      3      5 1
     8      5      6 1
     9      5      9 1
    10      5     15 1
    11      6      7 1
    12      7      8 1
    13      7     16 1
    14      7     17 1
    15      8      9 1
    16      8     18 1
    17      8     19 1
    18      9     10 1
    19      9     11 1
    20     10     20 1
    21     10     21 1
    22     10     22 1
    23     11     23 1
    24     11     24 1
    25     11     25 1
    26     26     27 2
    27     27     28 1
    28     28     29 1
    29     28     31 1
    30     28     40 1
    31     29     30 1
    32     29     41 1
    33     29     42 1
    34     30     31 1
    35     30     43 1
    36     30     44 1
    37     31     32 1
    38     31     45 1
    39     32     33 ar
    40     32     38 ar
    41     33     34 ar
    42     33     46 1
    43     34     35 ar
    44     34     47 1
    45     35     36 1
    46     35     37 ar
    47     37     38 ar
    48     37     48 1
    49     38     39 1
    50      6     27 am
@<TRIPOS>SUBSTRUCTURE
     1 BB1           6
     2 BB2          27
@<TRIPOS>MOLECULE
EN300-703997_i001_EN300-306118_i001_11_10_1
  47   49   2   0   0
SMALL
USER_CHARGES
@<TRIPOS>ATOM
     1 C1         1.0029   -20.6586    12.0487 C.3        1 BB1          0.0000
     2 O2         0.9762   -19.2087    11.9760 O.3        1 BB1          0.0000
     3 C3        -0.1656   -18.6014    12.3353 C.2        1 BB1          0.0000
     4 O4        -1.1221   -19.2609    12.6673 O.2        1 BB1          0.0000
     5 C5        -0.2547   -17.0971    12.3246 C.3        1 BB1          0.0000
     6 N6         0.2851   -16.5694    11.0528 N.am       1 BB1          0.0000
     7 C7         0.9574   -15.2907    11.3977 C.3        1 BB1          0.0000
     8 C8         1.6402   -15.6035    12.7529 C.3        1 BB1          0.0000
     9 C9         0.6078   -16.5124    13.4585 C.3        1 BB1          0.0000
    10 C10       -0.2584   -15.6897    14.4144 C.3        1 BB1          0.0000
    11 C11        1.3192   -17.6346    14.2172 C.3        1 BB1          0.0000
    12 H12        0.8135   -20.9745    13.0746 H          1 BB1          0.0000
    13 H13        0.2342   -21.0695    11.3943 H          1 BB1          0.0000
    14 H14        1.9812   -21.0203    11.7319 H          1 BB1          0.0000
    15 H15       -1.2924   -16.7859    12.4452 H          1 BB1          0.0000
    16 H16        1.7003   -15.0309    10.6436 H          1 BB1          0.0000
    17 H17        0.2265   -14.4900    11.5110 H          1 BB1          0.0000
    18 H18        2.5794   -16.1345    12.5981 H          1 BB1          0.0000
    19 H19        1.8024   -14.6889    13.3233 H          1 BB1          0.0000
    20 H20       -0.7674   -14.9030    13.8575 H          1 BB1          0.0000
    21 H21       -0.9975   -16.3385    14.8846 H          1 BB1          0.0000
    22 H22        0.3725   -15.2416    15.1820 H          1 BB1          0.0000
    23 H23        1.9638   -17.2034    14.9832 H          1 BB1          0.0000
    24 H24        0.5785   -18.2813    14.6876 H          1 BB1          0.0000
    25 H25        1.9218   -18.2183    13.5216 H          1 BB1          0.0000
    26 C2         0.1195   -14.4038    10.7566 C.2        2 BB2          0.0000
    27 O3         0.6856   -15.3919    11.2023 O.2        2 BB2          0.0000
    28 C4         0.4114   -13.9416     9.3863 C.ar       2 BB2          0.0000
    29 C5         0.5717   -14.8674     8.3525 C.ar       2 BB2          0.0000
    30 C6         0.8445   -14.4280     7.0737 C.ar       2 BB2          0.0000
    31 C7         0.9599   -13.0739     6.8139 C.ar       2 BB2          0.0000
    32 C8         0.8024   -12.1509     7.8331 C.ar       2 BB2          0.0000
    33 C9         0.5231   -12.5754     9.1151 C.ar       2 BB2          0.0000
    34 C10        0.3514   -11.5687    10.2234 C.3        2 BB2          0.0000
    35 N11       -1.0436   -11.1231    10.2665 N.pl3      2 BB2          0.0000
    36 C12       -1.4690    -9.8410    10.1885 C.2        2 BB2          0.0000
    37 C13       -2.8194    -9.8863    10.2682 C.2        2 BB2          0.0000
    38 N14       -3.1497   -11.1769    10.3896 N.2        2 BB2          0.0000
    39 N15       -2.0753   -11.8843    10.3797 N.2        2 BB2          0.0000
    40 H16        0.4826   -15.9247     8.5541 H          2 BB2          0.0000
    41 H17        0.9688   -15.1425     6.2735 H          2 BB2          0.0000
    42 H18        1.1744   -12.7356     5.8108 H          2 BB2          0.0000
    43 H19        0.8941   -11.0955     7.6231 H          2 BB2          0.0000
    44 H20        0.6156   -12.0283    11.1758 H          2 BB2          0.0000
    45 H21        1.0008   -10.7127    10.0405 H          2 BB2          0.0000
    46 H22       -0.8546    -8.9590    10.0839 H          2 BB2          0.0000
    47 H23       -3.4970    -9.0458    10.2398 H          2 BB2          0.0000
@<TRIPOS>BOND
     1      1      2 1
     2      1     12 1
     3      1     13 1
     4      1     14 1
     5      2      3 1
     6      3      4 2
     7      3      5 1
     8      5      6 1
     9      5      9 1
    10      5     15 1
    11      6      7 1
    12      7      8 1
    13      7     16 1
    14      7     17 1
    15      8      9 1
    16      8     18 1
    17      8     19 1
    18      9     10 1
    19      9     11 1
    20     10     20 1
    21     10     21 1
    22     10     22 1
    23     11     23 1
    24     11     24 1
    25     11     25 1
    26     26     27 2
    27     26     28 1
    28     28     29 ar
    29     28     33 ar
    30     29     30 ar
    31     29     40 1
    32     30     31 ar
    33     30     41 1
    34     31     32 ar
    35     31     42 1
    36     32     33 ar
    37     32     43 1
    38     33     34 1
    39     34     35 1
    40     34     44 1
    41     34     45 1
    42     35     36 1
    43     35     39 1
    44     36     37 2
    45     36     46 1
    46     37     38 1
    47     37     47 1
    48     38     39 2
    49      6     26 am
@<TRIPOS>SUBSTRUCTURE
     1 BB1           6
     2 BB2          26
@<TRIPOS>MOLECULE
EN300-703997_i001_EN300-306118_i001_11_13_1
  47   49   2   0   0
SMALL
USER_CHARGES
@<TRIPOS>ATOM
     1 C1         1.0029   -20.6586    12.0487 C.3        1 BB1          0.0000
     2 O2         0.9762   -19.2087    11.9760 O.3        1 BB1          0.0000
     3 C3        -0.1656   -18.6014    12.3353 C.2        1 BB1          0.0000
     4 O4        -1.1221   -19.2609    12.6673 O.2        1 BB1          0.0000
     5 C5        -0.2547   -17.0971    12.3246 C.3        1 BB1          0.0000
     6 N6         0.2851   -16.5694    11.0528 N.am       1 BB1          0.0000
     7 C7         0.9574   -15.2907    11.3977 C.3        1 BB1          0.0000
     8 C8         1.6402   -15.6035    12.7529 C.3        1 BB1          0.0000
     9 C9         0.6078   -16.5124    13.4585 C.3        1 BB1          0.0000
    10 C10       -0.2584   -15.6897    14.4144 C.3        1 BB1          0.0000
    11 C11        1.3192   -17.6346    14.2172 C.3        1 BB1          0.0000
    12 H12        0.8135   -20.9745    13.0746 H          1 BB1          0.0000
    13 H13        0.2342   -21.0695    11.3943 H          1 BB1          0.0000
    14 H14        1.9812   -21.0203    11.7319 H          1 BB1          0.0000
    15 H15       -1.2924   -16.7859    12.4452 H          1 BB1          0.0000
    16 H16        1.7003   -15.0309    10.6436 H          1 BB1          0.0000
    17 H17        0.2265   -14.4900    11.5110 H          1 BB1          0.0000
    18 H18        2.5794   -16.1345    12.5981 H          1 BB1          0.0000
    19 H19        1.8024   -14.6889    13.3233 H          1 BB1          0.0000
    20 H20       -0.7674   -14.9030    13.8575 H          1 BB1          0.0000
    21 H21       -0.9975   -16.3385    14.8846 H          1 BB1          0.0000
    22 H22        0.3725   -15.2416    15.1820 H          1 BB1          0.0000
    23 H23        1.9638   -17.2034    14.9832 H          1 BB1          0.0000
    24 H24        0.5785   -18.2813    14.6876 H          1 BB1          0.0000
    25 H25        1.9218   -18.2183    13.5216 H          1 BB1          0.0000
    26 O1        -0.3061   -15.6175    10.8075 O.2        2 BB2          0.0000
    27 C2        -0.2542   -14.4147    11.0220 C.2        2 BB2          0.0000
    28 C4        -0.0888   -13.4717     9.8995 C.ar       2 BB2          0.0000
    29 C5         0.7755   -13.7793     8.8460 C.ar       2 BB2          0.0000
    30 C6         0.9252   -12.8927     7.7999 C.ar       2 BB2          0.0000
    31 C7         0.2221   -11.7011     7.7926 C.ar       2 BB2          0.0000
    32 C8        -0.6359   -11.3897     8.8329 C.ar       2 BB2          0.0000
    33 C9        -0.8003   -12.2692     9.8823 C.ar       2 BB2          0.0000
    34 C10       -1.7356   -11.9285    11.0138 C.3        2 BB2          0.0000
    35 N11       -2.8881   -11.1914    10.4898 N.pl3      2 BB2          0.0000
    36 C12       -3.9824   -11.7380     9.9113 C.2        2 BB2          0.0000
    37 C13       -4.7891   -10.7036     9.5780 C.2        2 BB2          0.0000
    38 N14       -4.1572    -9.5894     9.9637 N.2        2 BB2          0.0000
    39 N15       -3.0361    -9.9129    10.5053 N.2        2 BB2          0.0000
    40 H16        1.3254   -14.7088     8.8509 H          2 BB2          0.0000
    41 H17        1.5931   -13.1291     6.9848 H          2 BB2          0.0000
    42 H18        0.3438   -11.0104     6.9712 H          2 BB2          0.0000
    43 H19       -1.1813   -10.4576     8.8207 H          2 BB2          0.0000
    44 H20       -2.0780   -12.8466    11.4912 H          2 BB2          0.0000
    45 H21       -1.2121   -11.3124    11.7448 H          2 BB2          0.0000
    46 H22       -4.1735   -12.7883     9.7481 H          2 BB2          0.0000
    47 H23       -5.7532   -10.7654     9.0952 H          2 BB2          0.0000
@<TRIPOS>BOND
     1      1      2 1
     2      1     12 1
     3      1     13 1
     4      1     14 1
     5      2      3 1
     6      3      4 2
     7      3      5 1
     8      5      6 1
     9      5      9 1
    10      5     15 1
    11      6      7 1
    12      7      8 1
    13      7     16 1
    14      7     17 1
    15      8      9 1
    16      8     18 1
    17      8     19 1
    18      9     10 1
    19      9     11 1
    20     10     20 1
    21     10     21 1
    22     10     22 1
    23     11     23 1
    24     11     24 1
    25     11     25 1
    26     26     27 2
    27     27     28 1
    28     28     29 ar
    29     28     33 ar
    30     29     30 ar
    31     29     40 1
    32     30     31 ar
    33     30     41 1
    34     31     32 ar
    35     31     42 1
    36     32     33 ar
    37     32     43 1
    38     33     34 1
    39     34     35 1
    40     34     44 1
    41     34     45 1
    42     35     36 1
    43     35     39 1
    44     36     37 2
    45     36     46 1
    46     37     38 1
    47     37     47 1
    48     38     39 2
    49      6     27 am
@<TRIPOS>SUBSTRUCTURE
     1 BB1           6
     2 BB2          27
@<TRIPOS>MOLECULE
EN300-703997_i001_EN300-306118_i001_11_2_1
  47   49   2   0   0
SMALL
USER_CHARGES
@<TRIPOS>ATOM
     1 C1         1.0029   -20.6586    12.0487 C.3        1 BB1          0.0000
     2 O2         0.9762   -19.2087    11.9760 O.3        1 BB1          0.0000
     3 C3        -0.1656   -18.6014    12.3353 C.2        1 BB1          0.0000
     4 O4        -1.1221   -19.2609    12.6673 O.2        1 BB1          0.0000
     5 C5        -0.2547   -17.0971    12.3246 C.3        1 BB1          0.0000
     6 N6         0.2851   -16.5694    11.0528 N.am       1 BB1          0.0000
     7 C7         0.9574   -15.2907    11.3977 C.3        1 BB1          0.0000
     8 C8         1.6402   -15.6035    12.7529 C.3        1 BB1          0.0000
     9 C9         0.6078   -16.5124    13.4585 C.3        1 BB1          0.0000
    10 C10       -0.2584   -15.6897    14.4144 C.3        1 BB1          0.0000
    11 C11        1.3192   -17.6346    14.2172 C.3        1 BB1          0.0000
    12 H12        0.8135   -20.9745    13.0746 H          1 BB1          0.0000
    13 H13        0.2342   -21.0695    11.3943 H          1 BB1          0.0000
    14 H14        1.9812   -21.0203    11.7319 H          1 BB1          0.0000
    15 H15       -1.2924   -16.7859    12.4452 H          1 BB1          0.0000
    16 H16        1.7003   -15.0309    10.6436 H          1 BB1          0.0000
    17 H17        0.2265   -14.4900    11.5110 H          1 BB1          0.0000
    18 H18        2.5794   -16.1345    12.5981 H          1 BB1          0.0000
    19 H19        1.8024   -14.6889    13.3233 H          1 BB1          0.0000
    20 H20       -0.7674   -14.9030    13.8575 H          1 BB1          0.0000
    21 H21       -0.9975   -16.3385    14.8846 H          1 BB1          0.0000
    22 H22        0.3725   -15.2416    15.1820 H          1 BB1          0.0000
    23 H23        1.9638   -17.2034    14.9832 H          1 BB1          0.0000
    24 H24        0.5785   -18.2813    14.6876 H          1 BB1          0.0000
    25 H25        1.9218   -18.2183    13.5216 H          1 BB1          0.0000
    26 O1        -0.3996   -15.0968    11.7939 O.2        2 BB2          0.0000
    27 C2         0.6326   -14.8679    11.1794 C.2        2 BB2          0.0000
    28 C4         0.5817   -14.1401     9.8971 C.ar       2 BB2          0.0000
    29 C5         1.3893   -14.5408     8.8300 C.ar       2 BB2          0.0000
    30 C6         1.3364   -13.8555     7.6340 C.ar       2 BB2          0.0000
    31 C7         0.4864   -12.7733     7.4900 C.ar       2 BB2          0.0000
    32 C8        -0.3166   -12.3706     8.5429 C.ar       2 BB2          0.0000
    33 C9        -0.2789   -13.0501     9.7423 C.ar       2 BB2          0.0000
    34 C10       -1.1546   -12.6104    10.8873 C.3        2 BB2          0.0000
    35 N11       -2.0673   -11.5601    10.4288 N.pl3      2 BB2          0.0000
    36 C12       -1.7295   -10.2775    10.1613 C.2        2 BB2          0.0000
    37 C13       -2.8693    -9.6610     9.7705 C.2        2 BB2          0.0000
    38 N14       -3.8360   -10.5845     9.8175 N.2        2 BB2          0.0000
    39 N15       -3.3272   -11.7003    10.2060 N.2        2 BB2          0.0000
    40 H16        2.0538   -15.3849     8.9414 H          2 BB2          0.0000
    41 H17        1.9603   -14.1641     6.8083 H          2 BB2          0.0000
    42 H18        0.4497   -12.2400     6.5515 H          2 BB2          0.0000
    43 H19       -0.9775   -11.5248     8.4234 H          2 BB2          0.0000
    44 H20       -1.7320   -13.4605    11.2504 H          2 BB2          0.0000
    45 H21       -0.5313   -12.2235    11.6935 H          2 BB2          0.0000
    46 H22       -0.7479    -9.8347    10.2433 H          2 BB2          0.0000
    47 H23       -2.9773    -8.6269     9.4786 H          2 BB2          0.0000
@<TRIPOS>BOND
     1      1      2 1
     2      1     12 1
     3      1     13 1
     4      1     14 1
     5      2      3 1
     6      3      4 2
     7      3      5 1
     8      5      6 1
     9      5      9 1
    10      5     15 1
    11      6      7 1
    12      7      8 1
    13      7     16 1
    14      7     17 1
    15      8      9 1
    16      8     18 1
    17      8     19 1
    18      9     10 1
    19      9     11 1
    20     10     20 1
    21     10     21 1
    22     10     22 1
    23     11     23 1
    24     11     24 1
    25     11     25 1
    26     26     27 2
    27     27     28 1
    28     28     29 ar
    29     28     33 ar
    30     29     30 ar
    31     29     40 1
    32     30     31 ar
    33     30     41 1
    34     31     32 ar
    35     31     42 1
    36     32     33 ar
    37     32     43 1
    38     33     34 1
    39     34     35 1
    40     34     44 1
    41     34     45 1
    42     35     36 1
    43     35     39 1
    44     36     37 2
    45     36     46 1
    46     37     38 1
    47     37     47 1
    48     38     39 2
    49      6     27 am
@<TRIPOS>SUBSTRUCTURE
     1 BB1           6
     2 BB2          27
@<TRIPOS>MOLECULE
EN300-703997_i001_EN300-306118_i001_11_4_1
  47   49   2   0   0
SMALL
USER_CHARGES
@<TRIPOS>ATOM
     1 C1         1.0029   -20.6586    12.0487 C.3        1 BB1          0.0000
     2 O2         0.9762   -19.2087    11.9760 O.3        1 BB1          0.0000
     3 C3        -0.1656   -18.6014    12.3353 C.2        1 BB1          0.0000
     4 O4        -1.1221   -19.2609    12.6673 O.2        1 BB1          0.0000
     5 C5        -0.2547   -17.0971    12.3246 C.3        1 BB1          0.0000
     6 N6         0.2851   -16.5694    11.0528 N.am       1 BB1          0.0000
     7 C7         0.9574   -15.2907    11.3977 C.3        1 BB1          0.0000
     8 C8         1.6402   -15.6035    12.7529 C.3        1 BB1          0.0000
     9 C9         0.6078   -16.5124    13.4585 C.3        1 BB1          0.0000
    10 C10       -0.2584   -15.6897    14.4144 C.3        1 BB1          0.0000
    11 C11        1.3192   -17.6346    14.2172 C.3        1 BB1          0.0000
    12 H12        0.8135   -20.9745    13.0746 H          1 BB1          0.0000
    13 H13        0.2342   -21.0695    11.3943 H          1 BB1          0.0000
    14 H14        1.9812   -21.0203    11.7319 H          1 BB1          0.0000
    15 H15       -1.2924   -16.7859    12.4452 H          1 BB1          0.0000
    16 H16        1.7003   -15.0309    10.6436 H          1 BB1          0.0000
    17 H17        0.2265   -14.4900    11.5110 H          1 BB1          0.0000
    18 H18        2.5794   -16.1345    12.5981 H          1 BB1          0.0000
    19 H19        1.8024   -14.6889    13.3233 H          1 BB1          0.0000
    20 H20       -0.7674   -14.9030    13.8575 H          1 BB1          0.0000
    21 H21       -0.9975   -16.3385    14.8846 H          1 BB1          0.0000
    22 H22        0.3725   -15.2416    15.1820 H          1 BB1          0.0000
    23 H23        1.9638   -17.2034    14.9832 H          1 BB1          0.0000
    24 H24        0.5785   -18.2813    14.6876 H          1 BB1          0.0000
    25 H25        1.9218   -18.2183    13.5216 H          1 BB1          0.0000
    26 C2         0.0232   -14.5029    10.8440 C.2        2 BB2          0.0000
    27 O3         0.5964   -15.4713    11.3227 O.2        2 BB2          0.0000
    28 C4         0.1943   -14.1761     9.4156 C.ar       2 BB2          0.0000
    29 C5         0.2000   -15.1937     8.4585 C.ar       2 BB2          0.0000
    30 C6         0.3606   -14.8807     7.1247 C.ar       2 BB2          0.0000
    31 C7         0.5162   -13.5625     6.7340 C.ar       2 BB2          0.0000
    32 C8         0.5116   -12.5491     7.6766 C.ar       2 BB2          0.0000
    33 C9         0.3458   -12.8466     9.0128 C.ar       2 BB2          0.0000
    34 C10        0.3405   -11.7416    10.0376 C.3        2 BB2          0.0000
    35 N11       -0.8775   -10.9417     9.8869 N.pl3      2 BB2          0.0000
    36 C12       -1.9601   -10.9853    10.6975 C.2        2 BB2          0.0000
    37 C13       -2.8435   -10.0913    10.1954 C.2        2 BB2          0.0000
    38 N14       -2.2659    -9.5516     9.1162 N.2        2 BB2          0.0000
    39 N15       -1.0997   -10.0726     8.9638 N.2        2 BB2          0.0000
    40 H16        0.0794   -16.2231     8.7623 H          2 BB2          0.0000
    41 H17        0.3653   -15.6663     6.3837 H          2 BB2          0.0000
    42 H18        0.6423   -13.3234     5.6883 H          2 BB2          0.0000
    43 H19        0.6339   -11.5225     7.3644 H          2 BB2          0.0000
    44 H20        0.3700   -12.1736    11.0379 H          2 BB2          0.0000
    45 H21        1.2134   -11.1056     9.8906 H          2 BB2          0.0000
    46 H22       -2.0926   -11.6083    11.5697 H          2 BB2          0.0000
    47 H23       -3.8224    -9.8595    10.5883 H          2 BB2          0.0000
@<TRIPOS>BOND
     1      1      2 1
     2      1     12 1
     3      1     13 1
     4      1     14 1
     5      2      3 1
     6      3      4 2
     7      3      5 1
     8      5      6 1
     9      5      9 1
    10      5     15 1
    11      6      7 1
    12      7      8 1
    13      7     16 1
    14      7     17 1
    15      8      9 1
    16      8     18 1
    17      8     19 1
    18      9     10 1
    19      9     11 1
    20     10     20 1
    21     10     21 1
    22     10     22 1
    23     11     23 1
    24     11     24 1
    25     11     25 1
    26     26     27 2
    27     26     28 1
    28     28     29 ar
    29     28     33 ar
    30     29     30 ar
    31     29     40 1
    32     30     31 ar
    33     30     41 1
    34     31     32 ar
    35     31     42 1
    36     32     33 ar
    37     32     43 1
    38     33     34 1
    39     34     35 1
    40     34     44 1
    41     34     45 1
    42     35     36 1
    43     35     39 1
    44     36     37 2
    45     36     46 1
    46     37     38 1
    47     37     47 1
    48     38     39 2
    49      6     26 am
@<TRIPOS>SUBSTRUCTURE
     1 BB1           6
     2 BB2          26
@<TRIPOS>MOLECULE
EN300-703997_i001_EN300-306118_i001_11_6_1
  47   49   2   0   0
SMALL
USER_CHARGES
@<TRIPOS>ATOM
     1 C1         1.0029   -20.6586    12.0487 C.3        1 BB1          0.0000
     2 O2         0.9762   -19.2087    11.9760 O.3        1 BB1          0.0000
     3 C3        -0.1656   -18.6014    12.3353 C.2        1 BB1          0.0000
     4 O4        -1.1221   -19.2609    12.6673 O.2        1 BB1          0.0000
     5 C5        -0.2547   -17.0971    12.3246 C.3        1 BB1          0.0000
     6 N6         0.2851   -16.5694    11.0528 N.am       1 BB1          0.0000
     7 C7         0.9574   -15.2907    11.3977 C.3        1 BB1          0.0000
     8 C8         1.6402   -15.6035    12.7529 C.3        1 BB1          0.0000
     9 C9         0.6078   -16.5124    13.4585 C.3        1 BB1          0.0000
    10 C10       -0.2584   -15.6897    14.4144 C.3        1 BB1          0.0000
    11 C11        1.3192   -17.6346    14.2172 C.3        1 BB1          0.0000
    12 H12        0.8135   -20.9745    13.0746 H          1 BB1          0.0000
    13 H13        0.2342   -21.0695    11.3943 H          1 BB1          0.0000
    14 H14        1.9812   -21.0203    11.7319 H          1 BB1          0.0000
    15 H15       -1.2924   -16.7859    12.4452 H          1 BB1          0.0000
    16 H16        1.7003   -15.0309    10.6436 H          1 BB1          0.0000
    17 H17        0.2265   -14.4900    11.5110 H          1 BB1          0.0000
    18 H18        2.5794   -16.1345    12.5981 H          1 BB1          0.0000
    19 H19        1.8024   -14.6889    13.3233 H          1 BB1          0.0000
    20 H20       -0.7674   -14.9030    13.8575 H          1 BB1          0.0000
    21 H21       -0.9975   -16.3385    14.8846 H          1 BB1          0.0000
    22 H22        0.3725   -15.2416    15.1820 H          1 BB1          0.0000
    23 H23        1.9638   -17.2034    14.9832 H          1 BB1          0.0000
    24 H24        0.5785   -18.2813    14.6876 H          1 BB1          0.0000
    25 H25        1.9218   -18.2183    13.5216 H          1 BB1          0.0000
    26 C2        -0.3996   -13.7304    10.8133 C.2        2 BB2          0.0000
    27 O3         0.0088   -14.6778    11.4700 O.2        2 BB2          0.0000
    28 C4         0.1276   -13.4914     9.4563 C.ar       2 BB2          0.0000
    29 C5         0.3583   -14.5656     8.5936 C.ar       2 BB2          0.0000
    30 C6         0.8514   -14.3346     7.3262 C.ar       2 BB2          0.0000
    31 C7         1.1179   -13.0426     6.9090 C.ar       2 BB2          0.0000
    32 C8         0.8918   -11.9734     7.7582 C.ar       2 BB2          0.0000
    33 C9         0.3932   -12.1888     9.0257 C.ar       2 BB2          0.0000
    34 C10        0.1472   -11.0231     9.9488 C.3        2 BB2          0.0000
    35 N11       -1.2932   -10.7753    10.0492 N.pl3      2 BB2          0.0000
    36 C12       -2.2529   -11.3618     9.2971 C.2        2 BB2          0.0000
    37 C13       -3.4309   -10.8465     9.7198 C.2        2 BB2          0.0000
    38 N14       -3.1380    -9.9810    10.6969 N.2        2 BB2          0.0000
    39 N15       -1.8637    -9.9660    10.8717 N.2        2 BB2          0.0000
    40 H16        0.1514   -15.5747     8.9183 H          2 BB2          0.0000
    41 H17        1.0303   -15.1641     6.6582 H          2 BB2          0.0000
    42 H18        1.5046   -12.8676     5.9157 H          2 BB2          0.0000
    43 H19        1.1024   -10.9676     7.4259 H          2 BB2          0.0000
    44 H20        0.5463   -11.2516    10.9369 H          2 BB2          0.0000
    45 H21        0.6418   -10.1360     9.5534 H          2 BB2          0.0000
    46 H22       -2.1081   -12.0939     8.5164 H          2 BB2          0.0000
    47 H23       -4.4139   -11.0863     9.3423 H          2 BB2          0.0000
@<TRIPOS>BOND
     1      1      2 1
     2      1     12 1
     3      1     13 1
     4      1     14 1
     5      2      3 1
     6      3      4 2
     7      3      5 1
     8      5      6 1
     9      5      9 1
    10      5     15 1
    11      6      7 1
    12      7      8 1
    13      7     16 1
    14      7     17 1
    15      8      9 1
    16      8     18 1
    17      8     19 1
    18      9     10 1
    19      9     11 1
    20     10     20 1
    21     10     21 1
    22     10     22 1
    23     11     23 1
    24     11     24 1
    25     11     25 1
    26     26     27 2
    27     26     28 1
    28     28     29 ar
    29     28     33 ar
    30     29     30 ar
    31     29     40 1
    32     30     31 ar
    33     30     41 1
    34     31     32 ar
    35     31     42 1
    36     32     33 ar
    37     32     43 1
    38     33     34 1
    39     34     35 1
    40     34     44 1
    41     34     45 1
    42     35     36 1
    43     35     39 1
    44     36     37 2
    45     36     46 1
    46     37     38 1
    47     37     47 1
    48     38     39 2
    49      6     26 am
@<TRIPOS>SUBSTRUCTURE
     1 BB1           6
     2 BB2          26
@<TRIPOS>MOLECULE
EN300-703997_i001_EN300-306118_i001_11_7_1
  47   49   2   0   0
SMALL
USER_CHARGES
@<TRIPOS>ATOM
     1 C1         1.0029   -20.6586    12.0487 C.3        1 BB1          0.0000
     2 O2         0.9762   -19.2087    11.9760 O.3        1 BB1          0.0000
     3 C3        -0.1656   -18.6014    12.3353 C.2        1 BB1          0.0000
     4 O4        -1.1221   -19.2609    12.6673 O.2        1 BB1          0.0000
     5 C5        -0.2547   -17.0971    12.3246 C.3        1 BB1          0.0000
     6 N6         0.2851   -16.5694    11.0528 N.am       1 BB1          0.0000
     7 C7         0.9574   -15.2907    11.3977 C.3        1 BB1          0.0000
     8 C8         1.6402   -15.6035    12.7529 C.3        1 BB1          0.0000
     9 C9         0.6078   -16.5124    13.4585 C.3        1 BB1          0.0000
    10 C10       -0.2584   -15.6897    14.4144 C.3        1 BB1          0.0000
    11 C11        1.3192   -17.6346    14.2172 C.3        1 BB1          0.0000
    12 H12        0.8135   -20.9745    13.0746 H          1 BB1          0.0000
    13 H13        0.2342   -21.0695    11.3943 H          1 BB1          0.0000
    14 H14        1.9812   -21.0203    11.7319 H          1 BB1          0.0000
    15 H15       -1.2924   -16.7859    12.4452 H          1 BB1          0.0000
    16 H16        1.7003   -15.0309    10.6436 H          1 BB1          0.0000
    17 H17        0.2265   -14.4900    11.5110 H          1 BB1          0.0000
    18 H18        2.5794   -16.1345    12.5981 H          1 BB1          0.0000
    19 H19        1.8024   -14.6889    13.3233 H          1 BB1          0.0000
    20 H20       -0.7674   -14.9030    13.8575 H          1 BB1          0.0000
    21 H21       -0.9975   -16.3385    14.8846 H          1 BB1          0.0000
    22 H22        0.3725   -15.2416    15.1820 H          1 BB1          0.0000
    23 H23        1.9638   -17.2034    14.9832 H          1 BB1          0.0000
    24 H24        0.5785   -18.2813    14.6876 H          1 BB1          0.0000
    25 H25        1.9218   -18.2183    13.5216 H          1 BB1          0.0000
    26 C2         0.3107   -14.7692    11.2595 C.2        2 BB2          0.0000
    27 O3         1.3333   -15.2930    11.6783 O.2        2 BB2          0.0000
    28 C4         0.2910   -14.1590     9.9165 C.ar       2 BB2          0.0000
    29 C5         0.9400   -14.7869     8.8506 C.ar       2 BB2          0.0000
    30 C6         0.9175   -14.2104     7.5976 C.ar       2 BB2          0.0000
    31 C7         0.2545   -13.0130     7.3953 C.ar       2 BB2          0.0000
    32 C8        -0.3907   -12.3851     8.4465 C.ar       2 BB2          0.0000
    33 C9        -0.3818   -12.9530     9.7032 C.ar       2 BB2          0.0000
    34 C10       -1.0854   -12.2680    10.8464 C.3        2 BB2          0.0000
    35 N11       -1.9001   -11.1660    10.3286 N.pl3      2 BB2          0.0000
    36 C12       -3.2480   -11.0736    10.4030 C.2        2 BB2          0.0000
    37 C13       -3.5794    -9.9055     9.8051 C.2        2 BB2          0.0000
    38 N14       -2.4331    -9.3478     9.3992 N.2        2 BB2          0.0000
    39 N15       -1.4563   -10.1169     9.7294 N.2        2 BB2          0.0000
    40 H16        1.4585   -15.7213     9.0074 H          2 BB2          0.0000
    41 H17        1.4188   -14.6947     6.7727 H          2 BB2          0.0000
    42 H18        0.2408   -12.5658     6.4122 H          2 BB2          0.0000
    43 H19       -0.9059   -11.4505     8.2813 H          2 BB2          0.0000
    44 H20       -1.7270   -12.9843    11.3596 H          2 BB2          0.0000
    45 H21       -0.3465   -11.8763    11.5454 H          2 BB2          0.0000
    46 H22       -3.9235   -11.7882    10.8496 H          2 BB2          0.0000
    47 H23       -4.5737    -9.5029     9.6797 H          2 BB2          0.0000
@<TRIPOS>BOND
     1      1      2 1
     2      1     12 1
     3      1     13 1
     4      1     14 1
     5      2      3 1
     6      3      4 2
     7      3      5 1
     8      5      6 1
     9      5      9 1
    10      5     15 1
    11      6      7 1
    12      7      8 1
    13      7     16 1
    14      7     17 1
    15      8      9 1
    16      8     18 1
    17      8     19 1
    18      9     10 1
    19      9     11 1
    20     10     20 1
    21     10     21 1
    22     10     22 1
    23     11     23 1
    24     11     24 1
    25     11     25 1
    26     26     27 2
    27     26     28 1
    28     28     29 ar
    29     28     33 ar
    30     29     30 ar
    31     29     40 1
    32     30     31 ar
    33     30     41 1
    34     31     32 ar
    35     31     42 1
    36     32     33 ar
    37     32     43 1
    38     33     34 1
    39     34     35 1
    40     34     44 1
    41     34     45 1
    42     35     36 1
    43     35     39 1
    44     36     37 2
    45     36     46 1
    46     37     38 1
    47     37     47 1
    48     38     39 2
    49      6     26 am
@<TRIPOS>SUBSTRUCTURE
     1 BB1           6
     2 BB2          26
@<TRIPOS>MOLECULE
EN300-703997_i001_EN300-344045_i001_11_2_1
  54   56   2   0   0
SMALL
USER_CHARGES
@<TRIPOS>ATOM
     1 C1         1.0029   -20.6586    12.0487 C.3        1 BB1          0.0000
     2 O2         0.9762   -19.2087    11.9760 O.3        1 BB1          0.0000
     3 C3        -0.1656   -18.6014    12.3353 C.2        1 BB1          0.0000
     4 O4        -1.1221   -19.2609    12.6673 O.2        1 BB1          0.0000
     5 C5        -0.2547   -17.0971    12.3246 C.3        1 BB1          0.0000
     6 N6         0.2851   -16.5694    11.0528 N.am       1 BB1          0.0000
     7 C7         0.9574   -15.2907    11.3977 C.3        1 BB1          0.0000
     8 C8         1.6402   -15.6035    12.7529 C.3        1 BB1          0.0000
     9 C9         0.6078   -16.5124    13.4585 C.3        1 BB1          0.0000
    10 C10       -0.2584   -15.6897    14.4144 C.3        1 BB1          0.0000
    11 C11        1.3192   -17.6346    14.2172 C.3        1 BB1          0.0000
    12 H12        0.8135   -20.9745    13.0746 H          1 BB1          0.0000
    13 H13        0.2342   -21.0695    11.3943 H          1 BB1          0.0000
    14 H14        1.9812   -21.0203    11.7319 H          1 BB1          0.0000
    15 H15       -1.2924   -16.7859    12.4452 H          1 BB1          0.0000
    16 H16        1.7003   -15.0309    10.6436 H          1 BB1          0.0000
    17 H17        0.2265   -14.4900    11.5110 H          1 BB1          0.0000
    18 H18        2.5794   -16.1345    12.5981 H          1 BB1          0.0000
    19 H19        1.8024   -14.6889    13.3233 H          1 BB1          0.0000
    20 H20       -0.7674   -14.9030    13.8575 H          1 BB1          0.0000
    21 H21       -0.9975   -16.3385    14.8846 H          1 BB1          0.0000
    22 H22        0.3725   -15.2416    15.1820 H          1 BB1          0.0000
    23 H23        1.9638   -17.2034    14.9832 H          1 BB1          0.0000
    24 H24        0.5785   -18.2813    14.6876 H          1 BB1          0.0000
    25 H25        1.9218   -18.2183    13.5216 H          1 BB1          0.0000
    26 O1         0.5661   -15.7707    10.9576 O.2        2 BB2          0.0000
    27 C2         0.2489   -14.5943    11.0019 C.2        2 BB2          0.0000
    28 C4         0.9922   -13.5817    10.1694 C.3        2 BB2          0.0000
    29 C5         0.0568   -13.0163     9.0988 C.3        2 BB2          0.0000
    30 C6         0.8768   -12.3025     8.0042 C.3        2 BB2          0.0000
    31 C7         1.0511   -13.3749     6.9002 C.3        2 BB2          0.0000
    32 C8        -0.3163   -14.1023     6.9114 C.3        2 BB2          0.0000
    33 C9        -0.7017   -14.1605     8.4040 C.3        2 BB2          0.0000
    34 C10       -0.9194   -12.0528     9.7233 C.ar       2 BB2          0.0000
    35 C11       -0.7018   -11.5818    11.0046 C.ar       2 BB2          0.0000
    36 C12       -1.5972   -10.6981    11.5774 C.ar       2 BB2          0.0000
    37 C13       -2.7099   -10.2850    10.8687 C.ar       2 BB2          0.0000
    38 C14       -2.9270   -10.7553     9.5871 C.ar       2 BB2          0.0000
    39 C15       -2.0292   -11.6357     9.0126 C.ar       2 BB2          0.0000
    40 H16        1.3431   -12.7722    10.8096 H          2 BB2          0.0000
    41 H17        1.8455   -14.0614     9.6898 H          2 BB2          0.0000
    42 H18        0.3298   -11.4425     7.6177 H          2 BB2          0.0000
    43 H19        1.8472   -11.9949     8.3939 H          2 BB2          0.0000
    44 H20        1.2319   -12.9071     5.9324 H          2 BB2          0.0000
    45 H21        1.8570   -14.0634     7.1543 H          2 BB2          0.0000
    46 H22       -1.0559   -13.5330     6.3483 H          2 BB2          0.0000
    47 H23       -0.2166   -15.1082     6.5036 H          2 BB2          0.0000
    48 H24       -0.4034   -15.1187     8.8294 H          2 BB2          0.0000
    49 H25       -1.7765   -14.0194     8.5179 H          2 BB2          0.0000
    50 H26        0.1674   -11.9045    11.5583 H          2 BB2          0.0000
    51 H27       -1.4278   -10.3307    12.5787 H          2 BB2          0.0000
    52 H28       -3.4099    -9.5951    11.3165 H          2 BB2          0.0000
    53 H29       -3.7964   -10.4328     9.0334 H          2 BB2          0.0000
    54 H30       -2.1987   -12.0032     8.0113 H          2 BB2          0.0000
@<TRIPOS>BOND
     1      1      2 1
     2      1     12 1
     3      1     13 1
     4      1     14 1
     5      2      3 1
     6      3      4 2
     7      3      5 1
     8      5      6 1
     9      5      9 1
    10      5     15 1
    11      6      7 1
    12      7      8 1
    13      7     16 1
    14      7     17 1
    15      8      9 1
    16      8     18 1
    17      8     19 1
    18      9     10 1
    19      9     11 1
    20     10     20 1
    21     10     21 1
    22     10     22 1
    23     11     23 1
    24     11     24 1
    25     11     25 1
    26     26     27 2
    27     27     28 1
    28     28     29 1
    29     28     40 1
    30     28     41 1
    31     29     30 1
    32     29     33 1
    33     29     34 1
    34     30     31 1
    35     30     42 1
    36     30     43 1
    37     31     32 1
    38     31     44 1
    39     31     45 1
    40     32     33 1
    41     32     46 1
    42     32     47 1
    43     33     48 1
    44     33     49 1
    45     34     35 ar
    46     34     39 ar
    47     35     36 ar
    48     35     50 1
    49     36     37 ar
    50     36     51 1
    51     37     38 ar
    52     37     52 1
    53     38     39 ar
    54     38     53 1
    55     39     54 1
    56      6     27 am
@<TRIPOS>SUBSTRUCTURE
     1 BB1           6
     2 BB2          27
@<TRIPOS>MOLECULE
EN300-703997_i001_EN300-344045_i001_11_3_1
  54   56   2   0   0
SMALL
USER_CHARGES
@<TRIPOS>ATOM
     1 C1         1.0029   -20.6586    12.0487 C.3        1 BB1          0.0000
     2 O2         0.9762   -19.2087    11.9760 O.3        1 BB1          0.0000
     3 C3        -0.1656   -18.6014    12.3353 C.2        1 BB1          0.0000
     4 O4        -1.1221   -19.2609    12.6673 O.2        1 BB1          0.0000
     5 C5        -0.2547   -17.0971    12.3246 C.3        1 BB1          0.0000
     6 N6         0.2851   -16.5694    11.0528 N.am       1 BB1          0.0000
     7 C7         0.9574   -15.2907    11.3977 C.3        1 BB1          0.0000
     8 C8         1.6402   -15.6035    12.7529 C.3        1 BB1          0.0000
     9 C9         0.6078   -16.5124    13.4585 C.3        1 BB1          0.0000
    10 C10       -0.2584   -15.6897    14.4144 C.3        1 BB1          0.0000
    11 C11        1.3192   -17.6346    14.2172 C.3        1 BB1          0.0000
    12 H12        0.8135   -20.9745    13.0746 H          1 BB1          0.0000
    13 H13        0.2342   -21.0695    11.3943 H          1 BB1          0.0000
    14 H14        1.9812   -21.0203    11.7319 H          1 BB1          0.0000
    15 H15       -1.2924   -16.7859    12.4452 H          1 BB1          0.0000
    16 H16        1.7003   -15.0309    10.6436 H          1 BB1          0.0000
    17 H17        0.2265   -14.4900    11.5110 H          1 BB1          0.0000
    18 H18        2.5794   -16.1345    12.5981 H          1 BB1          0.0000
    19 H19        1.8024   -14.6889    13.3233 H          1 BB1          0.0000
    20 H20       -0.7674   -14.9030    13.8575 H          1 BB1          0.0000
    21 H21       -0.9975   -16.3385    14.8846 H          1 BB1          0.0000
    22 H22        0.3725   -15.2416    15.1820 H          1 BB1          0.0000
    23 H23        1.9638   -17.2034    14.9832 H          1 BB1          0.0000
    24 H24        0.5785   -18.2813    14.6876 H          1 BB1          0.0000
    25 H25        1.9218   -18.2183    13.5216 H          1 BB1          0.0000
    26 C2         0.5459   -14.5453    10.1019 C.2        2 BB2          0.0000
    27 O3         0.1752   -15.4776     9.4091 O.2        2 BB2          0.0000
    28 C4        -0.4230   -13.4540    10.4780 C.3        2 BB2          0.0000
    29 C5        -0.6345   -12.5251     9.2809 C.3        2 BB2          0.0000
    30 C6         0.6374   -11.6890     9.0294 C.3        2 BB2          0.0000
    31 C7         1.4011   -12.4785     7.9373 C.3        2 BB2          0.0000
    32 C8         0.2593   -12.9923     7.0255 C.3        2 BB2          0.0000
    33 C9        -0.8749   -13.3536     8.0068 C.3        2 BB2          0.0000
    34 C10       -1.8085   -11.6149     9.5352 C.ar       2 BB2          0.0000
    35 C11       -3.0826   -12.1418     9.6348 C.ar       2 BB2          0.0000
    36 C12       -4.1594   -11.3070     9.8680 C.ar       2 BB2          0.0000
    37 C13       -3.9620    -9.9453    10.0023 C.ar       2 BB2          0.0000
    38 C14       -2.6878    -9.4186     9.9036 C.ar       2 BB2          0.0000
    39 C15       -1.6104   -10.2540     9.6747 C.ar       2 BB2          0.0000
    40 H16       -1.3759   -13.8977    10.7665 H          2 BB2          0.0000
    41 H17       -0.0201   -12.8827    11.3144 H          2 BB2          0.0000
    42 H18        0.3751   -10.6947     8.6682 H          2 BB2          0.0000
    43 H19        1.2348   -11.6204     9.9386 H          2 BB2          0.0000
    44 H20        2.0718   -11.8214     7.3835 H          2 BB2          0.0000
    45 H21        1.9500   -13.3119     8.3758 H          2 BB2          0.0000
    46 H22       -0.0641   -12.2083     6.3407 H          2 BB2          0.0000
    47 H23        0.5807   -13.8747     6.4723 H          2 BB2          0.0000
    48 H24       -0.8408   -14.4175     8.2413 H          2 BB2          0.0000
    49 H25       -1.8409   -13.0975     7.5716 H          2 BB2          0.0000
    50 H26       -3.2369   -13.2055     9.5299 H          2 BB2          0.0000
    51 H27       -5.1549   -11.7185     9.9450 H          2 BB2          0.0000
    52 H28       -4.8033    -9.2931    10.1838 H          2 BB2          0.0000
    53 H29       -2.5335    -8.3548    10.0082 H          2 BB2          0.0000
    54 H30       -0.6148    -9.8425     9.5976 H          2 BB2          0.0000
@<TRIPOS>BOND
     1      1      2 1
     2      1     12 1
     3      1     13 1
     4      1     14 1
     5      2      3 1
     6      3      4 2
     7      3      5 1
     8      5      6 1
     9      5      9 1
    10      5     15 1
    11      6      7 1
    12      7      8 1
    13      7     16 1
    14      7     17 1
    15      8      9 1
    16      8     18 1
    17      8     19 1
    18      9     10 1
    19      9     11 1
    20     10     20 1
    21     10     21 1
    22     10     22 1
    23     11     23 1
    24     11     24 1
    25     11     25 1
    26     26     27 2
    27     26     28 1
    28     28     29 1
    29     28     40 1
    30     28     41 1
    31     29     30 1
    32     29     33 1
    33     29     34 1
    34     30     31 1
    35     30     42 1
    36     30     43 1
    37     31     32 1
    38     31     44 1
    39     31     45 1
    40     32     33 1
    41     32     46 1
    42     32     47 1
    43     33     48 1
    44     33     49 1
    45     34     35 ar
    46     34     39 ar
    47     35     36 ar
    48     35     50 1
    49     36     37 ar
    50     36     51 1
    51     37     38 ar
    52     37     52 1
    53     38     39 ar
    54     38     53 1
    55     39     54 1
    56      6     26 am
@<TRIPOS>SUBSTRUCTURE
     1 BB1           6
     2 BB2          26
@<TRIPOS>MOLECULE
EN300-703997_i001_EN300-1198129_i001_13_11_1
  49   50   2   0   0
SMALL
USER_CHARGES
@<TRIPOS>ATOM
     1 C1        -1.1814   -18.6017     9.2572 C.3        1 BB1          0.0000
     2 O2        -0.1787   -18.0877    10.1731 O.3        1 BB1          0.0000
     3 C3        -0.5811   -17.8081    11.4227 C.2        1 BB1          0.0000
     4 O4        -1.4865   -18.4346    11.9203 O.2        1 BB1          0.0000
     5 C5         0.0965   -16.7128    12.2051 C.3        1 BB1          0.0000
     6 N6         1.0282   -15.9701    11.3289 N.am       1 BB1          0.0000
     7 C7         2.1822   -15.5988    12.1872 C.3        1 BB1          0.0000
     8 C8         2.3840   -16.8543    13.0725 C.3        1 BB1          0.0000
     9 C9         0.9358   -17.3229    13.3429 C.3        1 BB1          0.0000
    10 C10        0.4531   -16.8010    14.6977 C.3        1 BB1          0.0000
    11 C11        0.8556   -18.8503    13.3018 C.3        1 BB1          0.0000
    12 H12       -1.5879   -19.5339     9.6494 H          1 BB1          0.0000
    13 H13       -1.9839   -17.8720     9.1501 H          1 BB1          0.0000
    14 H14       -0.7249   -18.7852     8.2845 H          1 BB1          0.0000
    15 H15       -0.6504   -16.0325    12.6143 H          1 BB1          0.0000
    16 H16        3.0677   -15.4096    11.5805 H          1 BB1          0.0000
    17 H17        1.9420   -14.7303    12.8004 H          1 BB1          0.0000
    18 H18        2.9430   -17.6199    12.5344 H          1 BB1          0.0000
    19 H19        2.8851   -16.5927    14.0044 H          1 BB1          0.0000
    20 H20        0.5047   -15.7123    14.7069 H          1 BB1          0.0000
    21 H21       -0.5769   -17.1173    14.8629 H          1 BB1          0.0000
    22 H22        1.0874   -17.2015    15.4884 H          1 BB1          0.0000
    23 H23        1.4934   -19.2688    14.0804 H          1 BB1          0.0000
    24 H24       -0.1748   -19.1645    13.4684 H          1 BB1          0.0000
    25 H25        1.1908   -19.2057    12.3275 H          1 BB1          0.0000
    26 O1         0.0143   -16.1877    10.6382 O.2        2 BB2          0.0000
    27 C2        -0.1070   -15.9082     9.4535 C.2        2 BB2          0.0000
    28 C4         0.0888   -14.5199     9.0003 C.ar       2 BB2          0.0000
    29 C5        -0.2536   -13.4529     9.8358 C.ar       2 BB2          0.0000
    30 C6        -0.0676   -12.1568     9.4051 C.ar       2 BB2          0.0000
    31 C7         0.4567   -11.9083     8.1479 C.ar       2 BB2          0.0000
    32 C8         0.7986   -12.9562     7.3134 C.ar       2 BB2          0.0000
    33 C9         0.6244   -14.2623     7.7324 C.ar       2 BB2          0.0000
    34 F10        0.9586   -15.2862     6.9169 F          2 BB2          0.0000
    35 S11       -0.4990   -10.8115    10.4579 S.o2       2 BB2          0.0000
    36 O12       -0.9885   -11.4332    11.6382 O.2        2 BB2          0.0000
    37 O13        0.6677   -10.0009    10.4867 O.2        2 BB2          0.0000
    38 C14       -1.8418    -9.9635     9.5814 C.3        2 BB2          0.0000
    39 C15       -3.0735    -9.8878    10.4860 C.3        2 BB2          0.0000
    40 C16       -4.1017   -10.8192     9.9938 C.1        2 BB2          0.0000
    41 C17       -4.9218   -11.5619     9.6012 C.1        2 BB2          0.0000
    42 H18       -0.6632   -13.6436    10.8167 H          2 BB2          0.0000
    43 H19        0.5988   -10.8901     7.8170 H          2 BB2          0.0000
    44 H20        1.2070   -12.7542     6.3343 H          2 BB2          0.0000
    45 H21       -1.5232    -8.9553     9.3166 H          2 BB2          0.0000
    46 H22       -2.0901   -10.5158     8.6751 H          2 BB2          0.0000
    47 H23       -2.7940   -10.1601    11.5037 H          2 BB2          0.0000
    48 H24       -3.4691    -8.8722    10.4771 H          2 BB2          0.0000
    49 H25       -5.6553   -12.2263     9.2502 H          2 BB2          0.0000
@<TRIPOS>BOND
     1      1      2 1
     2      1     12 1
     3      1     13 1
     4      1     14 1
     5      2      3 1
     6      3      4 2
     7      3      5 1
     8      5      6 1
     9      5      9 1
    10      5     15 1
    11      6      7 1
    12      7      8 1
    13      7     16 1
    14      7     17 1
    15      8      9 1
    16      8     18 1
    17      8     19 1
    18      9     10 1
    19      9     11 1
    20     10     20 1
    21     10     21 1
    22     10     22 1
    23     11     23 1
    24     11     24 1
    25     11     25 1
    26     26     27 2
    27     27     28 1
    28     28     29 ar
    29     28     33 ar
    30     29     30 ar
    31     29     42 1
    32     30     31 ar
    33     30     35 1
    34     31     32 ar
    35     31     43 1
    36     32     33 ar
    37     32     44 1
    38     33     34 1
    39     35     36 2
    40     35     37 2
    41     35     38 1
    42     38     39 1
    43     38     45 1
    44     38     46 1
    45     39     40 1
    46     39     47 1
    47     39     48 1
    48     40     41 3
    49     41     49 1
    50      6     27 am
@<TRIPOS>SUBSTRUCTURE
     1 BB1           6
     2 BB2          27
@<TRIPOS>MOLECULE
EN300-703997_i001_EN300-4287209_i001_13_3_1
  40   41   2   0   0
SMALL
USER_CHARGES
@<TRIPOS>ATOM
     1 C1        -1.1814   -18.6017     9.2572 C.3        1 BB1          0.0000
     2 O2        -0.1787   -18.0877    10.1731 O.3        1 BB1          0.0000
     3 C3        -0.5811   -17.8081    11.4227 C.2        1 BB1          0.0000
     4 O4        -1.4865   -18.4346    11.9203 O.2        1 BB1          0.0000
     5 C5         0.0965   -16.7128    12.2051 C.3        1 BB1          0.0000
     6 N6         1.0282   -15.9701    11.3289 N.am       1 BB1          0.0000
     7 C7         2.1822   -15.5988    12.1872 C.3        1 BB1          0.0000
     8 C8         2.3840   -16.8543    13.0725 C.3        1 BB1          0.0000
     9 C9         0.9358   -17.3229    13.3429 C.3        1 BB1          0.0000
    10 C10        0.4531   -16.8010    14.6977 C.3        1 BB1          0.0000
    11 C11        0.8556   -18.8503    13.3018 C.3        1 BB1          0.0000
    12 H12       -1.5879   -19.5339     9.6494 H          1 BB1          0.0000
    13 H13       -1.9839   -17.8720     9.1501 H          1 BB1          0.0000
    14 H14       -0.7249   -18.7852     8.2845 H          1 BB1          0.0000
    15 H15       -0.6504   -16.0325    12.6143 H          1 BB1          0.0000
    16 H16        3.0677   -15.4096    11.5805 H          1 BB1          0.0000
    17 H17        1.9420   -14.7303    12.8004 H          1 BB1          0.0000
    18 H18        2.9430   -17.6199    12.5344 H          1 BB1          0.0000
    19 H19        2.8851   -16.5927    14.0044 H          1 BB1          0.0000
    20 H20        0.5047   -15.7123    14.7069 H          1 BB1          0.0000
    21 H21       -0.5769   -17.1173    14.8629 H          1 BB1          0.0000
    22 H22        1.0874   -17.2015    15.4884 H          1 BB1          0.0000
    23 H23        1.4934   -19.2688    14.0804 H          1 BB1          0.0000
    24 H24       -0.1748   -19.1645    13.4684 H          1 BB1          0.0000
    25 H25        1.1908   -19.2057    12.3275 H          1 BB1          0.0000
    26 O1         0.9022   -15.2848    11.2052 O.2        2 BB2          0.0000
    27 C2        -0.0043   -14.5201    11.5040 C.2        2 BB2          0.0000
    28 C4        -0.4017   -13.4480    10.5724 C.ar       2 BB2          0.0000
    29 C5        -1.5033   -12.6425    10.8617 C.ar       2 BB2          0.0000
    30 C6        -1.8709   -11.6325     9.9767 C.ar       2 BB2          0.0000
    31 C7        -3.0001   -10.8010    10.2667 C.1        2 BB2          0.0000
    32 C8        -3.9259   -10.1193    10.5044 C.1        2 BB2          0.0000
    33 C9        -1.1364   -11.4311     8.8058 C.ar       2 BB2          0.0000
    34 C10       -0.0472   -12.2308     8.5230 C.ar       2 BB2          0.0000
    35 C11        0.3287   -13.2319     9.3982 C.ar       2 BB2          0.0000
    36 Cl12       1.6998   -14.2324     9.0338 Cl         2 BB2          0.0000
    37 H13       -2.0687   -12.8018    11.7680 H          2 BB2          0.0000
    38 H14       -4.7538    -9.5095    10.7170 H          2 BB2          0.0000
    39 H15       -1.4217   -10.6476     8.1195 H          2 BB2          0.0000
    40 H16        0.5164   -12.0702     7.6158 H          2 BB2          0.0000
@<TRIPOS>BOND
     1      1      2 1
     2      1     12 1
     3      1     13 1
     4      1     14 1
     5      2      3 1
     6      3      4 2
     7      3      5 1
     8      5      6 1
     9      5      9 1
    10      5     15 1
    11      6      7 1
    12      7      8 1
    13      7     16 1
    14      7     17 1
    15      8      9 1
    16      8     18 1
    17      8     19 1
    18      9     10 1
    19      9     11 1
    20     10     20 1
    21     10     21 1
    22     10     22 1
    23     11     23 1
    24     11     24 1
    25     11     25 1
    26     26     27 2
    27     27     28 1
    28     28     29 ar
    29     28     35 ar
    30     29     30 ar
    31     29     37 1
    32     30     31 1
    33     30     33 ar
    34     31     32 3
    35     32     38 1
    36     33     34 ar
    37     33     39 1
    38     34     35 ar
    39     34     40 1
    40     35     36 1
    41      6     27 am
@<TRIPOS>SUBSTRUCTURE
     1 BB1           6
     2 BB2          27
@<TRIPOS>MOLECULE
EN300-703997_i001_EN300-19857_i001_13_20_1
  38   39   2   0   0
SMALL
USER_CHARGES
@<TRIPOS>ATOM
     1 C1        -1.1814   -18.6017     9.2572 C.3        1 BB1          0.0000
     2 O2        -0.1787   -18.0877    10.1731 O.3        1 BB1          0.0000
     3 C3        -0.5811   -17.8081    11.4227 C.2        1 BB1          0.0000
     4 O4        -1.4865   -18.4346    11.9203 O.2        1 BB1          0.0000
     5 C5         0.0965   -16.7128    12.2051 C.3        1 BB1          0.0000
     6 N6         1.0282   -15.9701    11.3289 N.am       1 BB1          0.0000
     7 C7         2.1822   -15.5988    12.1872 C.3        1 BB1          0.0000
     8 C8         2.3840   -16.8543    13.0725 C.3        1 BB1          0.0000
     9 C9         0.9358   -17.3229    13.3429 C.3        1 BB1          0.0000
    10 C10        0.4531   -16.8010    14.6977 C.3        1 BB1          0.0000
    11 C11        0.8556   -18.8503    13.3018 C.3        1 BB1          0.0000
    12 H12       -1.5879   -19.5339     9.6494 H          1 BB1          0.0000
    13 H13       -1.9839   -17.8720     9.1501 H          1 BB1          0.0000
    14 H14       -0.7249   -18.7852     8.2845 H          1 BB1          0.0000
    15 H15       -0.6504   -16.0325    12.6143 H          1 BB1          0.0000
    16 H16        3.0677   -15.4096    11.5805 H          1 BB1          0.0000
    17 H17        1.9420   -14.7303    12.8004 H          1 BB1          0.0000
    18 H18        2.9430   -17.6199    12.5344 H          1 BB1          0.0000
    19 H19        2.8851   -16.5927    14.0044 H          1 BB1          0.0000
    20 H20        0.5047   -15.7123    14.7069 H          1 BB1          0.0000
    21 H21       -0.5769   -17.1173    14.8629 H          1 BB1          0.0000
    22 H22        1.0874   -17.2015    15.4884 H          1 BB1          0.0000
    23 H23        1.4934   -19.2688    14.0804 H          1 BB1          0.0000
    24 H24       -0.1748   -19.1645    13.4684 H          1 BB1          0.0000
    25 H25        1.1908   -19.2057    12.3275 H          1 BB1          0.0000
    26 C2        -0.0612   -14.3703    11.2846 C.2        2 BB2          0.0000
    27 O3         0.9101   -15.0078    10.9027 O.2        2 BB2          0.0000
    28 C4        -0.4899   -13.1665    10.5471 C.ar       2 BB2          0.0000
    29 C5         0.2870   -12.6738     9.4958 C.ar       2 BB2          0.0000
    30 C6        -0.1195   -11.5478     8.8104 C.ar       2 BB2          0.0000
    31 C7        -1.2938   -10.9062     9.1618 C.ar       2 BB2          0.0000
    32 C8        -2.0692   -11.3882    10.2031 C.ar       2 BB2          0.0000
    33 Br9       -3.6723   -10.5028    10.6742 Br         2 BB2          0.0000
    34 C10       -1.6778   -12.5173    10.8933 C.ar       2 BB2          0.0000
    35 H11        1.2041   -13.1732     9.2205 H          2 BB2          0.0000
    36 H12        0.4805   -11.1659     7.9978 H          2 BB2          0.0000
    37 H13       -1.6071   -10.0250     8.6216 H          2 BB2          0.0000
    38 H14       -2.2830   -12.8926    11.7053 H          2 BB2          0.0000
@<TRIPOS>BOND
     1      1      2 1
     2      1     12 1
     3      1     13 1
     4      1     14 1
     5      2      3 1
     6      3      4 2
     7      3      5 1
     8      5      6 1
     9      5      9 1
    10      5     15 1
    11      6      7 1
    12      7      8 1
    13      7     16 1
    14      7     17 1
    15      8      9 1
    16      8     18 1
    17      8     19 1
    18      9     10 1
    19      9     11 1
    20     10     20 1
    21     10     21 1
    22     10     22 1
    23     11     23 1
    24     11     24 1
    25     11     25 1
    26     26     27 2
    27     26     28 1
    28     28     29 ar
    29     28     34 ar
    30     29     30 ar
    31     29     35 1
    32     30     31 ar
    33     30     36 1
    34     31     32 ar
    35     31     37 1
    36     32     33 1
    37     32     34 ar
    38     34     38 1
    39      6     26 am
@<TRIPOS>SUBSTRUCTURE
     1 BB1           6
     2 BB2          26
@<TRIPOS>MOLECULE
EN300-703997_i001_EN300-222254_i002_13_7_1
  48   50   2   0   0
SMALL
USER_CHARGES
@<TRIPOS>ATOM
     1 C1        -1.1814   -18.6017     9.2572 C.3        1 BB1          0.0000
     2 O2        -0.1787   -18.0877    10.1731 O.3        1 BB1          0.0000
     3 C3        -0.5811   -17.8081    11.4227 C.2        1 BB1          0.0000
     4 O4        -1.4865   -18.4346    11.9203 O.2        1 BB1          0.0000
     5 C5         0.0965   -16.7128    12.2051 C.3        1 BB1          0.0000
     6 N6         1.0282   -15.9701    11.3289 N.am       1 BB1          0.0000
     7 C7         2.1822   -15.5988    12.1872 C.3        1 BB1          0.0000
     8 C8         2.3840   -16.8543    13.0725 C.3        1 BB1          0.0000
     9 C9         0.9358   -17.3229    13.3429 C.3        1 BB1          0.0000
    10 C10        0.4531   -16.8010    14.6977 C.3        1 BB1          0.0000
    11 C11        0.8556   -18.8503    13.3018 C.3        1 BB1          0.0000
    12 H12       -1.5879   -19.5339     9.6494 H          1 BB1          0.0000
    13 H13       -1.9839   -17.8720     9.1501 H          1 BB1          0.0000
    14 H14       -0.7249   -18.7852     8.2845 H          1 BB1          0.0000
    15 H15       -0.6504   -16.0325    12.6143 H          1 BB1          0.0000
    16 H16        3.0677   -15.4096    11.5805 H          1 BB1          0.0000
    17 H17        1.9420   -14.7303    12.8004 H          1 BB1          0.0000
    18 H18        2.9430   -17.6199    12.5344 H          1 BB1          0.0000
    19 H19        2.8851   -16.5927    14.0044 H          1 BB1          0.0000
    20 H20        0.5047   -15.7123    14.7069 H          1 BB1          0.0000
    21 H21       -0.5769   -17.1173    14.8629 H          1 BB1          0.0000
    22 H22        1.0874   -17.2015    15.4884 H          1 BB1          0.0000
    23 H23        1.4934   -19.2688    14.0804 H          1 BB1          0.0000
    24 H24       -0.1748   -19.1645    13.4684 H          1 BB1          0.0000
    25 H25        1.1908   -19.2057    12.3275 H          1 BB1          0.0000
    26 O1         1.0761   -15.2604    11.4874 O.2        2 BB2          0.0000
    27 C2         0.0691   -14.5794    11.3943 C.2        2 BB2          0.0000
    28 C4        -0.3286   -14.0010    10.0609 C.3        2 BB2          0.0000
    29 C5         0.7881   -14.0614     9.0053 C.3        2 BB2          0.0000
    30 C6         0.3404   -12.6575     8.5654 C.3        2 BB2          0.0000
    31 C7        -0.2035   -12.4698     9.9915 C.3        2 BB2          0.0000
    32 C8        -1.5280   -11.7529    10.0428 C.ar       2 BB2          0.0000
    33 C9        -2.6243   -12.2791     9.3866 C.ar       2 BB2          0.0000
    34 C10       -3.8397   -11.6218     9.4328 C.ar       2 BB2          0.0000
    35 C11       -3.9599   -10.4369    10.1366 C.ar       2 BB2          0.0000
    36 Cl12      -5.4867    -9.6127    10.1944 Cl         2 BB2          0.0000
    37 C13       -2.8635    -9.9090    10.7946 C.ar       2 BB2          0.0000
    38 C14       -1.6479   -10.5698    10.7526 C.ar       2 BB2          0.0000
    39 F15       -0.5765   -10.0555    11.3951 F          2 BB2          0.0000
    40 H16       -1.2870   -14.3786     9.7046 H          2 BB2          0.0000
    41 H17        1.7910   -14.0862     9.4316 H          2 BB2          0.0000
    42 H18        0.6306   -14.8277     8.2463 H          2 BB2          0.0000
    43 H19        1.1683   -11.9913     8.3226 H          2 BB2          0.0000
    44 H20       -0.4354   -12.6666     7.7998 H          2 BB2          0.0000
    45 H21        0.5283   -12.0595    10.6874 H          2 BB2          0.0000
    46 H22       -2.5316   -13.2041     8.8369 H          2 BB2          0.0000
    47 H23       -4.6958   -12.0336     8.9190 H          2 BB2          0.0000
    48 H24       -2.9569    -8.9840    11.3440 H          2 BB2          0.0000
@<TRIPOS>BOND
     1      1      2 1
     2      1     12 1
     3      1     13 1
     4      1     14 1
     5      2      3 1
     6      3      4 2
     7      3      5 1
     8      5      6 1
     9      5      9 1
    10      5     15 1
    11      6      7 1
    12      7      8 1
    13      7     16 1
    14      7     17 1
    15      8      9 1
    16      8     18 1
    17      8     19 1
    18      9     10 1
    19      9     11 1
    20     10     20 1
    21     10     21 1
    22     10     22 1
    23     11     23 1
    24     11     24 1
    25     11     25 1
    26     26     27 2
    27     27     28 1
    28     28     29 1
    29     28     31 1
    30     28     40 1
    31     29     30 1
    32     29     41 1
    33     29     42 1
    34     30     31 1
    35     30     43 1
    36     30     44 1
    37     31     32 1
    38     31     45 1
    39     32     33 ar
    40     32     38 ar
    41     33     34 ar
    42     33     46 1
    43     34     35 ar
    44     34     47 1
    45     35     36 1
    46     35     37 ar
    47     37     38 ar
    48     37     48 1
    49     38     39 1
    50      6     27 am
@<TRIPOS>SUBSTRUCTURE
     1 BB1           6
     2 BB2          27
@<TRIPOS>MOLECULE
EN300-703997_i001_EN300-306118_i001_13_10_1
  47   49   2   0   0
SMALL
USER_CHARGES
@<TRIPOS>ATOM
     1 C1        -1.1814   -18.6017     9.2572 C.3        1 BB1          0.0000
     2 O2        -0.1787   -18.0877    10.1731 O.3        1 BB1          0.0000
     3 C3        -0.5811   -17.8081    11.4227 C.2        1 BB1          0.0000
     4 O4        -1.4865   -18.4346    11.9203 O.2        1 BB1          0.0000
     5 C5         0.0965   -16.7128    12.2051 C.3        1 BB1          0.0000
     6 N6         1.0282   -15.9701    11.3289 N.am       1 BB1          0.0000
     7 C7         2.1822   -15.5988    12.1872 C.3        1 BB1          0.0000
     8 C8         2.3840   -16.8543    13.0725 C.3        1 BB1          0.0000
     9 C9         0.9358   -17.3229    13.3429 C.3        1 BB1          0.0000
    10 C10        0.4531   -16.8010    14.6977 C.3        1 BB1          0.0000
    11 C11        0.8556   -18.8503    13.3018 C.3        1 BB1          0.0000
    12 H12       -1.5879   -19.5339     9.6494 H          1 BB1          0.0000
    13 H13       -1.9839   -17.8720     9.1501 H          1 BB1          0.0000
    14 H14       -0.7249   -18.7852     8.2845 H          1 BB1          0.0000
    15 H15       -0.6504   -16.0325    12.6143 H          1 BB1          0.0000
    16 H16        3.0677   -15.4096    11.5805 H          1 BB1          0.0000
    17 H17        1.9420   -14.7303    12.8004 H          1 BB1          0.0000
    18 H18        2.9430   -17.6199    12.5344 H          1 BB1          0.0000
    19 H19        2.8851   -16.5927    14.0044 H          1 BB1          0.0000
    20 H20        0.5047   -15.7123    14.7069 H          1 BB1          0.0000
    21 H21       -0.5769   -17.1173    14.8629 H          1 BB1          0.0000
    22 H22        1.0874   -17.2015    15.4884 H          1 BB1          0.0000
    23 H23        1.4934   -19.2688    14.0804 H          1 BB1          0.0000
    24 H24       -0.1748   -19.1645    13.4684 H          1 BB1          0.0000
    25 H25        1.1908   -19.2057    12.3275 H          1 BB1          0.0000
    26 C2         0.1195   -14.4038    10.7566 C.2        2 BB2          0.0000
    27 O3         0.6856   -15.3919    11.2023 O.2        2 BB2          0.0000
    28 C4         0.4114   -13.9416     9.3863 C.ar       2 BB2          0.0000
    29 C5         0.5717   -14.8674     8.3525 C.ar       2 BB2          0.0000
    30 C6         0.8445   -14.4280     7.0737 C.ar       2 BB2          0.0000
    31 C7         0.9599   -13.0739     6.8139 C.ar       2 BB2          0.0000
    32 C8         0.8024   -12.1509     7.8331 C.ar       2 BB2          0.0000
    33 C9         0.5231   -12.5754     9.1151 C.ar       2 BB2          0.0000
    34 C10        0.3514   -11.5687    10.2234 C.3        2 BB2          0.0000
    35 N11       -1.0436   -11.1231    10.2665 N.pl3      2 BB2          0.0000
    36 C12       -1.4690    -9.8410    10.1885 C.2        2 BB2          0.0000
    37 C13       -2.8194    -9.8863    10.2682 C.2        2 BB2          0.0000
    38 N14       -3.1497   -11.1769    10.3896 N.2        2 BB2          0.0000
    39 N15       -2.0753   -11.8843    10.3797 N.2        2 BB2          0.0000
    40 H16        0.4826   -15.9247     8.5541 H          2 BB2          0.0000
    41 H17        0.9688   -15.1425     6.2735 H          2 BB2          0.0000
    42 H18        1.1744   -12.7356     5.8108 H          2 BB2          0.0000
    43 H19        0.8941   -11.0955     7.6231 H          2 BB2          0.0000
    44 H20        0.6156   -12.0283    11.1758 H          2 BB2          0.0000
    45 H21        1.0008   -10.7127    10.0405 H          2 BB2          0.0000
    46 H22       -0.8546    -8.9590    10.0839 H          2 BB2          0.0000
    47 H23       -3.4970    -9.0458    10.2398 H          2 BB2          0.0000
@<TRIPOS>BOND
     1      1      2 1
     2      1     12 1
     3      1     13 1
     4      1     14 1
     5      2      3 1
     6      3      4 2
     7      3      5 1
     8      5      6 1
     9      5      9 1
    10      5     15 1
    11      6      7 1
    12      7      8 1
    13      7     16 1
    14      7     17 1
    15      8      9 1
    16      8     18 1
    17      8     19 1
    18      9     10 1
    19      9     11 1
    20     10     20 1
    21     10     21 1
    22     10     22 1
    23     11     23 1
    24     11     24 1
    25     11     25 1
    26     26     27 2
    27     26     28 1
    28     28     29 ar
    29     28     33 ar
    30     29     30 ar
    31     29     40 1
    32     30     31 ar
    33     30     41 1
    34     31     32 ar
    35     31     42 1
    36     32     33 ar
    37     32     43 1
    38     33     34 1
    39     34     35 1
    40     34     44 1
    41     34     45 1
    42     35     36 1
    43     35     39 1
    44     36     37 2
    45     36     46 1
    46     37     38 1
    47     37     47 1
    48     38     39 2
    49      6     26 am
@<TRIPOS>SUBSTRUCTURE
     1 BB1           6
     2 BB2          26
@<TRIPOS>MOLECULE
EN300-703997_i001_EN300-306118_i001_13_13_1
  47   49   2   0   0
SMALL
USER_CHARGES
@<TRIPOS>ATOM
     1 C1        -1.1814   -18.6017     9.2572 C.3        1 BB1          0.0000
     2 O2        -0.1787   -18.0877    10.1731 O.3        1 BB1          0.0000
     3 C3        -0.5811   -17.8081    11.4227 C.2        1 BB1          0.0000
     4 O4        -1.4865   -18.4346    11.9203 O.2        1 BB1          0.0000
     5 C5         0.0965   -16.7128    12.2051 C.3        1 BB1          0.0000
     6 N6         1.0282   -15.9701    11.3289 N.am       1 BB1          0.0000
     7 C7         2.1822   -15.5988    12.1872 C.3        1 BB1          0.0000
     8 C8         2.3840   -16.8543    13.0725 C.3        1 BB1          0.0000
     9 C9         0.9358   -17.3229    13.3429 C.3        1 BB1          0.0000
    10 C10        0.4531   -16.8010    14.6977 C.3        1 BB1          0.0000
    11 C11        0.8556   -18.8503    13.3018 C.3        1 BB1          0.0000
    12 H12       -1.5879   -19.5339     9.6494 H          1 BB1          0.0000
    13 H13       -1.9839   -17.8720     9.1501 H          1 BB1          0.0000
    14 H14       -0.7249   -18.7852     8.2845 H          1 BB1          0.0000
    15 H15       -0.6504   -16.0325    12.6143 H          1 BB1          0.0000
    16 H16        3.0677   -15.4096    11.5805 H          1 BB1          0.0000
    17 H17        1.9420   -14.7303    12.8004 H          1 BB1          0.0000
    18 H18        2.9430   -17.6199    12.5344 H          1 BB1          0.0000
    19 H19        2.8851   -16.5927    14.0044 H          1 BB1          0.0000
    20 H20        0.5047   -15.7123    14.7069 H          1 BB1          0.0000
    21 H21       -0.5769   -17.1173    14.8629 H          1 BB1          0.0000
    22 H22        1.0874   -17.2015    15.4884 H          1 BB1          0.0000
    23 H23        1.4934   -19.2688    14.0804 H          1 BB1          0.0000
    24 H24       -0.1748   -19.1645    13.4684 H          1 BB1          0.0000
    25 H25        1.1908   -19.2057    12.3275 H          1 BB1          0.0000
    26 O1        -0.3061   -15.6175    10.8075 O.2        2 BB2          0.0000
    27 C2        -0.2542   -14.4147    11.0220 C.2        2 BB2          0.0000
    28 C4        -0.0888   -13.4717     9.8995 C.ar       2 BB2          0.0000
    29 C5         0.7755   -13.7793     8.8460 C.ar       2 BB2          0.0000
    30 C6         0.9252   -12.8927     7.7999 C.ar       2 BB2          0.0000
    31 C7         0.2221   -11.7011     7.7926 C.ar       2 BB2          0.0000
    32 C8        -0.6359   -11.3897     8.8329 C.ar       2 BB2          0.0000
    33 C9        -0.8003   -12.2692     9.8823 C.ar       2 BB2          0.0000
    34 C10       -1.7356   -11.9285    11.0138 C.3        2 BB2          0.0000
    35 N11       -2.8881   -11.1914    10.4898 N.pl3      2 BB2          0.0000
    36 C12       -3.9824   -11.7380     9.9113 C.2        2 BB2          0.0000
    37 C13       -4.7891   -10.7036     9.5780 C.2        2 BB2          0.0000
    38 N14       -4.1572    -9.5894     9.9637 N.2        2 BB2          0.0000
    39 N15       -3.0361    -9.9129    10.5053 N.2        2 BB2          0.0000
    40 H16        1.3254   -14.7088     8.8509 H          2 BB2          0.0000
    41 H17        1.5931   -13.1291     6.9848 H          2 BB2          0.0000
    42 H18        0.3438   -11.0104     6.9712 H          2 BB2          0.0000
    43 H19       -1.1813   -10.4576     8.8207 H          2 BB2          0.0000
    44 H20       -2.0780   -12.8466    11.4912 H          2 BB2          0.0000
    45 H21       -1.2121   -11.3124    11.7448 H          2 BB2          0.0000
    46 H22       -4.1735   -12.7883     9.7481 H          2 BB2          0.0000
    47 H23       -5.7532   -10.7654     9.0952 H          2 BB2          0.0000
@<TRIPOS>BOND
     1      1      2 1
     2      1     12 1
     3      1     13 1
     4      1     14 1
     5      2      3 1
     6      3      4 2
     7      3      5 1
     8      5      6 1
     9      5      9 1
    10      5     15 1
    11      6      7 1
    12      7      8 1
    13      7     16 1
    14      7     17 1
    15      8      9 1
    16      8     18 1
    17      8     19 1
    18      9     10 1
    19      9     11 1
    20     10     20 1
    21     10     21 1
    22     10     22 1
    23     11     23 1
    24     11     24 1
    25     11     25 1
    26     26     27 2
    27     27     28 1
    28     28     29 ar
    29     28     33 ar
    30     29     30 ar
    31     29     40 1
    32     30     31 ar
    33     30     41 1
    34     31     32 ar
    35     31     42 1
    36     32     33 ar
    37     32     43 1
    38     33     34 1
    39     34     35 1
    40     34     44 1
    41     34     45 1
    42     35     36 1
    43     35     39 1
    44     36     37 2
    45     36     46 1
    46     37     38 1
    47     37     47 1
    48     38     39 2
    49      6     27 am
@<TRIPOS>SUBSTRUCTURE
     1 BB1           6
     2 BB2          27
@<TRIPOS>MOLECULE
EN300-703997_i001_EN300-306118_i001_13_17_1
  47   49   2   0   0
SMALL
USER_CHARGES
@<TRIPOS>ATOM
     1 C1        -1.1814   -18.6017     9.2572 C.3        1 BB1          0.0000
     2 O2        -0.1787   -18.0877    10.1731 O.3        1 BB1          0.0000
     3 C3        -0.5811   -17.8081    11.4227 C.2        1 BB1          0.0000
     4 O4        -1.4865   -18.4346    11.9203 O.2        1 BB1          0.0000
     5 C5         0.0965   -16.7128    12.2051 C.3        1 BB1          0.0000
     6 N6         1.0282   -15.9701    11.3289 N.am       1 BB1          0.0000
     7 C7         2.1822   -15.5988    12.1872 C.3        1 BB1          0.0000
     8 C8         2.3840   -16.8543    13.0725 C.3        1 BB1          0.0000
     9 C9         0.9358   -17.3229    13.3429 C.3        1 BB1          0.0000
    10 C10        0.4531   -16.8010    14.6977 C.3        1 BB1          0.0000
    11 C11        0.8556   -18.8503    13.3018 C.3        1 BB1          0.0000
    12 H12       -1.5879   -19.5339     9.6494 H          1 BB1          0.0000
    13 H13       -1.9839   -17.8720     9.1501 H          1 BB1          0.0000
    14 H14       -0.7249   -18.7852     8.2845 H          1 BB1          0.0000
    15 H15       -0.6504   -16.0325    12.6143 H          1 BB1          0.0000
    16 H16        3.0677   -15.4096    11.5805 H          1 BB1          0.0000
    17 H17        1.9420   -14.7303    12.8004 H          1 BB1          0.0000
    18 H18        2.9430   -17.6199    12.5344 H          1 BB1          0.0000
    19 H19        2.8851   -16.5927    14.0044 H          1 BB1          0.0000
    20 H20        0.5047   -15.7123    14.7069 H          1 BB1          0.0000
    21 H21       -0.5769   -17.1173    14.8629 H          1 BB1          0.0000
    22 H22        1.0874   -17.2015    15.4884 H          1 BB1          0.0000
    23 H23        1.4934   -19.2688    14.0804 H          1 BB1          0.0000
    24 H24       -0.1748   -19.1645    13.4684 H          1 BB1          0.0000
    25 H25        1.1908   -19.2057    12.3275 H          1 BB1          0.0000
    26 C2         0.1377   -15.1500     9.6193 C.2        2 BB2          0.0000
    27 O3         0.2453   -15.0645    10.8345 O.2        2 BB2          0.0000
    28 C4         0.3036   -13.9496     8.7778 C.ar       2 BB2          0.0000
    29 C5         0.9945   -14.0317     7.5664 C.ar       2 BB2          0.0000
    30 C6         1.1457   -12.9052     6.7847 C.ar       2 BB2          0.0000
    31 C7         0.6154   -11.6960     7.1982 C.ar       2 BB2          0.0000
    32 C8        -0.0703   -11.6071     8.3972 C.ar       2 BB2          0.0000
    33 C9        -0.2347   -12.7263     9.1858 C.ar       2 BB2          0.0000
    34 C10       -0.9821   -12.6276    10.4908 C.3        2 BB2          0.0000
    35 N11       -2.0934   -11.6839    10.3468 N.pl3      2 BB2          0.0000
    36 C12       -1.9923   -10.3346    10.3447 C.2        2 BB2          0.0000
    37 C13       -3.2511    -9.8624    10.1881 C.2        2 BB2          0.0000
    38 N14       -4.0501   -10.9319    10.1033 N.2        2 BB2          0.0000
    39 N15       -3.3329   -11.9958    10.1953 N.2        2 BB2          0.0000
    40 H16        1.4095   -14.9748     7.2428 H          2 BB2          0.0000
    41 H17        1.6796   -12.9671     5.8480 H          2 BB2          0.0000
    42 H18        0.7375   -10.8170     6.5825 H          2 BB2          0.0000
    43 H19       -0.4813   -10.6599     8.7138 H          2 BB2          0.0000
    44 H20       -1.3716   -13.6090    10.7615 H          2 BB2          0.0000
    45 H21       -0.3064   -12.2770    11.2708 H          2 BB2          0.0000
    46 H22       -1.0890    -9.7516    10.4475 H          2 BB2          0.0000
    47 H23       -3.5514    -8.8261    10.1412 H          2 BB2          0.0000
@<TRIPOS>BOND
     1      1      2 1
     2      1     12 1
     3      1     13 1
     4      1     14 1
     5      2      3 1
     6      3      4 2
     7      3      5 1
     8      5      6 1
     9      5      9 1
    10      5     15 1
    11      6      7 1
    12      7      8 1
    13      7     16 1
    14      7     17 1
    15      8      9 1
    16      8     18 1
    17      8     19 1
    18      9     10 1
    19      9     11 1
    20     10     20 1
    21     10     21 1
    22     10     22 1
    23     11     23 1
    24     11     24 1
    25     11     25 1
    26     26     27 2
    27     26     28 1
    28     28     29 ar
    29     28     33 ar
    30     29     30 ar
    31     29     40 1
    32     30     31 ar
    33     30     41 1
    34     31     32 ar
    35     31     42 1
    36     32     33 ar
    37     32     43 1
    38     33     34 1
    39     34     35 1
    40     34     44 1
    41     34     45 1
    42     35     36 1
    43     35     39 1
    44     36     37 2
    45     36     46 1
    46     37     38 1
    47     37     47 1
    48     38     39 2
    49      6     26 am
@<TRIPOS>SUBSTRUCTURE
     1 BB1           6
     2 BB2          26
@<TRIPOS>MOLECULE
EN300-703997_i001_EN300-306118_i001_13_2_1
  47   49   2   0   0
SMALL
USER_CHARGES
@<TRIPOS>ATOM
     1 C1        -1.1814   -18.6017     9.2572 C.3        1 BB1          0.0000
     2 O2        -0.1787   -18.0877    10.1731 O.3        1 BB1          0.0000
     3 C3        -0.5811   -17.8081    11.4227 C.2        1 BB1          0.0000
     4 O4        -1.4865   -18.4346    11.9203 O.2        1 BB1          0.0000
     5 C5         0.0965   -16.7128    12.2051 C.3        1 BB1          0.0000
     6 N6         1.0282   -15.9701    11.3289 N.am       1 BB1          0.0000
     7 C7         2.1822   -15.5988    12.1872 C.3        1 BB1          0.0000
     8 C8         2.3840   -16.8543    13.0725 C.3        1 BB1          0.0000
     9 C9         0.9358   -17.3229    13.3429 C.3        1 BB1          0.0000
    10 C10        0.4531   -16.8010    14.6977 C.3        1 BB1          0.0000
    11 C11        0.8556   -18.8503    13.3018 C.3        1 BB1          0.0000
    12 H12       -1.5879   -19.5339     9.6494 H          1 BB1          0.0000
    13 H13       -1.9839   -17.8720     9.1501 H          1 BB1          0.0000
    14 H14       -0.7249   -18.7852     8.2845 H          1 BB1          0.0000
    15 H15       -0.6504   -16.0325    12.6143 H          1 BB1          0.0000
    16 H16        3.0677   -15.4096    11.5805 H          1 BB1          0.0000
    17 H17        1.9420   -14.7303    12.8004 H          1 BB1          0.0000
    18 H18        2.9430   -17.6199    12.5344 H          1 BB1          0.0000
    19 H19        2.8851   -16.5927    14.0044 H          1 BB1          0.0000
    20 H20        0.5047   -15.7123    14.7069 H          1 BB1          0.0000
    21 H21       -0.5769   -17.1173    14.8629 H          1 BB1          0.0000
    22 H22        1.0874   -17.2015    15.4884 H          1 BB1          0.0000
    23 H23        1.4934   -19.2688    14.0804 H          1 BB1          0.0000
    24 H24       -0.1748   -19.1645    13.4684 H          1 BB1          0.0000
    25 H25        1.1908   -19.2057    12.3275 H          1 BB1          0.0000
    26 C2         0.6326   -14.8679    11.1794 C.2        2 BB2          0.0000
    27 O3         1.7065   -15.2466    11.6254 O.2        2 BB2          0.0000
    28 C4         0.5817   -14.1401     9.8971 C.ar       2 BB2          0.0000
    29 C5         1.3893   -14.5408     8.8300 C.ar       2 BB2          0.0000
    30 C6         1.3364   -13.8555     7.6340 C.ar       2 BB2          0.0000
    31 C7         0.4864   -12.7733     7.4900 C.ar       2 BB2          0.0000
    32 C8        -0.3166   -12.3706     8.5429 C.ar       2 BB2          0.0000
    33 C9        -0.2789   -13.0501     9.7423 C.ar       2 BB2          0.0000
    34 C10       -1.1546   -12.6104    10.8873 C.3        2 BB2          0.0000
    35 N11       -2.0673   -11.5601    10.4288 N.pl3      2 BB2          0.0000
    36 C12       -1.7295   -10.2775    10.1613 C.2        2 BB2          0.0000
    37 C13       -2.8693    -9.6610     9.7705 C.2        2 BB2          0.0000
    38 N14       -3.8360   -10.5845     9.8175 N.2        2 BB2          0.0000
    39 N15       -3.3272   -11.7003    10.2060 N.2        2 BB2          0.0000
    40 H16        2.0538   -15.3849     8.9414 H          2 BB2          0.0000
    41 H17        1.9603   -14.1641     6.8083 H          2 BB2          0.0000
    42 H18        0.4497   -12.2400     6.5515 H          2 BB2          0.0000
    43 H19       -0.9775   -11.5248     8.4234 H          2 BB2          0.0000
    44 H20       -1.7320   -13.4605    11.2504 H          2 BB2          0.0000
    45 H21       -0.5313   -12.2235    11.6935 H          2 BB2          0.0000
    46 H22       -0.7479    -9.8347    10.2433 H          2 BB2          0.0000
    47 H23       -2.9773    -8.6269     9.4786 H          2 BB2          0.0000
@<TRIPOS>BOND
     1      1      2 1
     2      1     12 1
     3      1     13 1
     4      1     14 1
     5      2      3 1
     6      3      4 2
     7      3      5 1
     8      5      6 1
     9      5      9 1
    10      5     15 1
    11      6      7 1
    12      7      8 1
    13      7     16 1
    14      7     17 1
    15      8      9 1
    16      8     18 1
    17      8     19 1
    18      9     10 1
    19      9     11 1
    20     10     20 1
    21     10     21 1
    22     10     22 1
    23     11     23 1
    24     11     24 1
    25     11     25 1
    26     26     27 2
    27     26     28 1
    28     28     29 ar
    29     28     33 ar
    30     29     30 ar
    31     29     40 1
    32     30     31 ar
    33     30     41 1
    34     31     32 ar
    35     31     42 1
    36     32     33 ar
    37     32     43 1
    38     33     34 1
    39     34     35 1
    40     34     44 1
    41     34     45 1
    42     35     36 1
    43     35     39 1
    44     36     37 2
    45     36     46 1
    46     37     38 1
    47     37     47 1
    48     38     39 2
    49      6     26 am
@<TRIPOS>SUBSTRUCTURE
     1 BB1           6
     2 BB2          26
@<TRIPOS>MOLECULE
EN300-703997_i001_EN300-306118_i001_13_4_1
  47   49   2   0   0
SMALL
USER_CHARGES
@<TRIPOS>ATOM
     1 C1        -1.1814   -18.6017     9.2572 C.3        1 BB1          0.0000
     2 O2        -0.1787   -18.0877    10.1731 O.3        1 BB1          0.0000
     3 C3        -0.5811   -17.8081    11.4227 C.2        1 BB1          0.0000
     4 O4        -1.4865   -18.4346    11.9203 O.2        1 BB1          0.0000
     5 C5         0.0965   -16.7128    12.2051 C.3        1 BB1          0.0000
     6 N6         1.0282   -15.9701    11.3289 N.am       1 BB1          0.0000
     7 C7         2.1822   -15.5988    12.1872 C.3        1 BB1          0.0000
     8 C8         2.3840   -16.8543    13.0725 C.3        1 BB1          0.0000
     9 C9         0.9358   -17.3229    13.3429 C.3        1 BB1          0.0000
    10 C10        0.4531   -16.8010    14.6977 C.3        1 BB1          0.0000
    11 C11        0.8556   -18.8503    13.3018 C.3        1 BB1          0.0000
    12 H12       -1.5879   -19.5339     9.6494 H          1 BB1          0.0000
    13 H13       -1.9839   -17.8720     9.1501 H          1 BB1          0.0000
    14 H14       -0.7249   -18.7852     8.2845 H          1 BB1          0.0000
    15 H15       -0.6504   -16.0325    12.6143 H          1 BB1          0.0000
    16 H16        3.0677   -15.4096    11.5805 H          1 BB1          0.0000
    17 H17        1.9420   -14.7303    12.8004 H          1 BB1          0.0000
    18 H18        2.9430   -17.6199    12.5344 H          1 BB1          0.0000
    19 H19        2.8851   -16.5927    14.0044 H          1 BB1          0.0000
    20 H20        0.5047   -15.7123    14.7069 H          1 BB1          0.0000
    21 H21       -0.5769   -17.1173    14.8629 H          1 BB1          0.0000
    22 H22        1.0874   -17.2015    15.4884 H          1 BB1          0.0000
    23 H23        1.4934   -19.2688    14.0804 H          1 BB1          0.0000
    24 H24       -0.1748   -19.1645    13.4684 H          1 BB1          0.0000
    25 H25        1.1908   -19.2057    12.3275 H          1 BB1          0.0000
    26 C2         0.0232   -14.5029    10.8440 C.2        2 BB2          0.0000
    27 O3         0.5964   -15.4713    11.3227 O.2        2 BB2          0.0000
    28 C4         0.1943   -14.1761     9.4156 C.ar       2 BB2          0.0000
    29 C5         0.2000   -15.1937     8.4585 C.ar       2 BB2          0.0000
    30 C6         0.3606   -14.8807     7.1247 C.ar       2 BB2          0.0000
    31 C7         0.5162   -13.5625     6.7340 C.ar       2 BB2          0.0000
    32 C8         0.5116   -12.5491     7.6766 C.ar       2 BB2          0.0000
    33 C9         0.3458   -12.8466     9.0128 C.ar       2 BB2          0.0000
    34 C10        0.3405   -11.7416    10.0376 C.3        2 BB2          0.0000
    35 N11       -0.8775   -10.9417     9.8869 N.pl3      2 BB2          0.0000
    36 C12       -1.9601   -10.9853    10.6975 C.2        2 BB2          0.0000
    37 C13       -2.8435   -10.0913    10.1954 C.2        2 BB2          0.0000
    38 N14       -2.2659    -9.5516     9.1162 N.2        2 BB2          0.0000
    39 N15       -1.0997   -10.0726     8.9638 N.2        2 BB2          0.0000
    40 H16        0.0794   -16.2231     8.7623 H          2 BB2          0.0000
    41 H17        0.3653   -15.6663     6.3837 H          2 BB2          0.0000
    42 H18        0.6423   -13.3234     5.6883 H          2 BB2          0.0000
    43 H19        0.6339   -11.5225     7.3644 H          2 BB2          0.0000
    44 H20        0.3700   -12.1736    11.0379 H          2 BB2          0.0000
    45 H21        1.2134   -11.1056     9.8906 H          2 BB2          0.0000
    46 H22       -2.0926   -11.6083    11.5697 H          2 BB2          0.0000
    47 H23       -3.8224    -9.8595    10.5883 H          2 BB2          0.0000
@<TRIPOS>BOND
     1      1      2 1
     2      1     12 1
     3      1     13 1
     4      1     14 1
     5      2      3 1
     6      3      4 2
     7      3      5 1
     8      5      6 1
     9      5      9 1
    10      5     15 1
    11      6      7 1
    12      7      8 1
    13      7     16 1
    14      7     17 1
    15      8      9 1
    16      8     18 1
    17      8     19 1
    18      9     10 1
    19      9     11 1
    20     10     20 1
    21     10     21 1
    22     10     22 1
    23     11     23 1
    24     11     24 1
    25     11     25 1
    26     26     27 2
    27     26     28 1
    28     28     29 ar
    29     28     33 ar
    30     29     30 ar
    31     29     40 1
    32     30     31 ar
    33     30     41 1
    34     31     32 ar
    35     31     42 1
    36     32     33 ar
    37     32     43 1
    38     33     34 1
    39     34     35 1
    40     34     44 1
    41     34     45 1
    42     35     36 1
    43     35     39 1
    44     36     37 2
    45     36     46 1
    46     37     38 1
    47     37     47 1
    48     38     39 2
    49      6     26 am
@<TRIPOS>SUBSTRUCTURE
     1 BB1           6
     2 BB2          26
@<TRIPOS>MOLECULE
EN300-703997_i001_EN300-306118_i001_13_6_1
  47   49   2   0   0
SMALL
USER_CHARGES
@<TRIPOS>ATOM
     1 C1        -1.1814   -18.6017     9.2572 C.3        1 BB1          0.0000
     2 O2        -0.1787   -18.0877    10.1731 O.3        1 BB1          0.0000
     3 C3        -0.5811   -17.8081    11.4227 C.2        1 BB1          0.0000
     4 O4        -1.4865   -18.4346    11.9203 O.2        1 BB1          0.0000
     5 C5         0.0965   -16.7128    12.2051 C.3        1 BB1          0.0000
     6 N6         1.0282   -15.9701    11.3289 N.am       1 BB1          0.0000
     7 C7         2.1822   -15.5988    12.1872 C.3        1 BB1          0.0000
     8 C8         2.3840   -16.8543    13.0725 C.3        1 BB1          0.0000
     9 C9         0.9358   -17.3229    13.3429 C.3        1 BB1          0.0000
    10 C10        0.4531   -16.8010    14.6977 C.3        1 BB1          0.0000
    11 C11        0.8556   -18.8503    13.3018 C.3        1 BB1          0.0000
    12 H12       -1.5879   -19.5339     9.6494 H          1 BB1          0.0000
    13 H13       -1.9839   -17.8720     9.1501 H          1 BB1          0.0000
    14 H14       -0.7249   -18.7852     8.2845 H          1 BB1          0.0000
    15 H15       -0.6504   -16.0325    12.6143 H          1 BB1          0.0000
    16 H16        3.0677   -15.4096    11.5805 H          1 BB1          0.0000
    17 H17        1.9420   -14.7303    12.8004 H          1 BB1          0.0000
    18 H18        2.9430   -17.6199    12.5344 H          1 BB1          0.0000
    19 H19        2.8851   -16.5927    14.0044 H          1 BB1          0.0000
    20 H20        0.5047   -15.7123    14.7069 H          1 BB1          0.0000
    21 H21       -0.5769   -17.1173    14.8629 H          1 BB1          0.0000
    22 H22        1.0874   -17.2015    15.4884 H          1 BB1          0.0000
    23 H23        1.4934   -19.2688    14.0804 H          1 BB1          0.0000
    24 H24       -0.1748   -19.1645    13.4684 H          1 BB1          0.0000
    25 H25        1.1908   -19.2057    12.3275 H          1 BB1          0.0000
    26 C2        -0.3996   -13.7304    10.8133 C.2        2 BB2          0.0000
    27 O3         0.0088   -14.6778    11.4700 O.2        2 BB2          0.0000
    28 C4         0.1276   -13.4914     9.4563 C.ar       2 BB2          0.0000
    29 C5         0.3583   -14.5656     8.5936 C.ar       2 BB2          0.0000
    30 C6         0.8514   -14.3346     7.3262 C.ar       2 BB2          0.0000
    31 C7         1.1179   -13.0426     6.9090 C.ar       2 BB2          0.0000
    32 C8         0.8918   -11.9734     7.7582 C.ar       2 BB2          0.0000
    33 C9         0.3932   -12.1888     9.0257 C.ar       2 BB2          0.0000
    34 C10        0.1472   -11.0231     9.9488 C.3        2 BB2          0.0000
    35 N11       -1.2932   -10.7753    10.0492 N.pl3      2 BB2          0.0000
    36 C12       -2.2529   -11.3618     9.2971 C.2        2 BB2          0.0000
    37 C13       -3.4309   -10.8465     9.7198 C.2        2 BB2          0.0000
    38 N14       -3.1380    -9.9810    10.6969 N.2        2 BB2          0.0000
    39 N15       -1.8637    -9.9660    10.8717 N.2        2 BB2          0.0000
    40 H16        0.1514   -15.5747     8.9183 H          2 BB2          0.0000
    41 H17        1.0303   -15.1641     6.6582 H          2 BB2          0.0000
    42 H18        1.5046   -12.8676     5.9157 H          2 BB2          0.0000
    43 H19        1.1024   -10.9676     7.4259 H          2 BB2          0.0000
    44 H20        0.5463   -11.2516    10.9369 H          2 BB2          0.0000
    45 H21        0.6418   -10.1360     9.5534 H          2 BB2          0.0000
    46 H22       -2.1081   -12.0939     8.5164 H          2 BB2          0.0000
    47 H23       -4.4139   -11.0863     9.3423 H          2 BB2          0.0000
@<TRIPOS>BOND
     1      1      2 1
     2      1     12 1
     3      1     13 1
     4      1     14 1
     5      2      3 1
     6      3      4 2
     7      3      5 1
     8      5      6 1
     9      5      9 1
    10      5     15 1
    11      6      7 1
    12      7      8 1
    13      7     16 1
    14      7     17 1
    15      8      9 1
    16      8     18 1
    17      8     19 1
    18      9     10 1
    19      9     11 1
    20     10     20 1
    21     10     21 1
    22     10     22 1
    23     11     23 1
    24     11     24 1
    25     11     25 1
    26     26     27 2
    27     26     28 1
    28     28     29 ar
    29     28     33 ar
    30     29     30 ar
    31     29     40 1
    32     30     31 ar
    33     30     41 1
    34     31     32 ar
    35     31     42 1
    36     32     33 ar
    37     32     43 1
    38     33     34 1
    39     34     35 1
    40     34     44 1
    41     34     45 1
    42     35     36 1
    43     35     39 1
    44     36     37 2
    45     36     46 1
    46     37     38 1
    47     37     47 1
    48     38     39 2
    49      6     26 am
@<TRIPOS>SUBSTRUCTURE
     1 BB1           6
     2 BB2          26
@<TRIPOS>MOLECULE
EN300-703997_i001_EN300-306118_i001_13_7_1
  47   49   2   0   0
SMALL
USER_CHARGES
@<TRIPOS>ATOM
     1 C1        -1.1814   -18.6017     9.2572 C.3        1 BB1          0.0000
     2 O2        -0.1787   -18.0877    10.1731 O.3        1 BB1          0.0000
     3 C3        -0.5811   -17.8081    11.4227 C.2        1 BB1          0.0000
     4 O4        -1.4865   -18.4346    11.9203 O.2        1 BB1          0.0000
     5 C5         0.0965   -16.7128    12.2051 C.3        1 BB1          0.0000
     6 N6         1.0282   -15.9701    11.3289 N.am       1 BB1          0.0000
     7 C7         2.1822   -15.5988    12.1872 C.3        1 BB1          0.0000
     8 C8         2.3840   -16.8543    13.0725 C.3        1 BB1          0.0000
     9 C9         0.9358   -17.3229    13.3429 C.3        1 BB1          0.0000
    10 C10        0.4531   -16.8010    14.6977 C.3        1 BB1          0.0000
    11 C11        0.8556   -18.8503    13.3018 C.3        1 BB1          0.0000
    12 H12       -1.5879   -19.5339     9.6494 H          1 BB1          0.0000
    13 H13       -1.9839   -17.8720     9.1501 H          1 BB1          0.0000
    14 H14       -0.7249   -18.7852     8.2845 H          1 BB1          0.0000
    15 H15       -0.6504   -16.0325    12.6143 H          1 BB1          0.0000
    16 H16        3.0677   -15.4096    11.5805 H          1 BB1          0.0000
    17 H17        1.9420   -14.7303    12.8004 H          1 BB1          0.0000
    18 H18        2.9430   -17.6199    12.5344 H          1 BB1          0.0000
    19 H19        2.8851   -16.5927    14.0044 H          1 BB1          0.0000
    20 H20        0.5047   -15.7123    14.7069 H          1 BB1          0.0000
    21 H21       -0.5769   -17.1173    14.8629 H          1 BB1          0.0000
    22 H22        1.0874   -17.2015    15.4884 H          1 BB1          0.0000
    23 H23        1.4934   -19.2688    14.0804 H          1 BB1          0.0000
    24 H24       -0.1748   -19.1645    13.4684 H          1 BB1          0.0000
    25 H25        1.1908   -19.2057    12.3275 H          1 BB1          0.0000
    26 C2         0.3107   -14.7692    11.2595 C.2        2 BB2          0.0000
    27 O3         1.3333   -15.2930    11.6783 O.2        2 BB2          0.0000
    28 C4         0.2910   -14.1590     9.9165 C.ar       2 BB2          0.0000
    29 C5         0.9400   -14.7869     8.8506 C.ar       2 BB2          0.0000
    30 C6         0.9175   -14.2104     7.5976 C.ar       2 BB2          0.0000
    31 C7         0.2545   -13.0130     7.3953 C.ar       2 BB2          0.0000
    32 C8        -0.3907   -12.3851     8.4465 C.ar       2 BB2          0.0000
    33 C9        -0.3818   -12.9530     9.7032 C.ar       2 BB2          0.0000
    34 C10       -1.0854   -12.2680    10.8464 C.3        2 BB2          0.0000
    35 N11       -1.9001   -11.1660    10.3286 N.pl3      2 BB2          0.0000
    36 C12       -3.2480   -11.0736    10.4030 C.2        2 BB2          0.0000
    37 C13       -3.5794    -9.9055     9.8051 C.2        2 BB2          0.0000
    38 N14       -2.4331    -9.3478     9.3992 N.2        2 BB2          0.0000
    39 N15       -1.4563   -10.1169     9.7294 N.2        2 BB2          0.0000
    40 H16        1.4585   -15.7213     9.0074 H          2 BB2          0.0000
    41 H17        1.4188   -14.6947     6.7727 H          2 BB2          0.0000
    42 H18        0.2408   -12.5658     6.4122 H          2 BB2          0.0000
    43 H19       -0.9059   -11.4505     8.2813 H          2 BB2          0.0000
    44 H20       -1.7270   -12.9843    11.3596 H          2 BB2          0.0000
    45 H21       -0.3465   -11.8763    11.5454 H          2 BB2          0.0000
    46 H22       -3.9235   -11.7882    10.8496 H          2 BB2          0.0000
    47 H23       -4.5737    -9.5029     9.6797 H          2 BB2          0.0000
@<TRIPOS>BOND
     1      1      2 1
     2      1     12 1
     3      1     13 1
     4      1     14 1
     5      2      3 1
     6      3      4 2
     7      3      5 1
     8      5      6 1
     9      5      9 1
    10      5     15 1
    11      6      7 1
    12      7      8 1
    13      7     16 1
    14      7     17 1
    15      8      9 1
    16      8     18 1
    17      8     19 1
    18      9     10 1
    19      9     11 1
    20     10     20 1
    21     10     21 1
    22     10     22 1
    23     11     23 1
    24     11     24 1
    25     11     25 1
    26     26     27 2
    27     26     28 1
    28     28     29 ar
    29     28     33 ar
    30     29     30 ar
    31     29     40 1
    32     30     31 ar
    33     30     41 1
    34     31     32 ar
    35     31     42 1
    36     32     33 ar
    37     32     43 1
    38     33     34 1
    39     34     35 1
    40     34     44 1
    41     34     45 1
    42     35     36 1
    43     35     39 1
    44     36     37 2
    45     36     46 1
    46     37     38 1
    47     37     47 1
    48     38     39 2
    49      6     26 am
@<TRIPOS>SUBSTRUCTURE
     1 BB1           6
     2 BB2          26
@<TRIPOS>MOLECULE
EN300-703997_i001_EN300-344045_i001_13_2_1
  54   56   2   0   0
SMALL
USER_CHARGES
@<TRIPOS>ATOM
     1 C1        -1.1814   -18.6017     9.2572 C.3        1 BB1          0.0000
     2 O2        -0.1787   -18.0877    10.1731 O.3        1 BB1          0.0000
     3 C3        -0.5811   -17.8081    11.4227 C.2        1 BB1          0.0000
     4 O4        -1.4865   -18.4346    11.9203 O.2        1 BB1          0.0000
     5 C5         0.0965   -16.7128    12.2051 C.3        1 BB1          0.0000
     6 N6         1.0282   -15.9701    11.3289 N.am       1 BB1          0.0000
     7 C7         2.1822   -15.5988    12.1872 C.3        1 BB1          0.0000
     8 C8         2.3840   -16.8543    13.0725 C.3        1 BB1          0.0000
     9 C9         0.9358   -17.3229    13.3429 C.3        1 BB1          0.0000
    10 C10        0.4531   -16.8010    14.6977 C.3        1 BB1          0.0000
    11 C11        0.8556   -18.8503    13.3018 C.3        1 BB1          0.0000
    12 H12       -1.5879   -19.5339     9.6494 H          1 BB1          0.0000
    13 H13       -1.9839   -17.8720     9.1501 H          1 BB1          0.0000
    14 H14       -0.7249   -18.7852     8.2845 H          1 BB1          0.0000
    15 H15       -0.6504   -16.0325    12.6143 H          1 BB1          0.0000
    16 H16        3.0677   -15.4096    11.5805 H          1 BB1          0.0000
    17 H17        1.9420   -14.7303    12.8004 H          1 BB1          0.0000
    18 H18        2.9430   -17.6199    12.5344 H          1 BB1          0.0000
    19 H19        2.8851   -16.5927    14.0044 H          1 BB1          0.0000
    20 H20        0.5047   -15.7123    14.7069 H          1 BB1          0.0000
    21 H21       -0.5769   -17.1173    14.8629 H          1 BB1          0.0000
    22 H22        1.0874   -17.2015    15.4884 H          1 BB1          0.0000
    23 H23        1.4934   -19.2688    14.0804 H          1 BB1          0.0000
    24 H24       -0.1748   -19.1645    13.4684 H          1 BB1          0.0000
    25 H25        1.1908   -19.2057    12.3275 H          1 BB1          0.0000
    26 O1         0.5661   -15.7707    10.9576 O.2        2 BB2          0.0000
    27 C2         0.2489   -14.5943    11.0019 C.2        2 BB2          0.0000
    28 C4         0.9922   -13.5817    10.1694 C.3        2 BB2          0.0000
    29 C5         0.0568   -13.0163     9.0988 C.3        2 BB2          0.0000
    30 C6         0.8768   -12.3025     8.0042 C.3        2 BB2          0.0000
    31 C7         1.0511   -13.3749     6.9002 C.3        2 BB2          0.0000
    32 C8        -0.3163   -14.1023     6.9114 C.3        2 BB2          0.0000
    33 C9        -0.7017   -14.1605     8.4040 C.3        2 BB2          0.0000
    34 C10       -0.9194   -12.0528     9.7233 C.ar       2 BB2          0.0000
    35 C11       -0.7018   -11.5818    11.0046 C.ar       2 BB2          0.0000
    36 C12       -1.5972   -10.6981    11.5774 C.ar       2 BB2          0.0000
    37 C13       -2.7099   -10.2850    10.8687 C.ar       2 BB2          0.0000
    38 C14       -2.9270   -10.7553     9.5871 C.ar       2 BB2          0.0000
    39 C15       -2.0292   -11.6357     9.0126 C.ar       2 BB2          0.0000
    40 H16        1.3431   -12.7722    10.8096 H          2 BB2          0.0000
    41 H17        1.8455   -14.0614     9.6898 H          2 BB2          0.0000
    42 H18        0.3298   -11.4425     7.6177 H          2 BB2          0.0000
    43 H19        1.8472   -11.9949     8.3939 H          2 BB2          0.0000
    44 H20        1.2319   -12.9071     5.9324 H          2 BB2          0.0000
    45 H21        1.8570   -14.0634     7.1543 H          2 BB2          0.0000
    46 H22       -1.0559   -13.5330     6.3483 H          2 BB2          0.0000
    47 H23       -0.2166   -15.1082     6.5036 H          2 BB2          0.0000
    48 H24       -0.4034   -15.1187     8.8294 H          2 BB2          0.0000
    49 H25       -1.7765   -14.0194     8.5179 H          2 BB2          0.0000
    50 H26        0.1674   -11.9045    11.5583 H          2 BB2          0.0000
    51 H27       -1.4278   -10.3307    12.5787 H          2 BB2          0.0000
    52 H28       -3.4099    -9.5951    11.3165 H          2 BB2          0.0000
    53 H29       -3.7964   -10.4328     9.0334 H          2 BB2          0.0000
    54 H30       -2.1987   -12.0032     8.0113 H          2 BB2          0.0000
@<TRIPOS>BOND
     1      1      2 1
     2      1     12 1
     3      1     13 1
     4      1     14 1
     5      2      3 1
     6      3      4 2
     7      3      5 1
     8      5      6 1
     9      5      9 1
    10      5     15 1
    11      6      7 1
    12      7      8 1
    13      7     16 1
    14      7     17 1
    15      8      9 1
    16      8     18 1
    17      8     19 1
    18      9     10 1
    19      9     11 1
    20     10     20 1
    21     10     21 1
    22     10     22 1
    23     11     23 1
    24     11     24 1
    25     11     25 1
    26     26     27 2
    27     27     28 1
    28     28     29 1
    29     28     40 1
    30     28     41 1
    31     29     30 1
    32     29     33 1
    33     29     34 1
    34     30     31 1
    35     30     42 1
    36     30     43 1
    37     31     32 1
    38     31     44 1
    39     31     45 1
    40     32     33 1
    41     32     46 1
    42     32     47 1
    43     33     48 1
    44     33     49 1
    45     34     35 ar
    46     34     39 ar
    47     35     36 ar
    48     35     50 1
    49     36     37 ar
    50     36     51 1
    51     37     38 ar
    52     37     52 1
    53     38     39 ar
    54     38     53 1
    55     39     54 1
    56      6     27 am
@<TRIPOS>SUBSTRUCTURE
     1 BB1           6
     2 BB2          27
@<TRIPOS>MOLECULE
EN300-703997_i001_EN300-344045_i001_13_3_1
  54   56   2   0   0
SMALL
USER_CHARGES
@<TRIPOS>ATOM
     1 C1        -1.1814   -18.6017     9.2572 C.3        1 BB1          0.0000
     2 O2        -0.1787   -18.0877    10.1731 O.3        1 BB1          0.0000
     3 C3        -0.5811   -17.8081    11.4227 C.2        1 BB1          0.0000
     4 O4        -1.4865   -18.4346    11.9203 O.2        1 BB1          0.0000
     5 C5         0.0965   -16.7128    12.2051 C.3        1 BB1          0.0000
     6 N6         1.0282   -15.9701    11.3289 N.am       1 BB1          0.0000
     7 C7         2.1822   -15.5988    12.1872 C.3        1 BB1          0.0000
     8 C8         2.3840   -16.8543    13.0725 C.3        1 BB1          0.0000
     9 C9         0.9358   -17.3229    13.3429 C.3        1 BB1          0.0000
    10 C10        0.4531   -16.8010    14.6977 C.3        1 BB1          0.0000
    11 C11        0.8556   -18.8503    13.3018 C.3        1 BB1          0.0000
    12 H12       -1.5879   -19.5339     9.6494 H          1 BB1          0.0000
    13 H13       -1.9839   -17.8720     9.1501 H          1 BB1          0.0000
    14 H14       -0.7249   -18.7852     8.2845 H          1 BB1          0.0000
    15 H15       -0.6504   -16.0325    12.6143 H          1 BB1          0.0000
    16 H16        3.0677   -15.4096    11.5805 H          1 BB1          0.0000
    17 H17        1.9420   -14.7303    12.8004 H          1 BB1          0.0000
    18 H18        2.9430   -17.6199    12.5344 H          1 BB1          0.0000
    19 H19        2.8851   -16.5927    14.0044 H          1 BB1          0.0000
    20 H20        0.5047   -15.7123    14.7069 H          1 BB1          0.0000
    21 H21       -0.5769   -17.1173    14.8629 H          1 BB1          0.0000
    22 H22        1.0874   -17.2015    15.4884 H          1 BB1          0.0000
    23 H23        1.4934   -19.2688    14.0804 H          1 BB1          0.0000
    24 H24       -0.1748   -19.1645    13.4684 H          1 BB1          0.0000
    25 H25        1.1908   -19.2057    12.3275 H          1 BB1          0.0000
    26 O1         1.6992   -14.4985    10.4947 O.2        2 BB2          0.0000
    27 C2         0.5459   -14.5453    10.1019 C.2        2 BB2          0.0000
    28 C4        -0.4230   -13.4540    10.4780 C.3        2 BB2          0.0000
    29 C5        -0.6345   -12.5251     9.2809 C.3        2 BB2          0.0000
    30 C6         0.6374   -11.6890     9.0294 C.3        2 BB2          0.0000
    31 C7         1.4011   -12.4785     7.9373 C.3        2 BB2          0.0000
    32 C8         0.2593   -12.9923     7.0255 C.3        2 BB2          0.0000
    33 C9        -0.8749   -13.3536     8.0068 C.3        2 BB2          0.0000
    34 C10       -1.8085   -11.6149     9.5352 C.ar       2 BB2          0.0000
    35 C11       -3.0826   -12.1418     9.6348 C.ar       2 BB2          0.0000
    36 C12       -4.1594   -11.3070     9.8680 C.ar       2 BB2          0.0000
    37 C13       -3.9620    -9.9453    10.0023 C.ar       2 BB2          0.0000
    38 C14       -2.6878    -9.4186     9.9036 C.ar       2 BB2          0.0000
    39 C15       -1.6104   -10.2540     9.6747 C.ar       2 BB2          0.0000
    40 H16       -1.3759   -13.8977    10.7665 H          2 BB2          0.0000
    41 H17       -0.0201   -12.8827    11.3144 H          2 BB2          0.0000
    42 H18        0.3751   -10.6947     8.6682 H          2 BB2          0.0000
    43 H19        1.2348   -11.6204     9.9386 H          2 BB2          0.0000
    44 H20        2.0718   -11.8214     7.3835 H          2 BB2          0.0000
    45 H21        1.9500   -13.3119     8.3758 H          2 BB2          0.0000
    46 H22       -0.0641   -12.2083     6.3407 H          2 BB2          0.0000
    47 H23        0.5807   -13.8747     6.4723 H          2 BB2          0.0000
    48 H24       -0.8408   -14.4175     8.2413 H          2 BB2          0.0000
    49 H25       -1.8409   -13.0975     7.5716 H          2 BB2          0.0000
    50 H26       -3.2369   -13.2055     9.5299 H          2 BB2          0.0000
    51 H27       -5.1549   -11.7185     9.9450 H          2 BB2          0.0000
    52 H28       -4.8033    -9.2931    10.1838 H          2 BB2          0.0000
    53 H29       -2.5335    -8.3548    10.0082 H          2 BB2          0.0000
    54 H30       -0.6148    -9.8425     9.5976 H          2 BB2          0.0000
@<TRIPOS>BOND
     1      1      2 1
     2      1     12 1
     3      1     13 1
     4      1     14 1
     5      2      3 1
     6      3      4 2
     7      3      5 1
     8      5      6 1
     9      5      9 1
    10      5     15 1
    11      6      7 1
    12      7      8 1
    13      7     16 1
    14      7     17 1
    15      8      9 1
    16      8     18 1
    17      8     19 1
    18      9     10 1
    19      9     11 1
    20     10     20 1
    21     10     21 1
    22     10     22 1
    23     11     23 1
    24     11     24 1
    25     11     25 1
    26     26     27 2
    27     27     28 1
    28     28     29 1
    29     28     40 1
    30     28     41 1
    31     29     30 1
    32     29     33 1
    33     29     34 1
    34     30     31 1
    35     30     42 1
    36     30     43 1
    37     31     32 1
    38     31     44 1
    39     31     45 1
    40     32     33 1
    41     32     46 1
    42     32     47 1
    43     33     48 1
    44     33     49 1
    45     34     35 ar
    46     34     39 ar
    47     35     36 ar
    48     35     50 1
    49     36     37 ar
    50     36     51 1
    51     37     38 ar
    52     37     52 1
    53     38     39 ar
    54     38     53 1
    55     39     54 1
    56      6     27 am
@<TRIPOS>SUBSTRUCTURE
     1 BB1           6
     2 BB2          27
@<TRIPOS>MOLECULE
EN300-703997_i001_EN300-97777_i001_14_3_1
  53   53   2   0   0
SMALL
USER_CHARGES
@<TRIPOS>ATOM
     1 C1        -0.7019   -21.6414    12.0133 C.3        1 BB1          0.0000
     2 O2        -0.5045   -20.2342    12.3119 O.3        1 BB1          0.0000
     3 C3         0.7341   -19.7441    12.1467 C.2        1 BB1          0.0000
     4 O4         1.6045   -20.4442    11.6860 O.2        1 BB1          0.0000
     5 C5         1.0393   -18.3205    12.5358 C.3        1 BB1          0.0000
     6 N6         2.4240   -17.9774    12.1456 N.am       1 BB1          0.0000
     7 C7         2.9304   -17.0692    13.2062 C.3        1 BB1          0.0000
     8 C8         2.3510   -17.6835    14.5052 C.3        1 BB1          0.0000
     9 C9         0.9490   -18.1638    14.0651 C.3        1 BB1          0.0000
    10 C10       -0.1087   -17.1205    14.4306 C.3        1 BB1          0.0000
    11 C11        0.6189   -19.5076    14.7181 C.3        1 BB1          0.0000
    12 H12       -0.4489   -21.8305    10.9701 H          1 BB1          0.0000
    13 H13       -0.0605   -22.2430    12.6574 H          1 BB1          0.0000
    14 H14       -1.7444   -21.9072    12.1883 H          1 BB1          0.0000
    15 H15        0.3374   -17.6439    12.0482 H          1 BB1          0.0000
    16 H16        4.0200   -17.0757    13.2303 H          1 BB1          0.0000
    17 H17        2.5539   -16.0570    13.0581 H          1 BB1          0.0000
    18 H18        2.9594   -18.5240    14.8392 H          1 BB1          0.0000
    19 H19        2.2720   -16.9283    15.2872 H          1 BB1          0.0000
    20 H20        0.1336   -16.1734    13.9486 H          1 BB1          0.0000
    21 H21       -1.0872   -17.4609    14.0914 H          1 BB1          0.0000
    22 H22       -0.1262   -16.9840    15.5118 H          1 BB1          0.0000
    23 H23        0.6077   -19.3919    15.8019 H          1 BB1          0.0000
    24 H24       -0.3603   -19.8455    14.3787 H          1 BB1          0.0000
    25 H25        1.3738   -20.2425    14.4388 H          1 BB1          0.0000
    26 C1        -1.5392   -10.5689    11.7089 C.3        2 BB2          0.0000
    27 C2        -1.5677   -11.2425    10.3355 C.3        2 BB2          0.0000
    28 C3        -2.9433   -11.8711    10.1040 C.3        2 BB2          0.0000
    29 C4        -1.2944   -10.1995     9.2500 C.3        2 BB2          0.0000
    30 O5        -0.5485   -12.2753    10.2818 O.3        2 BB2          0.0000
    31 C6        -0.7051   -13.3319    11.1016 C.2        2 BB2          0.0000
    32 O7        -1.5463   -13.3014    11.9779 O.2        2 BB2          0.0000
    33 N8         0.0712   -14.4232    10.9502 N.am       2 BB2          0.0000
    34 C9         1.0854   -14.4598     9.8936 C.3        2 BB2          0.0000
    35 C10        0.4242   -14.4570     8.5785 C.1        2 BB2          0.0000
    36 C11       -0.1031   -14.4548     7.5296 C.1        2 BB2          0.0000
    37 C12       -0.0992   -15.5728    11.8422 C.3        2 BB2          0.0000
    38 C13        1.0675   -15.6478    12.7932 C.2        2 BB2          0.0000
    39 O14        2.2016   -15.7569    12.3594 O.2        2 BB2          0.0000
    40 H16       -1.7339   -11.3120    12.4821 H          2 BB2          0.0000
    41 H17       -0.5592   -10.1211    11.8737 H          2 BB2          0.0000
    42 H18       -2.3044    -9.7936    11.7492 H          2 BB2          0.0000
    43 H19       -3.7084   -11.0958    10.1443 H          2 BB2          0.0000
    44 H20       -2.9635   -12.3511     9.1256 H          2 BB2          0.0000
    45 H21       -3.1380   -12.6142    10.8774 H          2 BB2          0.0000
    46 H22       -0.3143    -9.7517     9.4149 H          2 BB2          0.0000
    47 H23       -1.3146   -10.6794     8.2715 H          2 BB2          0.0000
    48 H24       -2.0595    -9.4243     9.2903 H          2 BB2          0.0000
    49 H25        1.7298   -13.5849     9.9782 H          2 BB2          0.0000
    50 H26        1.6851   -15.3641     9.9968 H          2 BB2          0.0000
    51 H27       -0.5748   -14.4528     6.5915 H          2 BB2          0.0000
    52 H28       -1.0232   -15.4590    12.4091 H          2 BB2          0.0000
    53 H29       -0.1456   -16.4875    11.2513 H          2 BB2          0.0000
@<TRIPOS>BOND
     1      1      2 1
     2      1     12 1
     3      1     13 1
     4      1     14 1
     5      2      3 1
     6      3      4 2
     7      3      5 1
     8      5      6 1
     9      5      9 1
    10      5     15 1
    11      6      7 1
    12      7      8 1
    13      7     16 1
    14      7     17 1
    15      8      9 1
    16      8     18 1
    17      8     19 1
    18      9     10 1
    19      9     11 1
    20     10     20 1
    21     10     21 1
    22     10     22 1
    23     11     23 1
    24     11     24 1
    25     11     25 1
    26     26     27 1
    27     26     40 1
    28     26     41 1
    29     26     42 1
    30     27     28 1
    31     27     29 1
    32     27     30 1
    33     28     43 1
    34     28     44 1
    35     28     45 1
    36     29     46 1
    37     29     47 1
    38     29     48 1
    39     30     31 1
    40     31     32 2
    41     31     33 am
    42     33     34 1
    43     33     37 1
    44     34     35 1
    45     34     49 1
    46     34     50 1
    47     35     36 3
    48     36     51 1
    49     37     38 1
    50     37     52 1
    51     37     53 1
    52     38     39 2
    53      6     38 am
@<TRIPOS>SUBSTRUCTURE
     1 BB1           6
     2 BB2          38
@<TRIPOS>MOLECULE
EN300-703997_i001_EN300-315786_i001_14_15_1
  53   55   2   0   0
SMALL
USER_CHARGES
@<TRIPOS>ATOM
     1 C1        -0.7019   -21.6414    12.0133 C.3        1 BB1          0.0000
     2 O2        -0.5045   -20.2342    12.3119 O.3        1 BB1          0.0000
     3 C3         0.7341   -19.7441    12.1467 C.2        1 BB1          0.0000
     4 O4         1.6045   -20.4442    11.6860 O.2        1 BB1          0.0000
     5 C5         1.0393   -18.3205    12.5358 C.3        1 BB1          0.0000
     6 N6         2.4240   -17.9774    12.1456 N.am       1 BB1          0.0000
     7 C7         2.9304   -17.0692    13.2062 C.3        1 BB1          0.0000
     8 C8         2.3510   -17.6835    14.5052 C.3        1 BB1          0.0000
     9 C9         0.9490   -18.1638    14.0651 C.3        1 BB1          0.0000
    10 C10       -0.1087   -17.1205    14.4306 C.3        1 BB1          0.0000
    11 C11        0.6189   -19.5076    14.7181 C.3        1 BB1          0.0000
    12 H12       -0.4489   -21.8305    10.9701 H          1 BB1          0.0000
    13 H13       -0.0605   -22.2430    12.6574 H          1 BB1          0.0000
    14 H14       -1.7444   -21.9072    12.1883 H          1 BB1          0.0000
    15 H15        0.3374   -17.6439    12.0482 H          1 BB1          0.0000
    16 H16        4.0200   -17.0757    13.2303 H          1 BB1          0.0000
    17 H17        2.5539   -16.0570    13.0581 H          1 BB1          0.0000
    18 H18        2.9594   -18.5240    14.8392 H          1 BB1          0.0000
    19 H19        2.2720   -16.9283    15.2872 H          1 BB1          0.0000
    20 H20        0.1336   -16.1734    13.9486 H          1 BB1          0.0000
    21 H21       -1.0872   -17.4609    14.0914 H          1 BB1          0.0000
    22 H22       -0.1262   -16.9840    15.5118 H          1 BB1          0.0000
    23 H23        0.6077   -19.3919    15.8019 H          1 BB1          0.0000
    24 H24       -0.3603   -19.8455    14.3787 H          1 BB1          0.0000
    25 H25        1.3738   -20.2425    14.4388 H          1 BB1          0.0000
    26 O1         2.6322   -17.2256    13.2919 O.2        2 BB2          0.0000
    27 C2         1.7327   -16.4396    13.5523 C.2        2 BB2          0.0000
    28 C4         1.1955   -15.5555    12.4970 C.ar       2 BB2          0.0000
    29 C5        -0.1031   -15.0520    12.6014 C.ar       2 BB2          0.0000
    30 C6        -0.6034   -14.2275    11.6168 C.ar       2 BB2          0.0000
    31 C7         0.1870   -13.8958    10.5158 C.ar       2 BB2          0.0000
    32 C8         1.4845   -14.3984    10.4108 C.ar       2 BB2          0.0000
    33 C9         1.9881   -15.2184    11.3976 C.ar       2 BB2          0.0000
    34 C10       -0.3515   -13.0103     9.4580 C.2        2 BB2          0.0000
    35 O11       -0.3862   -13.3925     8.3050 O.2        2 BB2          0.0000
    36 N12       -0.8031   -11.7804     9.7740 N.am       2 BB2          0.0000
    37 C13       -1.4186   -10.9146     8.7556 C.3        2 BB2          0.0000
    38 C14       -2.7582   -10.4053     9.2996 C.3        2 BB2          0.0000
    39 O15       -2.5518    -9.8218    10.5882 O.3        2 BB2          0.0000
    40 C16       -2.0707   -10.7375    11.5751 C.3        2 BB2          0.0000
    41 C17       -0.7009   -11.2660    11.1489 C.3        2 BB2          0.0000
    42 H18       -0.7151   -15.3090    13.4533 H          2 BB2          0.0000
    43 H19       -1.6078   -13.8385    11.6973 H          2 BB2          0.0000
    44 H20        2.0956   -14.1416     9.5582 H          2 BB2          0.0000
    45 H21        2.9925   -15.6071    11.3164 H          2 BB2          0.0000
    46 H22       -0.7622   -10.0699     8.5466 H          2 BB2          0.0000
    47 H23       -1.5863   -11.4847     7.8418 H          2 BB2          0.0000
    48 H24       -3.1651    -9.6553     8.6213 H          2 BB2          0.0000
    49 H25       -3.4568   -11.2377     9.3846 H          2 BB2          0.0000
    50 H26       -1.9829   -10.2265    12.5339 H          2 BB2          0.0000
    51 H27       -2.7667   -11.5711    11.6683 H          2 BB2          0.0000
    52 H28       -0.3914   -12.0672    11.8201 H          2 BB2          0.0000
    53 H29        0.0300   -10.4580    11.1793 H          2 BB2          0.0000
@<TRIPOS>BOND
     1      1      2 1
     2      1     12 1
     3      1     13 1
     4      1     14 1
     5      2      3 1
     6      3      4 2
     7      3      5 1
     8      5      6 1
     9      5      9 1
    10      5     15 1
    11      6      7 1
    12      7      8 1
    13      7     16 1
    14      7     17 1
    15      8      9 1
    16      8     18 1
    17      8     19 1
    18      9     10 1
    19      9     11 1
    20     10     20 1
    21     10     21 1
    22     10     22 1
    23     11     23 1
    24     11     24 1
    25     11     25 1
    26     26     27 2
    27     27     28 1
    28     28     29 ar
    29     28     33 ar
    30     29     30 ar
    31     29     42 1
    32     30     31 ar
    33     30     43 1
    34     31     32 ar
    35     31     34 1
    36     32     33 ar
    37     32     44 1
    38     33     45 1
    39     34     35 2
    40     34     36 am
    41     36     37 1
    42     36     41 1
    43     37     38 1
    44     37     46 1
    45     37     47 1
    46     38     39 1
    47     38     48 1
    48     38     49 1
    49     39     40 1
    50     40     41 1
    51     40     50 1
    52     40     51 1
    53     41     52 1
    54     41     53 1
    55      6     27 am
@<TRIPOS>SUBSTRUCTURE
     1 BB1           6
     2 BB2          27
@<TRIPOS>MOLECULE
EN300-703997_i001_EN300-194291_i002_14_12_1
  49   51   2   0   0
SMALL
USER_CHARGES
@<TRIPOS>ATOM
     1 C1        -0.7019   -21.6414    12.0133 C.3        1 BB1          0.0000
     2 O2        -0.5045   -20.2342    12.3119 O.3        1 BB1          0.0000
     3 C3         0.7341   -19.7441    12.1467 C.2        1 BB1          0.0000
     4 O4         1.6045   -20.4442    11.6860 O.2        1 BB1          0.0000
     5 C5         1.0393   -18.3205    12.5358 C.3        1 BB1          0.0000
     6 N6         2.4240   -17.9774    12.1456 N.am       1 BB1          0.0000
     7 C7         2.9304   -17.0692    13.2062 C.3        1 BB1          0.0000
     8 C8         2.3510   -17.6835    14.5052 C.3        1 BB1          0.0000
     9 C9         0.9490   -18.1638    14.0651 C.3        1 BB1          0.0000
    10 C10       -0.1087   -17.1205    14.4306 C.3        1 BB1          0.0000
    11 C11        0.6189   -19.5076    14.7181 C.3        1 BB1          0.0000
    12 H12       -0.4489   -21.8305    10.9701 H          1 BB1          0.0000
    13 H13       -0.0605   -22.2430    12.6574 H          1 BB1          0.0000
    14 H14       -1.7444   -21.9072    12.1883 H          1 BB1          0.0000
    15 H15        0.3374   -17.6439    12.0482 H          1 BB1          0.0000
    16 H16        4.0200   -17.0757    13.2303 H          1 BB1          0.0000
    17 H17        2.5539   -16.0570    13.0581 H          1 BB1          0.0000
    18 H18        2.9594   -18.5240    14.8392 H          1 BB1          0.0000
    19 H19        2.2720   -16.9283    15.2872 H          1 BB1          0.0000
    20 H20        0.1336   -16.1734    13.9486 H          1 BB1          0.0000
    21 H21       -1.0872   -17.4609    14.0914 H          1 BB1          0.0000
    22 H22       -0.1262   -16.9840    15.5118 H          1 BB1          0.0000
    23 H23        0.6077   -19.3919    15.8019 H          1 BB1          0.0000
    24 H24       -0.3603   -19.8455    14.3787 H          1 BB1          0.0000
    25 H25        1.3738   -20.2425    14.4388 H          1 BB1          0.0000
    26 O1         1.9320   -16.0914    13.2909 O.2        2 BB2          0.0000
    27 C2         0.7456   -15.8133    13.3301 C.2        2 BB2          0.0000
    28 C4         0.0314   -15.3798    12.0758 C.3        2 BB2          0.0000
    29 C5        -0.7148   -14.0455    12.2975 C.3        2 BB2          0.0000
    30 N6        -0.5862   -13.3104    11.0337 N.am       2 BB2          0.0000
    31 C7         0.3960   -13.8196    10.2703 C.2        2 BB2          0.0000
    32 O8         0.7185   -13.3971     9.1801 O.2        2 BB2          0.0000
    33 C9         1.0406   -14.9966    10.9688 C.3        2 BB2          0.0000
    34 C10       -1.3839   -12.2184    10.6702 C.ar       2 BB2          0.0000
    35 C11       -0.8494   -10.9372    10.6692 C.ar       2 BB2          0.0000
    36 C12       -1.6370    -9.8604    10.3100 C.ar       2 BB2          0.0000
    37 C13       -2.9591   -10.0573     9.9514 C.ar       2 BB2          0.0000
    38 F14       -3.7273    -9.0028     9.6005 F          2 BB2          0.0000
    39 C15       -3.4960   -11.3363     9.9514 C.ar       2 BB2          0.0000
    40 F16       -4.7867   -11.5269     9.6006 F          2 BB2          0.0000
    41 C17       -2.7088   -12.4167    10.3049 C.ar       2 BB2          0.0000
    42 H18       -0.6515   -16.1560    11.7302 H          2 BB2          0.0000
    43 H19       -1.7653   -14.2332    12.5195 H          2 BB2          0.0000
    44 H20       -0.2513   -13.4845    13.1090 H          2 BB2          0.0000
    45 H21        1.9949   -14.7042    11.4071 H          2 BB2          0.0000
    46 H22        1.1770   -15.8249    10.2735 H          2 BB2          0.0000
    47 H23        0.1820   -10.7822    10.9496 H          2 BB2          0.0000
    48 H24       -1.2207    -8.8639    10.3094 H          2 BB2          0.0000
    49 H25       -3.1263   -13.4128    10.3050 H          2 BB2          0.0000
@<TRIPOS>BOND
     1      1      2 1
     2      1     12 1
     3      1     13 1
     4      1     14 1
     5      2      3 1
     6      3      4 2
     7      3      5 1
     8      5      6 1
     9      5      9 1
    10      5     15 1
    11      6      7 1
    12      7      8 1
    13      7     16 1
    14      7     17 1
    15      8      9 1
    16      8     18 1
    17      8     19 1
    18      9     10 1
    19      9     11 1
    20     10     20 1
    21     10     21 1
    22     10     22 1
    23     11     23 1
    24     11     24 1
    25     11     25 1
    26     26     27 2
    27     27     28 1
    28     28     29 1
    29     28     33 1
    30     28     42 1
    31     29     30 1
    32     29     43 1
    33     29     44 1
    34     30     31 am
    35     30     34 1
    36     31     32 2
    37     31     33 1
    38     33     45 1
    39     33     46 1
    40     34     35 ar
    41     34     41 ar
    42     35     36 ar
    43     35     47 1
    44     36     37 ar
    45     36     48 1
    46     37     38 1
    47     37     39 ar
    48     39     40 1
    49     39     41 ar
    50     41     49 1
    51      6     27 am
@<TRIPOS>SUBSTRUCTURE
     1 BB1           6
     2 BB2          27
@<TRIPOS>MOLECULE
EN300-703997_i001_EN300-194291_i002_14_16_1
  49   51   2   0   0
SMALL
USER_CHARGES
@<TRIPOS>ATOM
     1 C1        -0.7019   -21.6414    12.0133 C.3        1 BB1          0.0000
     2 O2        -0.5045   -20.2342    12.3119 O.3        1 BB1          0.0000
     3 C3         0.7341   -19.7441    12.1467 C.2        1 BB1          0.0000
     4 O4         1.6045   -20.4442    11.6860 O.2        1 BB1          0.0000
     5 C5         1.0393   -18.3205    12.5358 C.3        1 BB1          0.0000
     6 N6         2.4240   -17.9774    12.1456 N.am       1 BB1          0.0000
     7 C7         2.9304   -17.0692    13.2062 C.3        1 BB1          0.0000
     8 C8         2.3510   -17.6835    14.5052 C.3        1 BB1          0.0000
     9 C9         0.9490   -18.1638    14.0651 C.3        1 BB1          0.0000
    10 C10       -0.1087   -17.1205    14.4306 C.3        1 BB1          0.0000
    11 C11        0.6189   -19.5076    14.7181 C.3        1 BB1          0.0000
    12 H12       -0.4489   -21.8305    10.9701 H          1 BB1          0.0000
    13 H13       -0.0605   -22.2430    12.6574 H          1 BB1          0.0000
    14 H14       -1.7444   -21.9072    12.1883 H          1 BB1          0.0000
    15 H15        0.3374   -17.6439    12.0482 H          1 BB1          0.0000
    16 H16        4.0200   -17.0757    13.2303 H          1 BB1          0.0000
    17 H17        2.5539   -16.0570    13.0581 H          1 BB1          0.0000
    18 H18        2.9594   -18.5240    14.8392 H          1 BB1          0.0000
    19 H19        2.2720   -16.9283    15.2872 H          1 BB1          0.0000
    20 H20        0.1336   -16.1734    13.9486 H          1 BB1          0.0000
    21 H21       -1.0872   -17.4609    14.0914 H          1 BB1          0.0000
    22 H22       -0.1262   -16.9840    15.5118 H          1 BB1          0.0000
    23 H23        0.6077   -19.3919    15.8019 H          1 BB1          0.0000
    24 H24       -0.3603   -19.8455    14.3787 H          1 BB1          0.0000
    25 H25        1.3738   -20.2425    14.4388 H          1 BB1          0.0000
    26 C2         0.9864   -15.6654    12.0206 C.2        2 BB2          0.0000
    27 O3         2.1974   -15.5995    12.1456 O.2        2 BB2          0.0000
    28 C4         0.3162   -15.0305    10.8295 C.3        2 BB2          0.0000
    29 C5        -0.7059   -13.9613    11.2751 C.3        2 BB2          0.0000
    30 N6        -0.6164   -12.8925    10.2732 N.am       2 BB2          0.0000
    31 C7         0.5153   -12.9905     9.5545 C.2        2 BB2          0.0000
    32 O8         0.8423   -12.2317     8.6666 O.2        2 BB2          0.0000
    33 C9         1.3218   -14.1850    10.0143 C.3        2 BB2          0.0000
    34 C10       -1.5851   -11.8982    10.0900 C.ar       2 BB2          0.0000
    35 C11       -1.1994   -10.5761     9.9146 C.ar       2 BB2          0.0000
    36 C12       -2.1559    -9.5957     9.7334 C.ar       2 BB2          0.0000
    37 C13       -3.4988    -9.9298     9.7271 C.ar       2 BB2          0.0000
    38 F14       -4.4322    -8.9694     9.5498 F          2 BB2          0.0000
    39 C15       -3.8874   -11.2498     9.9021 C.ar       2 BB2          0.0000
    40 F16       -5.1988   -11.5745     9.8952 F          2 BB2          0.0000
    41 C17       -2.9323   -12.2343    10.0779 C.ar       2 BB2          0.0000
    42 H18       -0.1577   -15.7858    10.2026 H          2 BB2          0.0000
    43 H19       -1.7111   -14.3826    11.2883 H          2 BB2          0.0000
    44 H20       -0.4442   -13.5770    12.2610 H          2 BB2          0.0000
    45 H21        2.1512   -13.8654    10.6453 H          2 BB2          0.0000
    46 H22        1.6889   -14.7501     9.1575 H          2 BB2          0.0000
    47 H23       -0.1517   -10.3141     9.9201 H          2 BB2          0.0000
    48 H24       -1.8553    -8.5674     9.5970 H          2 BB2          0.0000
    49 H25       -3.2342   -13.2622    10.2142 H          2 BB2          0.0000
@<TRIPOS>BOND
     1      1      2 1
     2      1     12 1
     3      1     13 1
     4      1     14 1
     5      2      3 1
     6      3      4 2
     7      3      5 1
     8      5      6 1
     9      5      9 1
    10      5     15 1
    11      6      7 1
    12      7      8 1
    13      7     16 1
    14      7     17 1
    15      8      9 1
    16      8     18 1
    17      8     19 1
    18      9     10 1
    19      9     11 1
    20     10     20 1
    21     10     21 1
    22     10     22 1
    23     11     23 1
    24     11     24 1
    25     11     25 1
    26     26     27 2
    27     26     28 1
    28     28     29 1
    29     28     33 1
    30     28     42 1
    31     29     30 1
    32     29     43 1
    33     29     44 1
    34     30     31 am
    35     30     34 1
    36     31     32 2
    37     31     33 1
    38     33     45 1
    39     33     46 1
    40     34     35 ar
    41     34     41 ar
    42     35     36 ar
    43     35     47 1
    44     36     37 ar
    45     36     48 1
    46     37     38 1
    47     37     39 ar
    48     39     40 1
    49     39     41 ar
    50     41     49 1
    51      6     26 am
@<TRIPOS>SUBSTRUCTURE
     1 BB1           6
     2 BB2          26
@<TRIPOS>MOLECULE
EN300-703997_i001_EN300-43851_i001_14_17_1
  47   49   2   0   0
SMALL
USER_CHARGES
@<TRIPOS>ATOM
     1 C1        -0.7019   -21.6414    12.0133 C.3        1 BB1          0.0000
     2 O2        -0.5045   -20.2342    12.3119 O.3        1 BB1          0.0000
     3 C3         0.7341   -19.7441    12.1467 C.2        1 BB1          0.0000
     4 O4         1.6045   -20.4442    11.6860 O.2        1 BB1          0.0000
     5 C5         1.0393   -18.3205    12.5358 C.3        1 BB1          0.0000
     6 N6         2.4240   -17.9774    12.1456 N.am       1 BB1          0.0000
     7 C7         2.9304   -17.0692    13.2062 C.3        1 BB1          0.0000
     8 C8         2.3510   -17.6835    14.5052 C.3        1 BB1          0.0000
     9 C9         0.9490   -18.1638    14.0651 C.3        1 BB1          0.0000
    10 C10       -0.1087   -17.1205    14.4306 C.3        1 BB1          0.0000
    11 C11        0.6189   -19.5076    14.7181 C.3        1 BB1          0.0000
    12 H12       -0.4489   -21.8305    10.9701 H          1 BB1          0.0000
    13 H13       -0.0605   -22.2430    12.6574 H          1 BB1          0.0000
    14 H14       -1.7444   -21.9072    12.1883 H          1 BB1          0.0000
    15 H15        0.3374   -17.6439    12.0482 H          1 BB1          0.0000
    16 H16        4.0200   -17.0757    13.2303 H          1 BB1          0.0000
    17 H17        2.5539   -16.0570    13.0581 H          1 BB1          0.0000
    18 H18        2.9594   -18.5240    14.8392 H          1 BB1          0.0000
    19 H19        2.2720   -16.9283    15.2872 H          1 BB1          0.0000
    20 H20        0.1336   -16.1734    13.9486 H          1 BB1          0.0000
    21 H21       -1.0872   -17.4609    14.0914 H          1 BB1          0.0000
    22 H22       -0.1262   -16.9840    15.5118 H          1 BB1          0.0000
    23 H23        0.6077   -19.3919    15.8019 H          1 BB1          0.0000
    24 H24       -0.3603   -19.8455    14.3787 H          1 BB1          0.0000
    25 H25        1.3738   -20.2425    14.4388 H          1 BB1          0.0000
    26 C1        -0.7700   -15.3204    14.0246 C.3        2 BB2          0.0000
    27 C2         0.0727   -15.1101    12.7931 C.2        2 BB2          0.0000
    28 N3        -0.2421   -14.3920    11.7410 N.2        2 BB2          0.0000
    29 N4         0.8308   -14.4777    10.8442 N.pl3      2 BB2          0.0000
    30 N5         1.7450   -15.2240    11.3580 N.2        2 BB2          0.0000
    31 C6         1.3531   -15.6405    12.5500 C.2        2 BB2          0.0000
    32 C7         2.1177   -16.5138    13.4588 C.2        2 BB2          0.0000
    33 O9         2.9226   -17.3146    13.0040 O.2        2 BB2          0.0000
    34 C10        0.8977   -13.8527     9.5916 C.ar       2 BB2          0.0000
    35 C11        0.5259   -12.5215     9.4582 C.ar       2 BB2          0.0000
    36 C12        0.5924   -11.9074     8.2232 C.ar       2 BB2          0.0000
    37 C13        1.0295   -12.6184     7.1179 C.ar       2 BB2          0.0000
    38 F14        1.0943   -12.0159     5.9105 F          2 BB2          0.0000
    39 C15        1.4008   -13.9464     7.2489 C.ar       2 BB2          0.0000
    40 C16        1.3411   -14.5623     8.4834 C.ar       2 BB2          0.0000
    41 H17       -1.4026   -16.1972    13.8866 H          2 BB2          0.0000
    42 H18       -0.1213   -15.4725    14.8873 H          2 BB2          0.0000
    43 H19       -1.3958   -14.4435    14.1908 H          2 BB2          0.0000
    44 H20        0.1845   -11.9668    10.3197 H          2 BB2          0.0000
    45 H21        0.3030   -10.8722     8.1189 H          2 BB2          0.0000
    46 H22        1.7414   -14.4992     6.3859 H          2 BB2          0.0000
    47 H23        1.6311   -15.5977     8.5852 H          2 BB2          0.0000
@<TRIPOS>BOND
     1      1      2 1
     2      1     12 1
     3      1     13 1
     4      1     14 1
     5      2      3 1
     6      3      4 2
     7      3      5 1
     8      5      6 1
     9      5      9 1
    10      5     15 1
    11      6      7 1
    12      7      8 1
    13      7     16 1
    14      7     17 1
    15      8      9 1
    16      8     18 1
    17      8     19 1
    18      9     10 1
    19      9     11 1
    20     10     20 1
    21     10     21 1
    22     10     22 1
    23     11     23 1
    24     11     24 1
    25     11     25 1
    26     26     27 1
    27     26     41 1
    28     26     42 1
    29     26     43 1
    30     27     28 2
    31     27     31 1
    32     28     29 1
    33     29     30 1
    34     29     34 1
    35     30     31 2
    36     31     32 1
    37     32     33 2
    38     34     35 ar
    39     34     40 ar
    40     35     36 ar
    41     35     44 1
    42     36     37 ar
    43     36     45 1
    44     37     38 1
    45     37     39 ar
    46     39     40 ar
    47     39     46 1
    48     40     47 1
    49      6     32 am
@<TRIPOS>SUBSTRUCTURE
     1 BB1           6
     2 BB2          32
@<TRIPOS>MOLECULE
EN300-703997_i001_EN300-1087079_i001_17_4_1
  51   52   2   0   0
SMALL
USER_CHARGES
@<TRIPOS>ATOM
     1 C1        -0.3216   -20.9360    12.5224 C.3        1 BB1          0.0000
     2 O2        -0.4829   -19.5121    12.7567 O.3        1 BB1          0.0000
     3 C3        -0.0972   -18.6850    11.7724 C.2        1 BB1          0.0000
     4 O4         0.3964   -19.1337    10.7649 O.2        1 BB1          0.0000
     5 C5        -0.2799   -17.1968    11.9237 C.3        1 BB1          0.0000
     6 N6         0.0819   -16.5140    10.6627 N.am       1 BB1          0.0000
     7 C7         0.7078   -15.2280    11.0637 C.3        1 BB1          0.0000
     8 C8         1.5546   -15.6168    12.3016 C.3        1 BB1          0.0000
     9 C9         0.6650   -16.6606    13.0150 C.3        1 BB1          0.0000
    10 C10       -0.1392   -15.9965    14.1345 C.3        1 BB1          0.0000
    11 C11        1.5242   -17.7946    13.5777 C.3        1 BB1          0.0000
    12 H12       -0.9040   -21.2287    11.6488 H          1 BB1          0.0000
    13 H13        0.7312   -21.1587    12.3483 H          1 BB1          0.0000
    14 H14       -0.6707   -21.4895    13.3940 H          1 BB1          0.0000
    15 H15       -1.3151   -16.9745    12.1827 H          1 BB1          0.0000
    16 H16        1.3450   -14.8452    10.2665 H          1 BB1          0.0000
    17 H17       -0.0542   -14.4967    11.3331 H          1 BB1          0.0000
    18 H18        2.5020   -16.0613    11.9967 H          1 BB1          0.0000
    19 H19        1.7220   -14.7507    12.9419 H          1 BB1          0.0000
    20 H20       -0.7545   -15.1999    13.7164 H          1 BB1          0.0000
    21 H21       -0.7801   -16.7385    14.6109 H          1 BB1          0.0000
    22 H22        0.5439   -15.5781    14.8737 H          1 BB1          0.0000
    23 H23        2.2218   -17.3920    14.3121 H          1 BB1          0.0000
    24 H24        0.8817   -18.5348    14.0547 H          1 BB1          0.0000
    25 H25        2.0810   -18.2651    12.7674 H          1 BB1          0.0000
    26 C1         0.5107   -16.0504     7.4434 C.3        2 BB2          0.0000
    27 C2         1.1905   -14.6798     7.4534 C.3        2 BB2          0.0000
    28 C3         0.1492   -13.5961     7.7405 C.3        2 BB2          0.0000
    29 C4         0.8083   -12.1917     7.7560 C.3        2 BB2          0.0000
    30 C5        -0.1535   -11.4070     8.6827 C.3        2 BB2          0.0000
    31 N6        -0.5565   -12.3771     9.7170 N.am       2 BB2          0.0000
    32 C7        -0.4021   -13.7352     9.1752 C.3        2 BB2          0.0000
    33 C8         0.5670   -14.5181    10.0231 C.2        2 BB2          0.0000
    34 O10        0.1863   -15.5037    10.6315 O.2        2 BB2          0.0000
    35 C11       -0.9933   -12.0700    10.9545 C.2        2 BB2          0.0000
    36 O12       -1.2986   -12.9542    11.7265 O.2        2 BB2          0.0000
    37 C13       -1.1025   -10.6282    11.3788 C.3        2 BB2          0.0000
    38 H14        1.2525   -16.8223     7.2388 H          2 BB2          0.0000
    39 H15        0.0520   -16.2355     8.4147 H          2 BB2          0.0000
    40 H16       -0.2567   -16.0697     6.6695 H          2 BB2          0.0000
    41 H17        1.9579   -14.6604     8.2271 H          2 BB2          0.0000
    42 H18        1.6492   -14.4945     6.4821 H          2 BB2          0.0000
    43 H19       -0.6578   -13.6353     7.0089 H          2 BB2          0.0000
    44 H20        1.8112   -12.2354     8.1810 H          2 BB2          0.0000
    45 H21        0.8280   -11.7582     6.7561 H          2 BB2          0.0000
    46 H22        0.3629   -10.5611     9.1366 H          2 BB2          0.0000
    47 H23       -1.0244   -11.0651     8.1234 H          2 BB2          0.0000
    48 H24       -1.3690   -14.2378     9.1537 H          2 BB2          0.0000
    49 H25       -0.7871    -9.9832    10.5586 H          2 BB2          0.0000
    50 H26       -2.1365   -10.4037    11.6406 H          2 BB2          0.0000
    51 H27       -0.4627   -10.4547    12.2442 H          2 BB2          0.0000
@<TRIPOS>BOND
     1      1      2 1
     2      1     12 1
     3      1     13 1
     4      1     14 1
     5      2      3 1
     6      3      4 2
     7      3      5 1
     8      5      6 1
     9      5      9 1
    10      5     15 1
    11      6      7 1
    12      7      8 1
    13      7     16 1
    14      7     17 1
    15      8      9 1
    16      8     18 1
    17      8     19 1
    18      9     10 1
    19      9     11 1
    20     10     20 1
    21     10     21 1
    22     10     22 1
    23     11     23 1
    24     11     24 1
    25     11     25 1
    26     26     27 1
    27     26     38 1
    28     26     39 1
    29     26     40 1
    30     27     28 1
    31     27     41 1
    32     27     42 1
    33     28     29 1
    34     28     32 1
    35     28     43 1
    36     29     30 1
    37     29     44 1
    38     29     45 1
    39     30     31 1
    40     30     46 1
    41     30     47 1
    42     31     32 1
    43     31     35 am
    44     32     33 1
    45     32     48 1
    46     33     34 2
    47     35     36 2
    48     35     37 1
    49     37     49 1
    50     37     50 1
    51     37     51 1
    52      6     33 am
@<TRIPOS>SUBSTRUCTURE
     1 BB1           6
     2 BB2          33
@<TRIPOS>MOLECULE
EN300-703997_i001_EN300-4287209_i001_17_3_1
  40   41   2   0   0
SMALL
USER_CHARGES
@<TRIPOS>ATOM
     1 C1        -0.3216   -20.9360    12.5224 C.3        1 BB1          0.0000
     2 O2        -0.4829   -19.5121    12.7567 O.3        1 BB1          0.0000
     3 C3        -0.0972   -18.6850    11.7724 C.2        1 BB1          0.0000
     4 O4         0.3964   -19.1337    10.7649 O.2        1 BB1          0.0000
     5 C5        -0.2799   -17.1968    11.9237 C.3        1 BB1          0.0000
     6 N6         0.0819   -16.5140    10.6627 N.am       1 BB1          0.0000
     7 C7         0.7078   -15.2280    11.0637 C.3        1 BB1          0.0000
     8 C8         1.5546   -15.6168    12.3016 C.3        1 BB1          0.0000
     9 C9         0.6650   -16.6606    13.0150 C.3        1 BB1          0.0000
    10 C10       -0.1392   -15.9965    14.1345 C.3        1 BB1          0.0000
    11 C11        1.5242   -17.7946    13.5777 C.3        1 BB1          0.0000
    12 H12       -0.9040   -21.2287    11.6488 H          1 BB1          0.0000
    13 H13        0.7312   -21.1587    12.3483 H          1 BB1          0.0000
    14 H14       -0.6707   -21.4895    13.3940 H          1 BB1          0.0000
    15 H15       -1.3151   -16.9745    12.1827 H          1 BB1          0.0000
    16 H16        1.3450   -14.8452    10.2665 H          1 BB1          0.0000
    17 H17       -0.0542   -14.4967    11.3331 H          1 BB1          0.0000
    18 H18        2.5020   -16.0613    11.9967 H          1 BB1          0.0000
    19 H19        1.7220   -14.7507    12.9419 H          1 BB1          0.0000
    20 H20       -0.7545   -15.1999    13.7164 H          1 BB1          0.0000
    21 H21       -0.7801   -16.7385    14.6109 H          1 BB1          0.0000
    22 H22        0.5439   -15.5781    14.8737 H          1 BB1          0.0000
    23 H23        2.2218   -17.3920    14.3121 H          1 BB1          0.0000
    24 H24        0.8817   -18.5348    14.0547 H          1 BB1          0.0000
    25 H25        2.0810   -18.2651    12.7674 H          1 BB1          0.0000
    26 O1         0.9022   -15.2848    11.2052 O.2        2 BB2          0.0000
    27 C2        -0.0043   -14.5201    11.5040 C.2        2 BB2          0.0000
    28 C4        -0.4017   -13.4480    10.5724 C.ar       2 BB2          0.0000
    29 C5        -1.5033   -12.6425    10.8617 C.ar       2 BB2          0.0000
    30 C6        -1.8709   -11.6325     9.9767 C.ar       2 BB2          0.0000
    31 C7        -3.0001   -10.8010    10.2667 C.1        2 BB2          0.0000
    32 C8        -3.9259   -10.1193    10.5044 C.1        2 BB2          0.0000
    33 C9        -1.1364   -11.4311     8.8058 C.ar       2 BB2          0.0000
    34 C10       -0.0472   -12.2308     8.5230 C.ar       2 BB2          0.0000
    35 C11        0.3287   -13.2319     9.3982 C.ar       2 BB2          0.0000
    36 Cl12       1.6998   -14.2324     9.0338 Cl         2 BB2          0.0000
    37 H13       -2.0687   -12.8018    11.7680 H          2 BB2          0.0000
    38 H14       -4.7538    -9.5095    10.7170 H          2 BB2          0.0000
    39 H15       -1.4217   -10.6476     8.1195 H          2 BB2          0.0000
    40 H16        0.5164   -12.0702     7.6158 H          2 BB2          0.0000
@<TRIPOS>BOND
     1      1      2 1
     2      1     12 1
     3      1     13 1
     4      1     14 1
     5      2      3 1
     6      3      4 2
     7      3      5 1
     8      5      6 1
     9      5      9 1
    10      5     15 1
    11      6      7 1
    12      7      8 1
    13      7     16 1
    14      7     17 1
    15      8      9 1
    16      8     18 1
    17      8     19 1
    18      9     10 1
    19      9     11 1
    20     10     20 1
    21     10     21 1
    22     10     22 1
    23     11     23 1
    24     11     24 1
    25     11     25 1
    26     26     27 2
    27     27     28 1
    28     28     29 ar
    29     28     35 ar
    30     29     30 ar
    31     29     37 1
    32     30     31 1
    33     30     33 ar
    34     31     32 3
    35     32     38 1
    36     33     34 ar
    37     33     39 1
    38     34     35 ar
    39     34     40 1
    40     35     36 1
    41      6     27 am
@<TRIPOS>SUBSTRUCTURE
     1 BB1           6
     2 BB2          27
@<TRIPOS>MOLECULE
EN300-703997_i001_EN300-19857_i001_17_20_1
  38   39   2   0   0
SMALL
USER_CHARGES
@<TRIPOS>ATOM
     1 C1        -0.3216   -20.9360    12.5224 C.3        1 BB1          0.0000
     2 O2        -0.4829   -19.5121    12.7567 O.3        1 BB1          0.0000
     3 C3        -0.0972   -18.6850    11.7724 C.2        1 BB1          0.0000
     4 O4         0.3964   -19.1337    10.7649 O.2        1 BB1          0.0000
     5 C5        -0.2799   -17.1968    11.9237 C.3        1 BB1          0.0000
     6 N6         0.0819   -16.5140    10.6627 N.am       1 BB1          0.0000
     7 C7         0.7078   -15.2280    11.0637 C.3        1 BB1          0.0000
     8 C8         1.5546   -15.6168    12.3016 C.3        1 BB1          0.0000
     9 C9         0.6650   -16.6606    13.0150 C.3        1 BB1          0.0000
    10 C10       -0.1392   -15.9965    14.1345 C.3        1 BB1          0.0000
    11 C11        1.5242   -17.7946    13.5777 C.3        1 BB1          0.0000
    12 H12       -0.9040   -21.2287    11.6488 H          1 BB1          0.0000
    13 H13        0.7312   -21.1587    12.3483 H          1 BB1          0.0000
    14 H14       -0.6707   -21.4895    13.3940 H          1 BB1          0.0000
    15 H15       -1.3151   -16.9745    12.1827 H          1 BB1          0.0000
    16 H16        1.3450   -14.8452    10.2665 H          1 BB1          0.0000
    17 H17       -0.0542   -14.4967    11.3331 H          1 BB1          0.0000
    18 H18        2.5020   -16.0613    11.9967 H          1 BB1          0.0000
    19 H19        1.7220   -14.7507    12.9419 H          1 BB1          0.0000
    20 H20       -0.7545   -15.1999    13.7164 H          1 BB1          0.0000
    21 H21       -0.7801   -16.7385    14.6109 H          1 BB1          0.0000
    22 H22        0.5439   -15.5781    14.8737 H          1 BB1          0.0000
    23 H23        2.2218   -17.3920    14.3121 H          1 BB1          0.0000
    24 H24        0.8817   -18.5348    14.0547 H          1 BB1          0.0000
    25 H25        2.0810   -18.2651    12.7674 H          1 BB1          0.0000
    26 C2        -0.0612   -14.3703    11.2846 C.2        2 BB2          0.0000
    27 O3         0.9101   -15.0078    10.9027 O.2        2 BB2          0.0000
    28 C4        -0.4899   -13.1665    10.5471 C.ar       2 BB2          0.0000
    29 C5         0.2870   -12.6738     9.4958 C.ar       2 BB2          0.0000
    30 C6        -0.1195   -11.5478     8.8104 C.ar       2 BB2          0.0000
    31 C7        -1.2938   -10.9062     9.1618 C.ar       2 BB2          0.0000
    32 C8        -2.0692   -11.3882    10.2031 C.ar       2 BB2          0.0000
    33 Br9       -3.6723   -10.5028    10.6742 Br         2 BB2          0.0000
    34 C10       -1.6778   -12.5173    10.8933 C.ar       2 BB2          0.0000
    35 H11        1.2041   -13.1732     9.2205 H          2 BB2          0.0000
    36 H12        0.4805   -11.1659     7.9978 H          2 BB2          0.0000
    37 H13       -1.6071   -10.0250     8.6216 H          2 BB2          0.0000
    38 H14       -2.2830   -12.8926    11.7053 H          2 BB2          0.0000
@<TRIPOS>BOND
     1      1      2 1
     2      1     12 1
     3      1     13 1
     4      1     14 1
     5      2      3 1
     6      3      4 2
     7      3      5 1
     8      5      6 1
     9      5      9 1
    10      5     15 1
    11      6      7 1
    12      7      8 1
    13      7     16 1
    14      7     17 1
    15      8      9 1
    16      8     18 1
    17      8     19 1
    18      9     10 1
    19      9     11 1
    20     10     20 1
    21     10     21 1
    22     10     22 1
    23     11     23 1
    24     11     24 1
    25     11     25 1
    26     26     27 2
    27     26     28 1
    28     28     29 ar
    29     28     34 ar
    30     29     30 ar
    31     29     35 1
    32     30     31 ar
    33     30     36 1
    34     31     32 ar
    35     31     37 1
    36     32     33 1
    37     32     34 ar
    38     34     38 1
    39      6     26 am
@<TRIPOS>SUBSTRUCTURE
     1 BB1           6
     2 BB2          26
@<TRIPOS>MOLECULE
EN300-703997_i001_EN300-222254_i002_17_4_1
  48   50   2   0   0
SMALL
USER_CHARGES
@<TRIPOS>ATOM
     1 C1        -0.3216   -20.9360    12.5224 C.3        1 BB1          0.0000
     2 O2        -0.4829   -19.5121    12.7567 O.3        1 BB1          0.0000
     3 C3        -0.0972   -18.6850    11.7724 C.2        1 BB1          0.0000
     4 O4         0.3964   -19.1337    10.7649 O.2        1 BB1          0.0000
     5 C5        -0.2799   -17.1968    11.9237 C.3        1 BB1          0.0000
     6 N6         0.0819   -16.5140    10.6627 N.am       1 BB1          0.0000
     7 C7         0.7078   -15.2280    11.0637 C.3        1 BB1          0.0000
     8 C8         1.5546   -15.6168    12.3016 C.3        1 BB1          0.0000
     9 C9         0.6650   -16.6606    13.0150 C.3        1 BB1          0.0000
    10 C10       -0.1392   -15.9965    14.1345 C.3        1 BB1          0.0000
    11 C11        1.5242   -17.7946    13.5777 C.3        1 BB1          0.0000
    12 H12       -0.9040   -21.2287    11.6488 H          1 BB1          0.0000
    13 H13        0.7312   -21.1587    12.3483 H          1 BB1          0.0000
    14 H14       -0.6707   -21.4895    13.3940 H          1 BB1          0.0000
    15 H15       -1.3151   -16.9745    12.1827 H          1 BB1          0.0000
    16 H16        1.3450   -14.8452    10.2665 H          1 BB1          0.0000
    17 H17       -0.0542   -14.4967    11.3331 H          1 BB1          0.0000
    18 H18        2.5020   -16.0613    11.9967 H          1 BB1          0.0000
    19 H19        1.7220   -14.7507    12.9419 H          1 BB1          0.0000
    20 H20       -0.7545   -15.1999    13.7164 H          1 BB1          0.0000
    21 H21       -0.7801   -16.7385    14.6109 H          1 BB1          0.0000
    22 H22        0.5439   -15.5781    14.8737 H          1 BB1          0.0000
    23 H23        2.2218   -17.3920    14.3121 H          1 BB1          0.0000
    24 H24        0.8817   -18.5348    14.0547 H          1 BB1          0.0000
    25 H25        2.0810   -18.2651    12.7674 H          1 BB1          0.0000
    26 C2         0.8004   -14.8911    10.7774 C.2        2 BB2          0.0000
    27 O3         0.0117   -15.5813    11.4007 O.2        2 BB2          0.0000
    28 C4         0.3644   -14.2102     9.5059 C.3        2 BB2          0.0000
    29 C5         1.4242   -14.2481     8.3921 C.3        2 BB2          0.0000
    30 C6         1.0198   -12.8008     8.0660 C.3        2 BB2          0.0000
    31 C7         0.5555   -12.6843     9.5274 C.3        2 BB2          0.0000
    32 C8        -0.7309   -11.9171     9.6928 C.ar       2 BB2          0.0000
    33 C9        -1.9103   -12.4281     9.1855 C.ar       2 BB2          0.0000
    34 C10       -3.0908   -11.7247     9.3363 C.ar       2 BB2          0.0000
    35 C11       -3.0929   -10.5086     9.9959 C.ar       2 BB2          0.0000
    36 Cl12      -4.5761    -9.6265    10.1853 Cl         2 BB2          0.0000
    37 C13       -1.9132    -9.9958    10.5049 C.ar       2 BB2          0.0000
    38 C14       -0.7321   -10.7026    10.3583 C.ar       2 BB2          0.0000
    39 F15        0.4206   -10.2031    10.8554 F          2 BB2          0.0000
    40 H16       -0.6264   -14.5228     9.1765 H          2 BB2          0.0000
    41 H17        2.4446   -14.3433     8.7634 H          2 BB2          0.0000
    42 H18        1.1950   -14.9556     7.5952 H          2 BB2          0.0000
    43 H19        1.8642   -12.1556     7.8234 H          2 BB2          0.0000
    44 H20        0.2078   -12.7268     7.3427 H          2 BB2          0.0000
    45 H21        1.3384   -12.3520    10.2091 H          2 BB2          0.0000
    46 H22       -1.9097   -13.3774     8.6703 H          2 BB2          0.0000
    47 H23       -4.0119   -12.1247     8.9388 H          2 BB2          0.0000
    48 H24       -1.9145    -9.0466    11.0198 H          2 BB2          0.0000
@<TRIPOS>BOND
     1      1      2 1
     2      1     12 1
     3      1     13 1
     4      1     14 1
     5      2      3 1
     6      3      4 2
     7      3      5 1
     8      5      6 1
     9      5      9 1
    10      5     15 1
    11      6      7 1
    12      7      8 1
    13      7     16 1
    14      7     17 1
    15      8      9 1
    16      8     18 1
    17      8     19 1
    18      9     10 1
    19      9     11 1
    20     10     20 1
    21     10     21 1
    22     10     22 1
    23     11     23 1
    24     11     24 1
    25     11     25 1
    26     26     27 2
    27     26     28 1
    28     28     29 1
    29     28     31 1
    30     28     40 1
    31     29     30 1
    32     29     41 1
    33     29     42 1
    34     30     31 1
    35     30     43 1
    36     30     44 1
    37     31     32 1
    38     31     45 1
    39     32     33 ar
    40     32     38 ar
    41     33     34 ar
    42     33     46 1
    43     34     35 ar
    44     34     47 1
    45     35     36 1
    46     35     37 ar
    47     37     38 ar
    48     37     48 1
    49     38     39 1
    50      6     26 am
@<TRIPOS>SUBSTRUCTURE
     1 BB1           6
     2 BB2          26
@<TRIPOS>MOLECULE
EN300-703997_i001_EN300-222254_i002_17_7_1
  48   50   2   0   0
SMALL
USER_CHARGES
@<TRIPOS>ATOM
     1 C1        -0.3216   -20.9360    12.5224 C.3        1 BB1          0.0000
     2 O2        -0.4829   -19.5121    12.7567 O.3        1 BB1          0.0000
     3 C3        -0.0972   -18.6850    11.7724 C.2        1 BB1          0.0000
     4 O4         0.3964   -19.1337    10.7649 O.2        1 BB1          0.0000
     5 C5        -0.2799   -17.1968    11.9237 C.3        1 BB1          0.0000
     6 N6         0.0819   -16.5140    10.6627 N.am       1 BB1          0.0000
     7 C7         0.7078   -15.2280    11.0637 C.3        1 BB1          0.0000
     8 C8         1.5546   -15.6168    12.3016 C.3        1 BB1          0.0000
     9 C9         0.6650   -16.6606    13.0150 C.3        1 BB1          0.0000
    10 C10       -0.1392   -15.9965    14.1345 C.3        1 BB1          0.0000
    11 C11        1.5242   -17.7946    13.5777 C.3        1 BB1          0.0000
    12 H12       -0.9040   -21.2287    11.6488 H          1 BB1          0.0000
    13 H13        0.7312   -21.1587    12.3483 H          1 BB1          0.0000
    14 H14       -0.6707   -21.4895    13.3940 H          1 BB1          0.0000
    15 H15       -1.3151   -16.9745    12.1827 H          1 BB1          0.0000
    16 H16        1.3450   -14.8452    10.2665 H          1 BB1          0.0000
    17 H17       -0.0542   -14.4967    11.3331 H          1 BB1          0.0000
    18 H18        2.5020   -16.0613    11.9967 H          1 BB1          0.0000
    19 H19        1.7220   -14.7507    12.9419 H          1 BB1          0.0000
    20 H20       -0.7545   -15.1999    13.7164 H          1 BB1          0.0000
    21 H21       -0.7801   -16.7385    14.6109 H          1 BB1          0.0000
    22 H22        0.5439   -15.5781    14.8737 H          1 BB1          0.0000
    23 H23        2.2218   -17.3920    14.3121 H          1 BB1          0.0000
    24 H24        0.8817   -18.5348    14.0547 H          1 BB1          0.0000
    25 H25        2.0810   -18.2651    12.7674 H          1 BB1          0.0000
    26 O1         1.0761   -15.2604    11.4874 O.2        2 BB2          0.0000
    27 C2         0.0691   -14.5794    11.3943 C.2        2 BB2          0.0000
    28 C4        -0.3286   -14.0010    10.0609 C.3        2 BB2          0.0000
    29 C5         0.7881   -14.0614     9.0053 C.3        2 BB2          0.0000
    30 C6         0.3404   -12.6575     8.5654 C.3        2 BB2          0.0000
    31 C7        -0.2035   -12.4698     9.9915 C.3        2 BB2          0.0000
    32 C8        -1.5280   -11.7529    10.0428 C.ar       2 BB2          0.0000
    33 C9        -2.6243   -12.2791     9.3866 C.ar       2 BB2          0.0000
    34 C10       -3.8397   -11.6218     9.4328 C.ar       2 BB2          0.0000
    35 C11       -3.9599   -10.4369    10.1366 C.ar       2 BB2          0.0000
    36 Cl12      -5.4867    -9.6127    10.1944 Cl         2 BB2          0.0000
    37 C13       -2.8635    -9.9090    10.7946 C.ar       2 BB2          0.0000
    38 C14       -1.6479   -10.5698    10.7526 C.ar       2 BB2          0.0000
    39 F15       -0.5765   -10.0555    11.3951 F          2 BB2          0.0000
    40 H16       -1.2870   -14.3786     9.7046 H          2 BB2          0.0000
    41 H17        1.7910   -14.0862     9.4316 H          2 BB2          0.0000
    42 H18        0.6306   -14.8277     8.2463 H          2 BB2          0.0000
    43 H19        1.1683   -11.9913     8.3226 H          2 BB2          0.0000
    44 H20       -0.4354   -12.6666     7.7998 H          2 BB2          0.0000
    45 H21        0.5283   -12.0595    10.6874 H          2 BB2          0.0000
    46 H22       -2.5316   -13.2041     8.8369 H          2 BB2          0.0000
    47 H23       -4.6958   -12.0336     8.9190 H          2 BB2          0.0000
    48 H24       -2.9569    -8.9840    11.3440 H          2 BB2          0.0000
@<TRIPOS>BOND
     1      1      2 1
     2      1     12 1
     3      1     13 1
     4      1     14 1
     5      2      3 1
     6      3      4 2
     7      3      5 1
     8      5      6 1
     9      5      9 1
    10      5     15 1
    11      6      7 1
    12      7      8 1
    13      7     16 1
    14      7     17 1
    15      8      9 1
    16      8     18 1
    17      8     19 1
    18      9     10 1
    19      9     11 1
    20     10     20 1
    21     10     21 1
    22     10     22 1
    23     11     23 1
    24     11     24 1
    25     11     25 1
    26     26     27 2
    27     27     28 1
    28     28     29 1
    29     28     31 1
    30     28     40 1
    31     29     30 1
    32     29     41 1
    33     29     42 1
    34     30     31 1
    35     30     43 1
    36     30     44 1
    37     31     32 1
    38     31     45 1
    39     32     33 ar
    40     32     38 ar
    41     33     34 ar
    42     33     46 1
    43     34     35 ar
    44     34     47 1
    45     35     36 1
    46     35     37 ar
    47     37     38 ar
    48     37     48 1
    49     38     39 1
    50      6     27 am
@<TRIPOS>SUBSTRUCTURE
     1 BB1           6
     2 BB2          27
@<TRIPOS>MOLECULE
EN300-703997_i001_EN300-306118_i001_17_10_1
  47   49   2   0   0
SMALL
USER_CHARGES
@<TRIPOS>ATOM
     1 C1        -0.3216   -20.9360    12.5224 C.3        1 BB1          0.0000
     2 O2        -0.4829   -19.5121    12.7567 O.3        1 BB1          0.0000
     3 C3        -0.0972   -18.6850    11.7724 C.2        1 BB1          0.0000
     4 O4         0.3964   -19.1337    10.7649 O.2        1 BB1          0.0000
     5 C5        -0.2799   -17.1968    11.9237 C.3        1 BB1          0.0000
     6 N6         0.0819   -16.5140    10.6627 N.am       1 BB1          0.0000
     7 C7         0.7078   -15.2280    11.0637 C.3        1 BB1          0.0000
     8 C8         1.5546   -15.6168    12.3016 C.3        1 BB1          0.0000
     9 C9         0.6650   -16.6606    13.0150 C.3        1 BB1          0.0000
    10 C10       -0.1392   -15.9965    14.1345 C.3        1 BB1          0.0000
    11 C11        1.5242   -17.7946    13.5777 C.3        1 BB1          0.0000
    12 H12       -0.9040   -21.2287    11.6488 H          1 BB1          0.0000
    13 H13        0.7312   -21.1587    12.3483 H          1 BB1          0.0000
    14 H14       -0.6707   -21.4895    13.3940 H          1 BB1          0.0000
    15 H15       -1.3151   -16.9745    12.1827 H          1 BB1          0.0000
    16 H16        1.3450   -14.8452    10.2665 H          1 BB1          0.0000
    17 H17       -0.0542   -14.4967    11.3331 H          1 BB1          0.0000
    18 H18        2.5020   -16.0613    11.9967 H          1 BB1          0.0000
    19 H19        1.7220   -14.7507    12.9419 H          1 BB1          0.0000
    20 H20       -0.7545   -15.1999    13.7164 H          1 BB1          0.0000
    21 H21       -0.7801   -16.7385    14.6109 H          1 BB1          0.0000
    22 H22        0.5439   -15.5781    14.8737 H          1 BB1          0.0000
    23 H23        2.2218   -17.3920    14.3121 H          1 BB1          0.0000
    24 H24        0.8817   -18.5348    14.0547 H          1 BB1          0.0000
    25 H25        2.0810   -18.2651    12.7674 H          1 BB1          0.0000
    26 C2         0.1195   -14.4038    10.7566 C.2        2 BB2          0.0000
    27 O3         0.6856   -15.3919    11.2023 O.2        2 BB2          0.0000
    28 C4         0.4114   -13.9416     9.3863 C.ar       2 BB2          0.0000
    29 C5         0.5717   -14.8674     8.3525 C.ar       2 BB2          0.0000
    30 C6         0.8445   -14.4280     7.0737 C.ar       2 BB2          0.0000
    31 C7         0.9599   -13.0739     6.8139 C.ar       2 BB2          0.0000
    32 C8         0.8024   -12.1509     7.8331 C.ar       2 BB2          0.0000
    33 C9         0.5231   -12.5754     9.1151 C.ar       2 BB2          0.0000
    34 C10        0.3514   -11.5687    10.2234 C.3        2 BB2          0.0000
    35 N11       -1.0436   -11.1231    10.2665 N.pl3      2 BB2          0.0000
    36 C12       -1.4690    -9.8410    10.1885 C.2        2 BB2          0.0000
    37 C13       -2.8194    -9.8863    10.2682 C.2        2 BB2          0.0000
    38 N14       -3.1497   -11.1769    10.3896 N.2        2 BB2          0.0000
    39 N15       -2.0753   -11.8843    10.3797 N.2        2 BB2          0.0000
    40 H16        0.4826   -15.9247     8.5541 H          2 BB2          0.0000
    41 H17        0.9688   -15.1425     6.2735 H          2 BB2          0.0000
    42 H18        1.1744   -12.7356     5.8108 H          2 BB2          0.0000
    43 H19        0.8941   -11.0955     7.6231 H          2 BB2          0.0000
    44 H20        0.6156   -12.0283    11.1758 H          2 BB2          0.0000
    45 H21        1.0008   -10.7127    10.0405 H          2 BB2          0.0000
    46 H22       -0.8546    -8.9590    10.0839 H          2 BB2          0.0000
    47 H23       -3.4970    -9.0458    10.2398 H          2 BB2          0.0000
@<TRIPOS>BOND
     1      1      2 1
     2      1     12 1
     3      1     13 1
     4      1     14 1
     5      2      3 1
     6      3      4 2
     7      3      5 1
     8      5      6 1
     9      5      9 1
    10      5     15 1
    11      6      7 1
    12      7      8 1
    13      7     16 1
    14      7     17 1
    15      8      9 1
    16      8     18 1
    17      8     19 1
    18      9     10 1
    19      9     11 1
    20     10     20 1
    21     10     21 1
    22     10     22 1
    23     11     23 1
    24     11     24 1
    25     11     25 1
    26     26     27 2
    27     26     28 1
    28     28     29 ar
    29     28     33 ar
    30     29     30 ar
    31     29     40 1
    32     30     31 ar
    33     30     41 1
    34     31     32 ar
    35     31     42 1
    36     32     33 ar
    37     32     43 1
    38     33     34 1
    39     34     35 1
    40     34     44 1
    41     34     45 1
    42     35     36 1
    43     35     39 1
    44     36     37 2
    45     36     46 1
    46     37     38 1
    47     37     47 1
    48     38     39 2
    49      6     26 am
@<TRIPOS>SUBSTRUCTURE
     1 BB1           6
     2 BB2          26
@<TRIPOS>MOLECULE
EN300-703997_i001_EN300-306118_i001_17_13_1
  47   49   2   0   0
SMALL
USER_CHARGES
@<TRIPOS>ATOM
     1 C1        -0.3216   -20.9360    12.5224 C.3        1 BB1          0.0000
     2 O2        -0.4829   -19.5121    12.7567 O.3        1 BB1          0.0000
     3 C3        -0.0972   -18.6850    11.7724 C.2        1 BB1          0.0000
     4 O4         0.3964   -19.1337    10.7649 O.2        1 BB1          0.0000
     5 C5        -0.2799   -17.1968    11.9237 C.3        1 BB1          0.0000
     6 N6         0.0819   -16.5140    10.6627 N.am       1 BB1          0.0000
     7 C7         0.7078   -15.2280    11.0637 C.3        1 BB1          0.0000
     8 C8         1.5546   -15.6168    12.3016 C.3        1 BB1          0.0000
     9 C9         0.6650   -16.6606    13.0150 C.3        1 BB1          0.0000
    10 C10       -0.1392   -15.9965    14.1345 C.3        1 BB1          0.0000
    11 C11        1.5242   -17.7946    13.5777 C.3        1 BB1          0.0000
    12 H12       -0.9040   -21.2287    11.6488 H          1 BB1          0.0000
    13 H13        0.7312   -21.1587    12.3483 H          1 BB1          0.0000
    14 H14       -0.6707   -21.4895    13.3940 H          1 BB1          0.0000
    15 H15       -1.3151   -16.9745    12.1827 H          1 BB1          0.0000
    16 H16        1.3450   -14.8452    10.2665 H          1 BB1          0.0000
    17 H17       -0.0542   -14.4967    11.3331 H          1 BB1          0.0000
    18 H18        2.5020   -16.0613    11.9967 H          1 BB1          0.0000
    19 H19        1.7220   -14.7507    12.9419 H          1 BB1          0.0000
    20 H20       -0.7545   -15.1999    13.7164 H          1 BB1          0.0000
    21 H21       -0.7801   -16.7385    14.6109 H          1 BB1          0.0000
    22 H22        0.5439   -15.5781    14.8737 H          1 BB1          0.0000
    23 H23        2.2218   -17.3920    14.3121 H          1 BB1          0.0000
    24 H24        0.8817   -18.5348    14.0547 H          1 BB1          0.0000
    25 H25        2.0810   -18.2651    12.7674 H          1 BB1          0.0000
    26 O1        -0.3061   -15.6175    10.8075 O.2        2 BB2          0.0000
    27 C2        -0.2542   -14.4147    11.0220 C.2        2 BB2          0.0000
    28 C4        -0.0888   -13.4717     9.8995 C.ar       2 BB2          0.0000
    29 C5         0.7755   -13.7793     8.8460 C.ar       2 BB2          0.0000
    30 C6         0.9252   -12.8927     7.7999 C.ar       2 BB2          0.0000
    31 C7         0.2221   -11.7011     7.7926 C.ar       2 BB2          0.0000
    32 C8        -0.6359   -11.3897     8.8329 C.ar       2 BB2          0.0000
    33 C9        -0.8003   -12.2692     9.8823 C.ar       2 BB2          0.0000
    34 C10       -1.7356   -11.9285    11.0138 C.3        2 BB2          0.0000
    35 N11       -2.8881   -11.1914    10.4898 N.pl3      2 BB2          0.0000
    36 C12       -3.9824   -11.7380     9.9113 C.2        2 BB2          0.0000
    37 C13       -4.7891   -10.7036     9.5780 C.2        2 BB2          0.0000
    38 N14       -4.1572    -9.5894     9.9637 N.2        2 BB2          0.0000
    39 N15       -3.0361    -9.9129    10.5053 N.2        2 BB2          0.0000
    40 H16        1.3254   -14.7088     8.8509 H          2 BB2          0.0000
    41 H17        1.5931   -13.1291     6.9848 H          2 BB2          0.0000
    42 H18        0.3438   -11.0104     6.9712 H          2 BB2          0.0000
    43 H19       -1.1813   -10.4576     8.8207 H          2 BB2          0.0000
    44 H20       -2.0780   -12.8466    11.4912 H          2 BB2          0.0000
    45 H21       -1.2121   -11.3124    11.7448 H          2 BB2          0.0000
    46 H22       -4.1735   -12.7883     9.7481 H          2 BB2          0.0000
    47 H23       -5.7532   -10.7654     9.0952 H          2 BB2          0.0000
@<TRIPOS>BOND
     1      1      2 1
     2      1     12 1
     3      1     13 1
     4      1     14 1
     5      2      3 1
     6      3      4 2
     7      3      5 1
     8      5      6 1
     9      5      9 1
    10      5     15 1
    11      6      7 1
    12      7      8 1
    13      7     16 1
    14      7     17 1
    15      8      9 1
    16      8     18 1
    17      8     19 1
    18      9     10 1
    19      9     11 1
    20     10     20 1
    21     10     21 1
    22     10     22 1
    23     11     23 1
    24     11     24 1
    25     11     25 1
    26     26     27 2
    27     27     28 1
    28     28     29 ar
    29     28     33 ar
    30     29     30 ar
    31     29     40 1
    32     30     31 ar
    33     30     41 1
    34     31     32 ar
    35     31     42 1
    36     32     33 ar
    37     32     43 1
    38     33     34 1
    39     34     35 1
    40     34     44 1
    41     34     45 1
    42     35     36 1
    43     35     39 1
    44     36     37 2
    45     36     46 1
    46     37     38 1
    47     37     47 1
    48     38     39 2
    49      6     27 am
@<TRIPOS>SUBSTRUCTURE
     1 BB1           6
     2 BB2          27
@<TRIPOS>MOLECULE
EN300-703997_i001_EN300-306118_i001_17_2_1
  47   49   2   0   0
SMALL
USER_CHARGES
@<TRIPOS>ATOM
     1 C1        -0.3216   -20.9360    12.5224 C.3        1 BB1          0.0000
     2 O2        -0.4829   -19.5121    12.7567 O.3        1 BB1          0.0000
     3 C3        -0.0972   -18.6850    11.7724 C.2        1 BB1          0.0000
     4 O4         0.3964   -19.1337    10.7649 O.2        1 BB1          0.0000
     5 C5        -0.2799   -17.1968    11.9237 C.3        1 BB1          0.0000
     6 N6         0.0819   -16.5140    10.6627 N.am       1 BB1          0.0000
     7 C7         0.7078   -15.2280    11.0637 C.3        1 BB1          0.0000
     8 C8         1.5546   -15.6168    12.3016 C.3        1 BB1          0.0000
     9 C9         0.6650   -16.6606    13.0150 C.3        1 BB1          0.0000
    10 C10       -0.1392   -15.9965    14.1345 C.3        1 BB1          0.0000
    11 C11        1.5242   -17.7946    13.5777 C.3        1 BB1          0.0000
    12 H12       -0.9040   -21.2287    11.6488 H          1 BB1          0.0000
    13 H13        0.7312   -21.1587    12.3483 H          1 BB1          0.0000
    14 H14       -0.6707   -21.4895    13.3940 H          1 BB1          0.0000
    15 H15       -1.3151   -16.9745    12.1827 H          1 BB1          0.0000
    16 H16        1.3450   -14.8452    10.2665 H          1 BB1          0.0000
    17 H17       -0.0542   -14.4967    11.3331 H          1 BB1          0.0000
    18 H18        2.5020   -16.0613    11.9967 H          1 BB1          0.0000
    19 H19        1.7220   -14.7507    12.9419 H          1 BB1          0.0000
    20 H20       -0.7545   -15.1999    13.7164 H          1 BB1          0.0000
    21 H21       -0.7801   -16.7385    14.6109 H          1 BB1          0.0000
    22 H22        0.5439   -15.5781    14.8737 H          1 BB1          0.0000
    23 H23        2.2218   -17.3920    14.3121 H          1 BB1          0.0000
    24 H24        0.8817   -18.5348    14.0547 H          1 BB1          0.0000
    25 H25        2.0810   -18.2651    12.7674 H          1 BB1          0.0000
    26 O1        -0.3996   -15.0968    11.7939 O.2        2 BB2          0.0000
    27 C2         0.6326   -14.8679    11.1794 C.2        2 BB2          0.0000
    28 C4         0.5817   -14.1401     9.8971 C.ar       2 BB2          0.0000
    29 C5         1.3893   -14.5408     8.8300 C.ar       2 BB2          0.0000
    30 C6         1.3364   -13.8555     7.6340 C.ar       2 BB2          0.0000
    31 C7         0.4864   -12.7733     7.4900 C.ar       2 BB2          0.0000
    32 C8        -0.3166   -12.3706     8.5429 C.ar       2 BB2          0.0000
    33 C9        -0.2789   -13.0501     9.7423 C.ar       2 BB2          0.0000
    34 C10       -1.1546   -12.6104    10.8873 C.3        2 BB2          0.0000
    35 N11       -2.0673   -11.5601    10.4288 N.pl3      2 BB2          0.0000
    36 C12       -1.7295   -10.2775    10.1613 C.2        2 BB2          0.0000
    37 C13       -2.8693    -9.6610     9.7705 C.2        2 BB2          0.0000
    38 N14       -3.8360   -10.5845     9.8175 N.2        2 BB2          0.0000
    39 N15       -3.3272   -11.7003    10.2060 N.2        2 BB2          0.0000
    40 H16        2.0538   -15.3849     8.9414 H          2 BB2          0.0000
    41 H17        1.9603   -14.1641     6.8083 H          2 BB2          0.0000
    42 H18        0.4497   -12.2400     6.5515 H          2 BB2          0.0000
    43 H19       -0.9775   -11.5248     8.4234 H          2 BB2          0.0000
    44 H20       -1.7320   -13.4605    11.2504 H          2 BB2          0.0000
    45 H21       -0.5313   -12.2235    11.6935 H          2 BB2          0.0000
    46 H22       -0.7479    -9.8347    10.2433 H          2 BB2          0.0000
    47 H23       -2.9773    -8.6269     9.4786 H          2 BB2          0.0000
@<TRIPOS>BOND
     1      1      2 1
     2      1     12 1
     3      1     13 1
     4      1     14 1
     5      2      3 1
     6      3      4 2
     7      3      5 1
     8      5      6 1
     9      5      9 1
    10      5     15 1
    11      6      7 1
    12      7      8 1
    13      7     16 1
    14      7     17 1
    15      8      9 1
    16      8     18 1
    17      8     19 1
    18      9     10 1
    19      9     11 1
    20     10     20 1
    21     10     21 1
    22     10     22 1
    23     11     23 1
    24     11     24 1
    25     11     25 1
    26     26     27 2
    27     27     28 1
    28     28     29 ar
    29     28     33 ar
    30     29     30 ar
    31     29     40 1
    32     30     31 ar
    33     30     41 1
    34     31     32 ar
    35     31     42 1
    36     32     33 ar
    37     32     43 1
    38     33     34 1
    39     34     35 1
    40     34     44 1
    41     34     45 1
    42     35     36 1
    43     35     39 1
    44     36     37 2
    45     36     46 1
    46     37     38 1
    47     37     47 1
    48     38     39 2
    49      6     27 am
@<TRIPOS>SUBSTRUCTURE
     1 BB1           6
     2 BB2          27
@<TRIPOS>MOLECULE
EN300-703997_i001_EN300-306118_i001_17_4_1
  47   49   2   0   0
SMALL
USER_CHARGES
@<TRIPOS>ATOM
     1 C1        -0.3216   -20.9360    12.5224 C.3        1 BB1          0.0000
     2 O2        -0.4829   -19.5121    12.7567 O.3        1 BB1          0.0000
     3 C3        -0.0972   -18.6850    11.7724 C.2        1 BB1          0.0000
     4 O4         0.3964   -19.1337    10.7649 O.2        1 BB1          0.0000
     5 C5        -0.2799   -17.1968    11.9237 C.3        1 BB1          0.0000
     6 N6         0.0819   -16.5140    10.6627 N.am       1 BB1          0.0000
     7 C7         0.7078   -15.2280    11.0637 C.3        1 BB1          0.0000
     8 C8         1.5546   -15.6168    12.3016 C.3        1 BB1          0.0000
     9 C9         0.6650   -16.6606    13.0150 C.3        1 BB1          0.0000
    10 C10       -0.1392   -15.9965    14.1345 C.3        1 BB1          0.0000
    11 C11        1.5242   -17.7946    13.5777 C.3        1 BB1          0.0000
    12 H12       -0.9040   -21.2287    11.6488 H          1 BB1          0.0000
    13 H13        0.7312   -21.1587    12.3483 H          1 BB1          0.0000
    14 H14       -0.6707   -21.4895    13.3940 H          1 BB1          0.0000
    15 H15       -1.3151   -16.9745    12.1827 H          1 BB1          0.0000
    16 H16        1.3450   -14.8452    10.2665 H          1 BB1          0.0000
    17 H17       -0.0542   -14.4967    11.3331 H          1 BB1          0.0000
    18 H18        2.5020   -16.0613    11.9967 H          1 BB1          0.0000
    19 H19        1.7220   -14.7507    12.9419 H          1 BB1          0.0000
    20 H20       -0.7545   -15.1999    13.7164 H          1 BB1          0.0000
    21 H21       -0.7801   -16.7385    14.6109 H          1 BB1          0.0000
    22 H22        0.5439   -15.5781    14.8737 H          1 BB1          0.0000
    23 H23        2.2218   -17.3920    14.3121 H          1 BB1          0.0000
    24 H24        0.8817   -18.5348    14.0547 H          1 BB1          0.0000
    25 H25        2.0810   -18.2651    12.7674 H          1 BB1          0.0000
    26 C2         0.0232   -14.5029    10.8440 C.2        2 BB2          0.0000
    27 O3         0.5964   -15.4713    11.3227 O.2        2 BB2          0.0000
    28 C4         0.1943   -14.1761     9.4156 C.ar       2 BB2          0.0000
    29 C5         0.2000   -15.1937     8.4585 C.ar       2 BB2          0.0000
    30 C6         0.3606   -14.8807     7.1247 C.ar       2 BB2          0.0000
    31 C7         0.5162   -13.5625     6.7340 C.ar       2 BB2          0.0000
    32 C8         0.5116   -12.5491     7.6766 C.ar       2 BB2          0.0000
    33 C9         0.3458   -12.8466     9.0128 C.ar       2 BB2          0.0000
    34 C10        0.3405   -11.7416    10.0376 C.3        2 BB2          0.0000
    35 N11       -0.8775   -10.9417     9.8869 N.pl3      2 BB2          0.0000
    36 C12       -1.9601   -10.9853    10.6975 C.2        2 BB2          0.0000
    37 C13       -2.8435   -10.0913    10.1954 C.2        2 BB2          0.0000
    38 N14       -2.2659    -9.5516     9.1162 N.2        2 BB2          0.0000
    39 N15       -1.0997   -10.0726     8.9638 N.2        2 BB2          0.0000
    40 H16        0.0794   -16.2231     8.7623 H          2 BB2          0.0000
    41 H17        0.3653   -15.6663     6.3837 H          2 BB2          0.0000
    42 H18        0.6423   -13.3234     5.6883 H          2 BB2          0.0000
    43 H19        0.6339   -11.5225     7.3644 H          2 BB2          0.0000
    44 H20        0.3700   -12.1736    11.0379 H          2 BB2          0.0000
    45 H21        1.2134   -11.1056     9.8906 H          2 BB2          0.0000
    46 H22       -2.0926   -11.6083    11.5697 H          2 BB2          0.0000
    47 H23       -3.8224    -9.8595    10.5883 H          2 BB2          0.0000
@<TRIPOS>BOND
     1      1      2 1
     2      1     12 1
     3      1     13 1
     4      1     14 1
     5      2      3 1
     6      3      4 2
     7      3      5 1
     8      5      6 1
     9      5      9 1
    10      5     15 1
    11      6      7 1
    12      7      8 1
    13      7     16 1
    14      7     17 1
    15      8      9 1
    16      8     18 1
    17      8     19 1
    18      9     10 1
    19      9     11 1
    20     10     20 1
    21     10     21 1
    22     10     22 1
    23     11     23 1
    24     11     24 1
    25     11     25 1
    26     26     27 2
    27     26     28 1
    28     28     29 ar
    29     28     33 ar
    30     29     30 ar
    31     29     40 1
    32     30     31 ar
    33     30     41 1
    34     31     32 ar
    35     31     42 1
    36     32     33 ar
    37     32     43 1
    38     33     34 1
    39     34     35 1
    40     34     44 1
    41     34     45 1
    42     35     36 1
    43     35     39 1
    44     36     37 2
    45     36     46 1
    46     37     38 1
    47     37     47 1
    48     38     39 2
    49      6     26 am
@<TRIPOS>SUBSTRUCTURE
     1 BB1           6
     2 BB2          26
@<TRIPOS>MOLECULE
EN300-703997_i001_EN300-306118_i001_17_6_1
  47   49   2   0   0
SMALL
USER_CHARGES
@<TRIPOS>ATOM
     1 C1        -0.3216   -20.9360    12.5224 C.3        1 BB1          0.0000
     2 O2        -0.4829   -19.5121    12.7567 O.3        1 BB1          0.0000
     3 C3        -0.0972   -18.6850    11.7724 C.2        1 BB1          0.0000
     4 O4         0.3964   -19.1337    10.7649 O.2        1 BB1          0.0000
     5 C5        -0.2799   -17.1968    11.9237 C.3        1 BB1          0.0000
     6 N6         0.0819   -16.5140    10.6627 N.am       1 BB1          0.0000
     7 C7         0.7078   -15.2280    11.0637 C.3        1 BB1          0.0000
     8 C8         1.5546   -15.6168    12.3016 C.3        1 BB1          0.0000
     9 C9         0.6650   -16.6606    13.0150 C.3        1 BB1          0.0000
    10 C10       -0.1392   -15.9965    14.1345 C.3        1 BB1          0.0000
    11 C11        1.5242   -17.7946    13.5777 C.3        1 BB1          0.0000
    12 H12       -0.9040   -21.2287    11.6488 H          1 BB1          0.0000
    13 H13        0.7312   -21.1587    12.3483 H          1 BB1          0.0000
    14 H14       -0.6707   -21.4895    13.3940 H          1 BB1          0.0000
    15 H15       -1.3151   -16.9745    12.1827 H          1 BB1          0.0000
    16 H16        1.3450   -14.8452    10.2665 H          1 BB1          0.0000
    17 H17       -0.0542   -14.4967    11.3331 H          1 BB1          0.0000
    18 H18        2.5020   -16.0613    11.9967 H          1 BB1          0.0000
    19 H19        1.7220   -14.7507    12.9419 H          1 BB1          0.0000
    20 H20       -0.7545   -15.1999    13.7164 H          1 BB1          0.0000
    21 H21       -0.7801   -16.7385    14.6109 H          1 BB1          0.0000
    22 H22        0.5439   -15.5781    14.8737 H          1 BB1          0.0000
    23 H23        2.2218   -17.3920    14.3121 H          1 BB1          0.0000
    24 H24        0.8817   -18.5348    14.0547 H          1 BB1          0.0000
    25 H25        2.0810   -18.2651    12.7674 H          1 BB1          0.0000
    26 C2        -0.3996   -13.7304    10.8133 C.2        2 BB2          0.0000
    27 O3         0.0088   -14.6778    11.4700 O.2        2 BB2          0.0000
    28 C4         0.1276   -13.4914     9.4563 C.ar       2 BB2          0.0000
    29 C5         0.3583   -14.5656     8.5936 C.ar       2 BB2          0.0000
    30 C6         0.8514   -14.3346     7.3262 C.ar       2 BB2          0.0000
    31 C7         1.1179   -13.0426     6.9090 C.ar       2 BB2          0.0000
    32 C8         0.8918   -11.9734     7.7582 C.ar       2 BB2          0.0000
    33 C9         0.3932   -12.1888     9.0257 C.ar       2 BB2          0.0000
    34 C10        0.1472   -11.0231     9.9488 C.3        2 BB2          0.0000
    35 N11       -1.2932   -10.7753    10.0492 N.pl3      2 BB2          0.0000
    36 C12       -2.2529   -11.3618     9.2971 C.2        2 BB2          0.0000
    37 C13       -3.4309   -10.8465     9.7198 C.2        2 BB2          0.0000
    38 N14       -3.1380    -9.9810    10.6969 N.2        2 BB2          0.0000
    39 N15       -1.8637    -9.9660    10.8717 N.2        2 BB2          0.0000
    40 H16        0.1514   -15.5747     8.9183 H          2 BB2          0.0000
    41 H17        1.0303   -15.1641     6.6582 H          2 BB2          0.0000
    42 H18        1.5046   -12.8676     5.9157 H          2 BB2          0.0000
    43 H19        1.1024   -10.9676     7.4259 H          2 BB2          0.0000
    44 H20        0.5463   -11.2516    10.9369 H          2 BB2          0.0000
    45 H21        0.6418   -10.1360     9.5534 H          2 BB2          0.0000
    46 H22       -2.1081   -12.0939     8.5164 H          2 BB2          0.0000
    47 H23       -4.4139   -11.0863     9.3423 H          2 BB2          0.0000
@<TRIPOS>BOND
     1      1      2 1
     2      1     12 1
     3      1     13 1
     4      1     14 1
     5      2      3 1
     6      3      4 2
     7      3      5 1
     8      5      6 1
     9      5      9 1
    10      5     15 1
    11      6      7 1
    12      7      8 1
    13      7     16 1
    14      7     17 1
    15      8      9 1
    16      8     18 1
    17      8     19 1
    18      9     10 1
    19      9     11 1
    20     10     20 1
    21     10     21 1
    22     10     22 1
    23     11     23 1
    24     11     24 1
    25     11     25 1
    26     26     27 2
    27     26     28 1
    28     28     29 ar
    29     28     33 ar
    30     29     30 ar
    31     29     40 1
    32     30     31 ar
    33     30     41 1
    34     31     32 ar
    35     31     42 1
    36     32     33 ar
    37     32     43 1
    38     33     34 1
    39     34     35 1
    40     34     44 1
    41     34     45 1
    42     35     36 1
    43     35     39 1
    44     36     37 2
    45     36     46 1
    46     37     38 1
    47     37     47 1
    48     38     39 2
    49      6     26 am
@<TRIPOS>SUBSTRUCTURE
     1 BB1           6
     2 BB2          26
@<TRIPOS>MOLECULE
EN300-703997_i001_EN300-306118_i001_17_7_1
  47   49   2   0   0
SMALL
USER_CHARGES
@<TRIPOS>ATOM
     1 C1        -0.3216   -20.9360    12.5224 C.3        1 BB1          0.0000
     2 O2        -0.4829   -19.5121    12.7567 O.3        1 BB1          0.0000
     3 C3        -0.0972   -18.6850    11.7724 C.2        1 BB1          0.0000
     4 O4         0.3964   -19.1337    10.7649 O.2        1 BB1          0.0000
     5 C5        -0.2799   -17.1968    11.9237 C.3        1 BB1          0.0000
     6 N6         0.0819   -16.5140    10.6627 N.am       1 BB1          0.0000
     7 C7         0.7078   -15.2280    11.0637 C.3        1 BB1          0.0000
     8 C8         1.5546   -15.6168    12.3016 C.3        1 BB1          0.0000
     9 C9         0.6650   -16.6606    13.0150 C.3        1 BB1          0.0000
    10 C10       -0.1392   -15.9965    14.1345 C.3        1 BB1          0.0000
    11 C11        1.5242   -17.7946    13.5777 C.3        1 BB1          0.0000
    12 H12       -0.9040   -21.2287    11.6488 H          1 BB1          0.0000
    13 H13        0.7312   -21.1587    12.3483 H          1 BB1          0.0000
    14 H14       -0.6707   -21.4895    13.3940 H          1 BB1          0.0000
    15 H15       -1.3151   -16.9745    12.1827 H          1 BB1          0.0000
    16 H16        1.3450   -14.8452    10.2665 H          1 BB1          0.0000
    17 H17       -0.0542   -14.4967    11.3331 H          1 BB1          0.0000
    18 H18        2.5020   -16.0613    11.9967 H          1 BB1          0.0000
    19 H19        1.7220   -14.7507    12.9419 H          1 BB1          0.0000
    20 H20       -0.7545   -15.1999    13.7164 H          1 BB1          0.0000
    21 H21       -0.7801   -16.7385    14.6109 H          1 BB1          0.0000
    22 H22        0.5439   -15.5781    14.8737 H          1 BB1          0.0000
    23 H23        2.2218   -17.3920    14.3121 H          1 BB1          0.0000
    24 H24        0.8817   -18.5348    14.0547 H          1 BB1          0.0000
    25 H25        2.0810   -18.2651    12.7674 H          1 BB1          0.0000
    26 C2         0.3107   -14.7692    11.2595 C.2        2 BB2          0.0000
    27 O3         1.3333   -15.2930    11.6783 O.2        2 BB2          0.0000
    28 C4         0.2910   -14.1590     9.9165 C.ar       2 BB2          0.0000
    29 C5         0.9400   -14.7869     8.8506 C.ar       2 BB2          0.0000
    30 C6         0.9175   -14.2104     7.5976 C.ar       2 BB2          0.0000
    31 C7         0.2545   -13.0130     7.3953 C.ar       2 BB2          0.0000
    32 C8        -0.3907   -12.3851     8.4465 C.ar       2 BB2          0.0000
    33 C9        -0.3818   -12.9530     9.7032 C.ar       2 BB2          0.0000
    34 C10       -1.0854   -12.2680    10.8464 C.3        2 BB2          0.0000
    35 N11       -1.9001   -11.1660    10.3286 N.pl3      2 BB2          0.0000
    36 C12       -3.2480   -11.0736    10.4030 C.2        2 BB2          0.0000
    37 C13       -3.5794    -9.9055     9.8051 C.2        2 BB2          0.0000
    38 N14       -2.4331    -9.3478     9.3992 N.2        2 BB2          0.0000
    39 N15       -1.4563   -10.1169     9.7294 N.2        2 BB2          0.0000
    40 H16        1.4585   -15.7213     9.0074 H          2 BB2          0.0000
    41 H17        1.4188   -14.6947     6.7727 H          2 BB2          0.0000
    42 H18        0.2408   -12.5658     6.4122 H          2 BB2          0.0000
    43 H19       -0.9059   -11.4505     8.2813 H          2 BB2          0.0000
    44 H20       -1.7270   -12.9843    11.3596 H          2 BB2          0.0000
    45 H21       -0.3465   -11.8763    11.5454 H          2 BB2          0.0000
    46 H22       -3.9235   -11.7882    10.8496 H          2 BB2          0.0000
    47 H23       -4.5737    -9.5029     9.6797 H          2 BB2          0.0000
@<TRIPOS>BOND
     1      1      2 1
     2      1     12 1
     3      1     13 1
     4      1     14 1
     5      2      3 1
     6      3      4 2
     7      3      5 1
     8      5      6 1
     9      5      9 1
    10      5     15 1
    11      6      7 1
    12      7      8 1
    13      7     16 1
    14      7     17 1
    15      8      9 1
    16      8     18 1
    17      8     19 1
    18      9     10 1
    19      9     11 1
    20     10     20 1
    21     10     21 1
    22     10     22 1
    23     11     23 1
    24     11     24 1
    25     11     25 1
    26     26     27 2
    27     26     28 1
    28     28     29 ar
    29     28     33 ar
    30     29     30 ar
    31     29     40 1
    32     30     31 ar
    33     30     41 1
    34     31     32 ar
    35     31     42 1
    36     32     33 ar
    37     32     43 1
    38     33     34 1
    39     34     35 1
    40     34     44 1
    41     34     45 1
    42     35     36 1
    43     35     39 1
    44     36     37 2
    45     36     46 1
    46     37     38 1
    47     37     47 1
    48     38     39 2
    49      6     26 am
@<TRIPOS>SUBSTRUCTURE
     1 BB1           6
     2 BB2          26
@<TRIPOS>MOLECULE
EN300-703997_i001_EN300-344045_i001_17_2_1
  54   56   2   0   0
SMALL
USER_CHARGES
@<TRIPOS>ATOM
     1 C1        -0.3216   -20.9360    12.5224 C.3        1 BB1          0.0000
     2 O2        -0.4829   -19.5121    12.7567 O.3        1 BB1          0.0000
     3 C3        -0.0972   -18.6850    11.7724 C.2        1 BB1          0.0000
     4 O4         0.3964   -19.1337    10.7649 O.2        1 BB1          0.0000
     5 C5        -0.2799   -17.1968    11.9237 C.3        1 BB1          0.0000
     6 N6         0.0819   -16.5140    10.6627 N.am       1 BB1          0.0000
     7 C7         0.7078   -15.2280    11.0637 C.3        1 BB1          0.0000
     8 C8         1.5546   -15.6168    12.3016 C.3        1 BB1          0.0000
     9 C9         0.6650   -16.6606    13.0150 C.3        1 BB1          0.0000
    10 C10       -0.1392   -15.9965    14.1345 C.3        1 BB1          0.0000
    11 C11        1.5242   -17.7946    13.5777 C.3        1 BB1          0.0000
    12 H12       -0.9040   -21.2287    11.6488 H          1 BB1          0.0000
    13 H13        0.7312   -21.1587    12.3483 H          1 BB1          0.0000
    14 H14       -0.6707   -21.4895    13.3940 H          1 BB1          0.0000
    15 H15       -1.3151   -16.9745    12.1827 H          1 BB1          0.0000
    16 H16        1.3450   -14.8452    10.2665 H          1 BB1          0.0000
    17 H17       -0.0542   -14.4967    11.3331 H          1 BB1          0.0000
    18 H18        2.5020   -16.0613    11.9967 H          1 BB1          0.0000
    19 H19        1.7220   -14.7507    12.9419 H          1 BB1          0.0000
    20 H20       -0.7545   -15.1999    13.7164 H          1 BB1          0.0000
    21 H21       -0.7801   -16.7385    14.6109 H          1 BB1          0.0000
    22 H22        0.5439   -15.5781    14.8737 H          1 BB1          0.0000
    23 H23        2.2218   -17.3920    14.3121 H          1 BB1          0.0000
    24 H24        0.8817   -18.5348    14.0547 H          1 BB1          0.0000
    25 H25        2.0810   -18.2651    12.7674 H          1 BB1          0.0000
    26 O1         0.5661   -15.7707    10.9576 O.2        2 BB2          0.0000
    27 C2         0.2489   -14.5943    11.0019 C.2        2 BB2          0.0000
    28 C4         0.9922   -13.5817    10.1694 C.3        2 BB2          0.0000
    29 C5         0.0568   -13.0163     9.0988 C.3        2 BB2          0.0000
    30 C6         0.8768   -12.3025     8.0042 C.3        2 BB2          0.0000
    31 C7         1.0511   -13.3749     6.9002 C.3        2 BB2          0.0000
    32 C8        -0.3163   -14.1023     6.9114 C.3        2 BB2          0.0000
    33 C9        -0.7017   -14.1605     8.4040 C.3        2 BB2          0.0000
    34 C10       -0.9194   -12.0528     9.7233 C.ar       2 BB2          0.0000
    35 C11       -0.7018   -11.5818    11.0046 C.ar       2 BB2          0.0000
    36 C12       -1.5972   -10.6981    11.5774 C.ar       2 BB2          0.0000
    37 C13       -2.7099   -10.2850    10.8687 C.ar       2 BB2          0.0000
    38 C14       -2.9270   -10.7553     9.5871 C.ar       2 BB2          0.0000
    39 C15       -2.0292   -11.6357     9.0126 C.ar       2 BB2          0.0000
    40 H16        1.3431   -12.7722    10.8096 H          2 BB2          0.0000
    41 H17        1.8455   -14.0614     9.6898 H          2 BB2          0.0000
    42 H18        0.3298   -11.4425     7.6177 H          2 BB2          0.0000
    43 H19        1.8472   -11.9949     8.3939 H          2 BB2          0.0000
    44 H20        1.2319   -12.9071     5.9324 H          2 BB2          0.0000
    45 H21        1.8570   -14.0634     7.1543 H          2 BB2          0.0000
    46 H22       -1.0559   -13.5330     6.3483 H          2 BB2          0.0000
    47 H23       -0.2166   -15.1082     6.5036 H          2 BB2          0.0000
    48 H24       -0.4034   -15.1187     8.8294 H          2 BB2          0.0000
    49 H25       -1.7765   -14.0194     8.5179 H          2 BB2          0.0000
    50 H26        0.1674   -11.9045    11.5583 H          2 BB2          0.0000
    51 H27       -1.4278   -10.3307    12.5787 H          2 BB2          0.0000
    52 H28       -3.4099    -9.5951    11.3165 H          2 BB2          0.0000
    53 H29       -3.7964   -10.4328     9.0334 H          2 BB2          0.0000
    54 H30       -2.1987   -12.0032     8.0113 H          2 BB2          0.0000
@<TRIPOS>BOND
     1      1      2 1
     2      1     12 1
     3      1     13 1
     4      1     14 1
     5      2      3 1
     6      3      4 2
     7      3      5 1
     8      5      6 1
     9      5      9 1
    10      5     15 1
    11      6      7 1
    12      7      8 1
    13      7     16 1
    14      7     17 1
    15      8      9 1
    16      8     18 1
    17      8     19 1
    18      9     10 1
    19      9     11 1
    20     10     20 1
    21     10     21 1
    22     10     22 1
    23     11     23 1
    24     11     24 1
    25     11     25 1
    26     26     27 2
    27     27     28 1
    28     28     29 1
    29     28     40 1
    30     28     41 1
    31     29     30 1
    32     29     33 1
    33     29     34 1
    34     30     31 1
    35     30     42 1
    36     30     43 1
    37     31     32 1
    38     31     44 1
    39     31     45 1
    40     32     33 1
    41     32     46 1
    42     32     47 1
    43     33     48 1
    44     33     49 1
    45     34     35 ar
    46     34     39 ar
    47     35     36 ar
    48     35     50 1
    49     36     37 ar
    50     36     51 1
    51     37     38 ar
    52     37     52 1
    53     38     39 ar
    54     38     53 1
    55     39     54 1
    56      6     27 am
@<TRIPOS>SUBSTRUCTURE
     1 BB1           6
     2 BB2          27
@<TRIPOS>MOLECULE
EN300-703997_i001_EN300-344045_i001_17_3_1
  54   56   2   0   0
SMALL
USER_CHARGES
@<TRIPOS>ATOM
     1 C1        -0.3216   -20.9360    12.5224 C.3        1 BB1          0.0000
     2 O2        -0.4829   -19.5121    12.7567 O.3        1 BB1          0.0000
     3 C3        -0.0972   -18.6850    11.7724 C.2        1 BB1          0.0000
     4 O4         0.3964   -19.1337    10.7649 O.2        1 BB1          0.0000
     5 C5        -0.2799   -17.1968    11.9237 C.3        1 BB1          0.0000
     6 N6         0.0819   -16.5140    10.6627 N.am       1 BB1          0.0000
     7 C7         0.7078   -15.2280    11.0637 C.3        1 BB1          0.0000
     8 C8         1.5546   -15.6168    12.3016 C.3        1 BB1          0.0000
     9 C9         0.6650   -16.6606    13.0150 C.3        1 BB1          0.0000
    10 C10       -0.1392   -15.9965    14.1345 C.3        1 BB1          0.0000
    11 C11        1.5242   -17.7946    13.5777 C.3        1 BB1          0.0000
    12 H12       -0.9040   -21.2287    11.6488 H          1 BB1          0.0000
    13 H13        0.7312   -21.1587    12.3483 H          1 BB1          0.0000
    14 H14       -0.6707   -21.4895    13.3940 H          1 BB1          0.0000
    15 H15       -1.3151   -16.9745    12.1827 H          1 BB1          0.0000
    16 H16        1.3450   -14.8452    10.2665 H          1 BB1          0.0000
    17 H17       -0.0542   -14.4967    11.3331 H          1 BB1          0.0000
    18 H18        2.5020   -16.0613    11.9967 H          1 BB1          0.0000
    19 H19        1.7220   -14.7507    12.9419 H          1 BB1          0.0000
    20 H20       -0.7545   -15.1999    13.7164 H          1 BB1          0.0000
    21 H21       -0.7801   -16.7385    14.6109 H          1 BB1          0.0000
    22 H22        0.5439   -15.5781    14.8737 H          1 BB1          0.0000
    23 H23        2.2218   -17.3920    14.3121 H          1 BB1          0.0000
    24 H24        0.8817   -18.5348    14.0547 H          1 BB1          0.0000
    25 H25        2.0810   -18.2651    12.7674 H          1 BB1          0.0000
    26 C2         0.5459   -14.5453    10.1019 C.2        2 BB2          0.0000
    27 O3         0.1752   -15.4776     9.4091 O.2        2 BB2          0.0000
    28 C4        -0.4230   -13.4540    10.4780 C.3        2 BB2          0.0000
    29 C5        -0.6345   -12.5251     9.2809 C.3        2 BB2          0.0000
    30 C6         0.6374   -11.6890     9.0294 C.3        2 BB2          0.0000
    31 C7         1.4011   -12.4785     7.9373 C.3        2 BB2          0.0000
    32 C8         0.2593   -12.9923     7.0255 C.3        2 BB2          0.0000
    33 C9        -0.8749   -13.3536     8.0068 C.3        2 BB2          0.0000
    34 C10       -1.8085   -11.6149     9.5352 C.ar       2 BB2          0.0000
    35 C11       -3.0826   -12.1418     9.6348 C.ar       2 BB2          0.0000
    36 C12       -4.1594   -11.3070     9.8680 C.ar       2 BB2          0.0000
    37 C13       -3.9620    -9.9453    10.0023 C.ar       2 BB2          0.0000
    38 C14       -2.6878    -9.4186     9.9036 C.ar       2 BB2          0.0000
    39 C15       -1.6104   -10.2540     9.6747 C.ar       2 BB2          0.0000
    40 H16       -1.3759   -13.8977    10.7665 H          2 BB2          0.0000
    41 H17       -0.0201   -12.8827    11.3144 H          2 BB2          0.0000
    42 H18        0.3751   -10.6947     8.6682 H          2 BB2          0.0000
    43 H19        1.2348   -11.6204     9.9386 H          2 BB2          0.0000
    44 H20        2.0718   -11.8214     7.3835 H          2 BB2          0.0000
    45 H21        1.9500   -13.3119     8.3758 H          2 BB2          0.0000
    46 H22       -0.0641   -12.2083     6.3407 H          2 BB2          0.0000
    47 H23        0.5807   -13.8747     6.4723 H          2 BB2          0.0000
    48 H24       -0.8408   -14.4175     8.2413 H          2 BB2          0.0000
    49 H25       -1.8409   -13.0975     7.5716 H          2 BB2          0.0000
    50 H26       -3.2369   -13.2055     9.5299 H          2 BB2          0.0000
    51 H27       -5.1549   -11.7185     9.9450 H          2 BB2          0.0000
    52 H28       -4.8033    -9.2931    10.1838 H          2 BB2          0.0000
    53 H29       -2.5335    -8.3548    10.0082 H          2 BB2          0.0000
    54 H30       -0.6148    -9.8425     9.5976 H          2 BB2          0.0000
@<TRIPOS>BOND
     1      1      2 1
     2      1     12 1
     3      1     13 1
     4      1     14 1
     5      2      3 1
     6      3      4 2
     7      3      5 1
     8      5      6 1
     9      5      9 1
    10      5     15 1
    11      6      7 1
    12      7      8 1
    13      7     16 1
    14      7     17 1
    15      8      9 1
    16      8     18 1
    17      8     19 1
    18      9     10 1
    19      9     11 1
    20     10     20 1
    21     10     21 1
    22     10     22 1
    23     11     23 1
    24     11     24 1
    25     11     25 1
    26     26     27 2
    27     26     28 1
    28     28     29 1
    29     28     40 1
    30     28     41 1
    31     29     30 1
    32     29     33 1
    33     29     34 1
    34     30     31 1
    35     30     42 1
    36     30     43 1
    37     31     32 1
    38     31     44 1
    39     31     45 1
    40     32     33 1
    41     32     46 1
    42     32     47 1
    43     33     48 1
    44     33     49 1
    45     34     35 ar
    46     34     39 ar
    47     35     36 ar
    48     35     50 1
    49     36     37 ar
    50     36     51 1
    51     37     38 ar
    52     37     52 1
    53     38     39 ar
    54     38     53 1
    55     39     54 1
    56      6     26 am
@<TRIPOS>SUBSTRUCTURE
     1 BB1           6
     2 BB2          26
@<TRIPOS>MOLECULE
EN300-703997_i001_EN300-1198129_i001_18_19_1
  49   50   2   0   0
SMALL
USER_CHARGES
@<TRIPOS>ATOM
     1 C1        -0.3998   -14.5122    12.2946 C.3        1 BB1          0.0000
     2 O2        -0.2607   -15.9559    12.3640 O.3        1 BB1          0.0000
     3 C3         0.6082   -16.4418    13.2642 C.2        1 BB1          0.0000
     4 O4         0.9223   -15.7751    14.2218 O.2        1 BB1          0.0000
     5 C5         1.1922   -17.8189    13.0808 C.3        1 BB1          0.0000
     6 N6         0.8255   -18.3483    11.7494 N.am       1 BB1          0.0000
     7 C7         0.6259   -19.8084    11.9351 C.3        1 BB1          0.0000
     8 C8        -0.0864   -19.8970    13.3082 C.3        1 BB1          0.0000
     9 C9         0.6031   -18.7822    14.1278 C.3        1 BB1          0.0000
    10 C10        1.7182   -19.3721    14.9936 C.3        1 BB1          0.0000
    11 C11       -0.4209   -18.0551    15.0018 C.3        1 BB1          0.0000
    12 H12       -0.7353   -14.1328    13.2598 H          1 BB1          0.0000
    13 H13        0.5624   -14.0660    12.0434 H          1 BB1          0.0000
    14 H14       -1.1311   -14.2541    11.5287 H          1 BB1          0.0000
    15 H15        2.2770   -17.7780    13.1783 H          1 BB1          0.0000
    16 H16       -0.0077   -20.2135    11.1461 H          1 BB1          0.0000
    17 H17        1.5841   -20.3271    11.9647 H          1 BB1          0.0000
    18 H18       -1.1525   -19.6954    13.2034 H          1 BB1          0.0000
    19 H19        0.0797   -20.8718    13.7668 H          1 BB1          0.0000
    20 H20        2.4451   -19.8756    14.3562 H          1 BB1          0.0000
    21 H21        2.2115   -18.5719    15.5455 H          1 BB1          0.0000
    22 H22        1.2925   -20.0889    15.6957 H          1 BB1          0.0000
    23 H23       -0.8653   -18.7604    15.7041 H          1 BB1          0.0000
    24 H24        0.0745   -17.2563    15.5537 H          1 BB1          0.0000
    25 H25       -1.2013   -17.6306    14.3703 H          1 BB1          0.0000
    26 O1        -0.3046   -17.2320    10.9820 O.2        2 BB2          0.0000
    27 C2        -0.0992   -16.0437    11.1864 C.2        2 BB2          0.0000
    28 C4        -0.0979   -15.0920    10.0614 C.ar       2 BB2          0.0000
    29 C5        -0.0950   -13.7157    10.3052 C.ar       2 BB2          0.0000
    30 C6        -0.0937   -12.8313     9.2479 C.ar       2 BB2          0.0000
    31 C7        -0.0957   -13.3016     7.9456 C.ar       2 BB2          0.0000
    32 C8        -0.0987   -14.6609     7.6932 C.ar       2 BB2          0.0000
    33 C9        -0.0936   -15.5616     8.7423 C.ar       2 BB2          0.0000
    34 F10       -0.0964   -16.8898     8.4955 F          2 BB2          0.0000
    35 S11       -0.0901   -11.0963     9.5546 S.o2       2 BB2          0.0000
    36 O12        1.2590   -10.8027     9.8907 O.2        2 BB2          0.0000
    37 O13       -0.6960   -10.5347     8.3985 O.2        2 BB2          0.0000
    38 C14       -1.1656   -10.8901    11.0008 C.3        2 BB2          0.0000
    39 C15       -2.3179    -9.9470    10.6491 C.3        2 BB2          0.0000
    40 C16       -3.4317   -10.7237    10.0809 C.1        2 BB2          0.0000
    41 C17       -4.3201   -11.3431     9.6277 C.1        2 BB2          0.0000
    42 H18       -0.0940   -13.3459    11.3199 H          2 BB2          0.0000
    43 H19       -0.0955   -12.6026     7.1222 H          2 BB2          0.0000
    44 H20       -0.1002   -15.0199     6.6747 H          2 BB2          0.0000
    45 H21       -1.5669   -11.8595    11.2963 H          2 BB2          0.0000
    46 H22       -0.5898   -10.4688    11.8248 H          2 BB2          0.0000
    47 H23       -2.6551    -9.4338    11.5497 H          2 BB2          0.0000
    48 H24       -1.9769    -9.2132     9.9188 H          2 BB2          0.0000
    49 H25       -5.1147   -11.8971     9.2224 H          2 BB2          0.0000
@<TRIPOS>BOND
     1      1      2 1
     2      1     12 1
     3      1     13 1
     4      1     14 1
     5      2      3 1
     6      3      4 2
     7      3      5 1
     8      5      6 1
     9      5      9 1
    10      5     15 1
    11      6      7 1
    12      7      8 1
    13      7     16 1
    14      7     17 1
    15      8      9 1
    16      8     18 1
    17      8     19 1
    18      9     10 1
    19      9     11 1
    20     10     20 1
    21     10     21 1
    22     10     22 1
    23     11     23 1
    24     11     24 1
    25     11     25 1
    26     26     27 2
    27     27     28 1
    28     28     29 ar
    29     28     33 ar
    30     29     30 ar
    31     29     42 1
    32     30     31 ar
    33     30     35 1
    34     31     32 ar
    35     31     43 1
    36     32     33 ar
    37     32     44 1
    38     33     34 1
    39     35     36 2
    40     35     37 2
    41     35     38 1
    42     38     39 1
    43     38     45 1
    44     38     46 1
    45     39     40 1
    46     39     47 1
    47     39     48 1
    48     40     41 3
    49     41     49 1
    50      6     27 am
@<TRIPOS>SUBSTRUCTURE
     1 BB1           6
     2 BB2          27
@<TRIPOS>MOLECULE
EN300-703997_i001_EN300-1198129_i001_18_2_1
  49   50   2   0   0
SMALL
USER_CHARGES
@<TRIPOS>ATOM
     1 C1        -0.3998   -14.5122    12.2946 C.3        1 BB1          0.0000
     2 O2        -0.2607   -15.9559    12.3640 O.3        1 BB1          0.0000
     3 C3         0.6082   -16.4418    13.2642 C.2        1 BB1          0.0000
     4 O4         0.9223   -15.7751    14.2218 O.2        1 BB1          0.0000
     5 C5         1.1922   -17.8189    13.0808 C.3        1 BB1          0.0000
     6 N6         0.8255   -18.3483    11.7494 N.am       1 BB1          0.0000
     7 C7         0.6259   -19.8084    11.9351 C.3        1 BB1          0.0000
     8 C8        -0.0864   -19.8970    13.3082 C.3        1 BB1          0.0000
     9 C9         0.6031   -18.7822    14.1278 C.3        1 BB1          0.0000
    10 C10        1.7182   -19.3721    14.9936 C.3        1 BB1          0.0000
    11 C11       -0.4209   -18.0551    15.0018 C.3        1 BB1          0.0000
    12 H12       -0.7353   -14.1328    13.2598 H          1 BB1          0.0000
    13 H13        0.5624   -14.0660    12.0434 H          1 BB1          0.0000
    14 H14       -1.1311   -14.2541    11.5287 H          1 BB1          0.0000
    15 H15        2.2770   -17.7780    13.1783 H          1 BB1          0.0000
    16 H16       -0.0077   -20.2135    11.1461 H          1 BB1          0.0000
    17 H17        1.5841   -20.3271    11.9647 H          1 BB1          0.0000
    18 H18       -1.1525   -19.6954    13.2034 H          1 BB1          0.0000
    19 H19        0.0797   -20.8718    13.7668 H          1 BB1          0.0000
    20 H20        2.4451   -19.8756    14.3562 H          1 BB1          0.0000
    21 H21        2.2115   -18.5719    15.5455 H          1 BB1          0.0000
    22 H22        1.2925   -20.0889    15.6957 H          1 BB1          0.0000
    23 H23       -0.8653   -18.7604    15.7041 H          1 BB1          0.0000
    24 H24        0.0745   -17.2563    15.5537 H          1 BB1          0.0000
    25 H25       -1.2013   -17.6306    14.3703 H          1 BB1          0.0000
    26 C2        -0.3925   -15.7871    12.2073 C.2        2 BB2          0.0000
    27 O3        -0.9969   -16.8465    12.3003 O.2        2 BB2          0.0000
    28 C4        -0.2354   -15.1414    10.8922 C.ar       2 BB2          0.0000
    29 C5        -0.1788   -13.7480    10.7957 C.ar       2 BB2          0.0000
    30 C6        -0.0318   -13.1509     9.5621 C.ar       2 BB2          0.0000
    31 C7         0.0595   -13.9262     8.4186 C.ar       2 BB2          0.0000
    32 C8         0.0046   -15.3051     8.5026 C.ar       2 BB2          0.0000
    33 C9        -0.1363   -15.9203     9.7329 C.ar       2 BB2          0.0000
    34 F10       -0.1899   -17.2677     9.8148 F          2 BB2          0.0000
    35 S11        0.0396   -11.3946     9.4399 S.o2       2 BB2          0.0000
    36 O12        0.3047   -10.9615    10.7671 O.2        2 BB2          0.0000
    37 O13        0.9678   -11.1537     8.3914 O.2        2 BB2          0.0000
    38 C14       -1.6330   -10.9078     8.9338 C.3        2 BB2          0.0000
    39 C15       -2.3738   -10.3081    10.1306 C.3        2 BB2          0.0000
    40 C16       -3.8145   -10.5817    10.0032 C.1        2 BB2          0.0000
    41 C17       -4.9636   -10.7998     9.9015 C.1        2 BB2          0.0000
    42 H18       -0.2504   -13.1407    11.6858 H          2 BB2          0.0000
    43 H19        0.1738   -13.4511     7.4554 H          2 BB2          0.0000
    44 H20        0.0765   -15.9029     7.6061 H          2 BB2          0.0000
    45 H21       -1.5702   -10.1667     8.1369 H          2 BB2          0.0000
    46 H22       -2.1731   -11.7834     8.5738 H          2 BB2          0.0000
    47 H23       -1.9991   -10.7556    11.0512 H          2 BB2          0.0000
    48 H24       -2.2095    -9.2309    10.1572 H          2 BB2          0.0000
    49 H25       -5.9913   -10.9949     9.8107 H          2 BB2          0.0000
@<TRIPOS>BOND
     1      1      2 1
     2      1     12 1
     3      1     13 1
     4      1     14 1
     5      2      3 1
     6      3      4 2
     7      3      5 1
     8      5      6 1
     9      5      9 1
    10      5     15 1
    11      6      7 1
    12      7      8 1
    13      7     16 1
    14      7     17 1
    15      8      9 1
    16      8     18 1
    17      8     19 1
    18      9     10 1
    19      9     11 1
    20     10     20 1
    21     10     21 1
    22     10     22 1
    23     11     23 1
    24     11     24 1
    25     11     25 1
    26     26     27 2
    27     26     28 1
    28     28     29 ar
    29     28     33 ar
    30     29     30 ar
    31     29     42 1
    32     30     31 ar
    33     30     35 1
    34     31     32 ar
    35     31     43 1
    36     32     33 ar
    37     32     44 1
    38     33     34 1
    39     35     36 2
    40     35     37 2
    41     35     38 1
    42     38     39 1
    43     38     45 1
    44     38     46 1
    45     39     40 1
    46     39     47 1
    47     39     48 1
    48     40     41 3
    49     41     49 1
    50      6     26 am
@<TRIPOS>SUBSTRUCTURE
     1 BB1           6
     2 BB2          26
@<TRIPOS>MOLECULE
EN300-703997_i001_EN300-1198129_i001_18_9_1
  49   50   2   0   0
SMALL
USER_CHARGES
@<TRIPOS>ATOM
     1 C1        -0.3998   -14.5122    12.2946 C.3        1 BB1          0.0000
     2 O2        -0.2607   -15.9559    12.3640 O.3        1 BB1          0.0000
     3 C3         0.6082   -16.4418    13.2642 C.2        1 BB1          0.0000
     4 O4         0.9223   -15.7751    14.2218 O.2        1 BB1          0.0000
     5 C5         1.1922   -17.8189    13.0808 C.3        1 BB1          0.0000
     6 N6         0.8255   -18.3483    11.7494 N.am       1 BB1          0.0000
     7 C7         0.6259   -19.8084    11.9351 C.3        1 BB1          0.0000
     8 C8        -0.0864   -19.8970    13.3082 C.3        1 BB1          0.0000
     9 C9         0.6031   -18.7822    14.1278 C.3        1 BB1          0.0000
    10 C10        1.7182   -19.3721    14.9936 C.3        1 BB1          0.0000
    11 C11       -0.4209   -18.0551    15.0018 C.3        1 BB1          0.0000
    12 H12       -0.7353   -14.1328    13.2598 H          1 BB1          0.0000
    13 H13        0.5624   -14.0660    12.0434 H          1 BB1          0.0000
    14 H14       -1.1311   -14.2541    11.5287 H          1 BB1          0.0000
    15 H15        2.2770   -17.7780    13.1783 H          1 BB1          0.0000
    16 H16       -0.0077   -20.2135    11.1461 H          1 BB1          0.0000
    17 H17        1.5841   -20.3271    11.9647 H          1 BB1          0.0000
    18 H18       -1.1525   -19.6954    13.2034 H          1 BB1          0.0000
    19 H19        0.0797   -20.8718    13.7668 H          1 BB1          0.0000
    20 H20        2.4451   -19.8756    14.3562 H          1 BB1          0.0000
    21 H21        2.2115   -18.5719    15.5455 H          1 BB1          0.0000
    22 H22        1.2925   -20.0889    15.6957 H          1 BB1          0.0000
    23 H23       -0.8653   -18.7604    15.7041 H          1 BB1          0.0000
    24 H24        0.0745   -17.2563    15.5537 H          1 BB1          0.0000
    25 H25       -1.2013   -17.6306    14.3703 H          1 BB1          0.0000
    26 C2        -0.3298   -16.2651    12.1501 C.2        2 BB2          0.0000
    27 O3        -0.7790   -17.3577    12.4674 O.2        2 BB2          0.0000
    28 C4        -0.2777   -15.8739    10.7304 C.ar       2 BB2          0.0000
    29 C5        -0.0559   -14.5399    10.3768 C.ar       2 BB2          0.0000
    30 C6        -0.0084   -14.1812     9.0467 C.ar       2 BB2          0.0000
    31 C7        -0.1800   -15.1375     8.0601 C.ar       2 BB2          0.0000
    32 C8        -0.4001   -16.4597     8.3988 C.ar       2 BB2          0.0000
    33 C9        -0.4444   -16.8374     9.7282 C.ar       2 BB2          0.0000
    34 F10       -0.6594   -18.1295    10.0590 F          2 BB2          0.0000
    35 S11        0.2712   -12.4998     8.6004 S.o2       2 BB2          0.0000
    36 O12        1.1192   -12.0014     9.6259 O.2        2 BB2          0.0000
    37 O13        0.7129   -12.5641     7.2513 O.2        2 BB2          0.0000
    38 C14       -1.3671   -11.7273     8.6976 C.3        2 BB2          0.0000
    39 C15       -1.8344   -11.7042    10.1543 C.3        2 BB2          0.0000
    40 C16       -3.1653   -11.0801    10.2329 C.1        2 BB2          0.0000
    41 C17       -4.2268   -10.5825    10.2955 C.1        2 BB2          0.0000
    42 H18        0.0778   -13.7917    11.1441 H          2 BB2          0.0000
    43 H19       -0.1423   -14.8487     7.0201 H          2 BB2          0.0000
    44 H20       -0.5331   -17.1996     7.6236 H          2 BB2          0.0000
    45 H21       -1.3110   -10.7072     8.3179 H          2 BB2          0.0000
    46 H22       -2.0750   -12.2997     8.0981 H          2 BB2          0.0000
    47 H23       -1.8885   -12.7242    10.5348 H          2 BB2          0.0000
    48 H24       -1.1279   -11.1298    10.7535 H          2 BB2          0.0000
    49 H25       -5.1762   -10.1374    10.3514 H          2 BB2          0.0000
@<TRIPOS>BOND
     1      1      2 1
     2      1     12 1
     3      1     13 1
     4      1     14 1
     5      2      3 1
     6      3      4 2
     7      3      5 1
     8      5      6 1
     9      5      9 1
    10      5     15 1
    11      6      7 1
    12      7      8 1
    13      7     16 1
    14      7     17 1
    15      8      9 1
    16      8     18 1
    17      8     19 1
    18      9     10 1
    19      9     11 1
    20     10     20 1
    21     10     21 1
    22     10     22 1
    23     11     23 1
    24     11     24 1
    25     11     25 1
    26     26     27 2
    27     26     28 1
    28     28     29 ar
    29     28     33 ar
    30     29     30 ar
    31     29     42 1
    32     30     31 ar
    33     30     35 1
    34     31     32 ar
    35     31     43 1
    36     32     33 ar
    37     32     44 1
    38     33     34 1
    39     35     36 2
    40     35     37 2
    41     35     38 1
    42     38     39 1
    43     38     45 1
    44     38     46 1
    45     39     40 1
    46     39     47 1
    47     39     48 1
    48     40     41 3
    49     41     49 1
    50      6     26 am
@<TRIPOS>SUBSTRUCTURE
     1 BB1           6
     2 BB2          26
@<TRIPOS>MOLECULE
EN300-703997_i001_EN300-315786_i001_18_12_1
  53   55   2   0   0
SMALL
USER_CHARGES
@<TRIPOS>ATOM
     1 C1        -0.3998   -14.5122    12.2946 C.3        1 BB1          0.0000
     2 O2        -0.2607   -15.9559    12.3640 O.3        1 BB1          0.0000
     3 C3         0.6082   -16.4418    13.2642 C.2        1 BB1          0.0000
     4 O4         0.9223   -15.7751    14.2218 O.2        1 BB1          0.0000
     5 C5         1.1922   -17.8189    13.0808 C.3        1 BB1          0.0000
     6 N6         0.8255   -18.3483    11.7494 N.am       1 BB1          0.0000
     7 C7         0.6259   -19.8084    11.9351 C.3        1 BB1          0.0000
     8 C8        -0.0864   -19.8970    13.3082 C.3        1 BB1          0.0000
     9 C9         0.6031   -18.7822    14.1278 C.3        1 BB1          0.0000
    10 C10        1.7182   -19.3721    14.9936 C.3        1 BB1          0.0000
    11 C11       -0.4209   -18.0551    15.0018 C.3        1 BB1          0.0000
    12 H12       -0.7353   -14.1328    13.2598 H          1 BB1          0.0000
    13 H13        0.5624   -14.0660    12.0434 H          1 BB1          0.0000
    14 H14       -1.1311   -14.2541    11.5287 H          1 BB1          0.0000
    15 H15        2.2770   -17.7780    13.1783 H          1 BB1          0.0000
    16 H16       -0.0077   -20.2135    11.1461 H          1 BB1          0.0000
    17 H17        1.5841   -20.3271    11.9647 H          1 BB1          0.0000
    18 H18       -1.1525   -19.6954    13.2034 H          1 BB1          0.0000
    19 H19        0.0797   -20.8718    13.7668 H          1 BB1          0.0000
    20 H20        2.4451   -19.8756    14.3562 H          1 BB1          0.0000
    21 H21        2.2115   -18.5719    15.5455 H          1 BB1          0.0000
    22 H22        1.2925   -20.0889    15.6957 H          1 BB1          0.0000
    23 H23       -0.8653   -18.7604    15.7041 H          1 BB1          0.0000
    24 H24        0.0745   -17.2563    15.5537 H          1 BB1          0.0000
    25 H25       -1.2013   -17.6306    14.3703 H          1 BB1          0.0000
    26 C2        -0.6251   -18.1724     9.2095 C.2        2 BB2          0.0000
    27 O3        -0.0733   -18.9094    10.0140 O.2        2 BB2          0.0000
    28 C4        -0.4147   -16.7114     9.2806 C.ar       2 BB2          0.0000
    29 C5        -0.2275   -16.0918    10.5182 C.ar       2 BB2          0.0000
    30 C6        -0.0313   -14.7292    10.5836 C.ar       2 BB2          0.0000
    31 C7        -0.0197   -13.9686     9.4139 C.ar       2 BB2          0.0000
    32 C8        -0.2067   -14.5870     8.1770 C.ar       2 BB2          0.0000
    33 C9        -0.3973   -15.9503     8.1096 C.ar       2 BB2          0.0000
    34 C10        0.1906   -12.5044     9.4851 C.2        2 BB2          0.0000
    35 O11        1.1512   -12.0012     8.9367 O.2        2 BB2          0.0000
    36 N12       -0.6833   -11.7300    10.1581 N.am       2 BB2          0.0000
    37 C13       -0.5419   -10.2653    10.1734 C.3        2 BB2          0.0000
    38 C14       -1.8912    -9.6453     9.7929 C.3        2 BB2          0.0000
    39 O15       -2.9134   -10.1931    10.6287 O.3        2 BB2          0.0000
    40 C16       -3.0951   -11.6037    10.4829 C.3        2 BB2          0.0000
    41 C17       -1.8107   -12.3237    10.8942 C.3        2 BB2          0.0000
    42 H18       -0.2367   -16.6803    11.4237 H          2 BB2          0.0000
    43 H19        0.1132   -14.2499    11.5407 H          2 BB2          0.0000
    44 H20       -0.1981   -13.9976     7.2720 H          2 BB2          0.0000
    45 H21       -0.5417   -16.4288     7.1522 H          2 BB2          0.0000
    46 H22       -0.2543    -9.9348    11.1715 H          2 BB2          0.0000
    47 H23        0.2177    -9.9623     9.4528 H          2 BB2          0.0000
    48 H24       -1.8475    -8.5650     9.9317 H          2 BB2          0.0000
    49 H25       -2.1141    -9.8704     8.7499 H          2 BB2          0.0000
    50 H26       -3.9176   -11.9324    11.1182 H          2 BB2          0.0000
    51 H27       -3.3224   -11.8359     9.4425 H          2 BB2          0.0000
    52 H28       -1.8908   -13.3838    10.6533 H          2 BB2          0.0000
    53 H29       -1.6480   -12.2013    11.9650 H          2 BB2          0.0000
@<TRIPOS>BOND
     1      1      2 1
     2      1     12 1
     3      1     13 1
     4      1     14 1
     5      2      3 1
     6      3      4 2
     7      3      5 1
     8      5      6 1
     9      5      9 1
    10      5     15 1
    11      6      7 1
    12      7      8 1
    13      7     16 1
    14      7     17 1
    15      8      9 1
    16      8     18 1
    17      8     19 1
    18      9     10 1
    19      9     11 1
    20     10     20 1
    21     10     21 1
    22     10     22 1
    23     11     23 1
    24     11     24 1
    25     11     25 1
    26     26     27 2
    27     26     28 1
    28     28     29 ar
    29     28     33 ar
    30     29     30 ar
    31     29     42 1
    32     30     31 ar
    33     30     43 1
    34     31     32 ar
    35     31     34 1
    36     32     33 ar
    37     32     44 1
    38     33     45 1
    39     34     35 2
    40     34     36 am
    41     36     37 1
    42     36     41 1
    43     37     38 1
    44     37     46 1
    45     37     47 1
    46     38     39 1
    47     38     48 1
    48     38     49 1
    49     39     40 1
    50     40     41 1
    51     40     50 1
    52     40     51 1
    53     41     52 1
    54     41     53 1
    55      6     26 am
@<TRIPOS>SUBSTRUCTURE
     1 BB1           6
     2 BB2          26
@<TRIPOS>MOLECULE
EN300-703997_i001_EN300-194291_i002_18_16_1
  49   51   2   0   0
SMALL
USER_CHARGES
@<TRIPOS>ATOM
     1 C1        -0.3998   -14.5122    12.2946 C.3        1 BB1          0.0000
     2 O2        -0.2607   -15.9559    12.3640 O.3        1 BB1          0.0000
     3 C3         0.6082   -16.4418    13.2642 C.2        1 BB1          0.0000
     4 O4         0.9223   -15.7751    14.2218 O.2        1 BB1          0.0000
     5 C5         1.1922   -17.8189    13.0808 C.3        1 BB1          0.0000
     6 N6         0.8255   -18.3483    11.7494 N.am       1 BB1          0.0000
     7 C7         0.6259   -19.8084    11.9351 C.3        1 BB1          0.0000
     8 C8        -0.0864   -19.8970    13.3082 C.3        1 BB1          0.0000
     9 C9         0.6031   -18.7822    14.1278 C.3        1 BB1          0.0000
    10 C10        1.7182   -19.3721    14.9936 C.3        1 BB1          0.0000
    11 C11       -0.4209   -18.0551    15.0018 C.3        1 BB1          0.0000
    12 H12       -0.7353   -14.1328    13.2598 H          1 BB1          0.0000
    13 H13        0.5624   -14.0660    12.0434 H          1 BB1          0.0000
    14 H14       -1.1311   -14.2541    11.5287 H          1 BB1          0.0000
    15 H15        2.2770   -17.7780    13.1783 H          1 BB1          0.0000
    16 H16       -0.0077   -20.2135    11.1461 H          1 BB1          0.0000
    17 H17        1.5841   -20.3271    11.9647 H          1 BB1          0.0000
    18 H18       -1.1525   -19.6954    13.2034 H          1 BB1          0.0000
    19 H19        0.0797   -20.8718    13.7668 H          1 BB1          0.0000
    20 H20        2.4451   -19.8756    14.3562 H          1 BB1          0.0000
    21 H21        2.2115   -18.5719    15.5455 H          1 BB1          0.0000
    22 H22        1.2925   -20.0889    15.6957 H          1 BB1          0.0000
    23 H23       -0.8653   -18.7604    15.7041 H          1 BB1          0.0000
    24 H24        0.0745   -17.2563    15.5537 H          1 BB1          0.0000
    25 H25       -1.2013   -17.6306    14.3703 H          1 BB1          0.0000
    26 O1         0.3181   -16.2492    12.8568 O.2        2 BB2          0.0000
    27 C2         0.9864   -15.6654    12.0206 C.2        2 BB2          0.0000
    28 C4         0.3162   -15.0305    10.8295 C.3        2 BB2          0.0000
    29 C5        -0.7059   -13.9613    11.2751 C.3        2 BB2          0.0000
    30 N6        -0.6164   -12.8925    10.2732 N.am       2 BB2          0.0000
    31 C7         0.5153   -12.9905     9.5545 C.2        2 BB2          0.0000
    32 O8         0.8423   -12.2317     8.6666 O.2        2 BB2          0.0000
    33 C9         1.3218   -14.1850    10.0143 C.3        2 BB2          0.0000
    34 C10       -1.5851   -11.8982    10.0900 C.ar       2 BB2          0.0000
    35 C11       -1.1994   -10.5761     9.9146 C.ar       2 BB2          0.0000
    36 C12       -2.1559    -9.5957     9.7334 C.ar       2 BB2          0.0000
    37 C13       -3.4988    -9.9298     9.7271 C.ar       2 BB2          0.0000
    38 F14       -4.4322    -8.9694     9.5498 F          2 BB2          0.0000
    39 C15       -3.8874   -11.2498     9.9021 C.ar       2 BB2          0.0000
    40 F16       -5.1988   -11.5745     9.8952 F          2 BB2          0.0000
    41 C17       -2.9323   -12.2343    10.0779 C.ar       2 BB2          0.0000
    42 H18       -0.1577   -15.7858    10.2026 H          2 BB2          0.0000
    43 H19       -1.7111   -14.3826    11.2883 H          2 BB2          0.0000
    44 H20       -0.4442   -13.5770    12.2610 H          2 BB2          0.0000
    45 H21        2.1512   -13.8654    10.6453 H          2 BB2          0.0000
    46 H22        1.6889   -14.7501     9.1575 H          2 BB2          0.0000
    47 H23       -0.1517   -10.3141     9.9201 H          2 BB2          0.0000
    48 H24       -1.8553    -8.5674     9.5970 H          2 BB2          0.0000
    49 H25       -3.2342   -13.2622    10.2142 H          2 BB2          0.0000
@<TRIPOS>BOND
     1      1      2 1
     2      1     12 1
     3      1     13 1
     4      1     14 1
     5      2      3 1
     6      3      4 2
     7      3      5 1
     8      5      6 1
     9      5      9 1
    10      5     15 1
    11      6      7 1
    12      7      8 1
    13      7     16 1
    14      7     17 1
    15      8      9 1
    16      8     18 1
    17      8     19 1
    18      9     10 1
    19      9     11 1
    20     10     20 1
    21     10     21 1
    22     10     22 1
    23     11     23 1
    24     11     24 1
    25     11     25 1
    26     26     27 2
    27     27     28 1
    28     28     29 1
    29     28     33 1
    30     28     42 1
    31     29     30 1
    32     29     43 1
    33     29     44 1
    34     30     31 am
    35     30     34 1
    36     31     32 2
    37     31     33 1
    38     33     45 1
    39     33     46 1
    40     34     35 ar
    41     34     41 ar
    42     35     36 ar
    43     35     47 1
    44     36     37 ar
    45     36     48 1
    46     37     38 1
    47     37     39 ar
    48     39     40 1
    49     39     41 ar
    50     41     49 1
    51      6     27 am
@<TRIPOS>SUBSTRUCTURE
     1 BB1           6
     2 BB2          27
@<TRIPOS>MOLECULE
EN300-703997_i001_EN300-1198129_i001_3_19_1
  49   50   2   0   0
SMALL
USER_CHARGES
@<TRIPOS>ATOM
     1 C1         1.2265   -21.3350    13.3071 C.3        1 BB1          0.0000
     2 O2         0.5859   -20.0388    13.4409 O.3        1 BB1          0.0000
     3 C3         0.6692   -19.2067    12.3910 C.2        1 BB1          0.0000
     4 O4         1.2258   -19.5637    11.3797 O.2        1 BB1          0.0000
     5 C5         0.0685   -17.8270    12.4736 C.3        1 BB1          0.0000
     6 N6         0.1791   -17.1502    11.1632 N.am       1 BB1          0.0000
     7 C7         0.4182   -15.7160    11.4671 C.3        1 BB1          0.0000
     8 C8         1.3782   -15.7664    12.6822 C.3        1 BB1          0.0000
     9 C9         0.8505   -16.9743    13.4898 C.3        1 BB1          0.0000
    10 C10       -0.0772   -16.4996    14.6101 C.3        1 BB1          0.0000
    11 C11        2.0176   -17.7762    14.0694 C.3        1 BB1          0.0000
    12 H12        0.7836   -21.8745    12.4699 H          1 BB1          0.0000
    13 H13        2.2926   -21.1967    13.1269 H          1 BB1          0.0000
    14 H14        1.0843   -21.9070    14.2240 H          1 BB1          0.0000
    15 H15       -0.9784   -17.8952    12.7692 H          1 BB1          0.0000
    16 H16        0.8930   -15.2177    10.6220 H          1 BB1          0.0000
    17 H17       -0.5143   -15.2187    11.7339 H          1 BB1          0.0000
    18 H18        2.4040   -15.9387    12.3564 H          1 BB1          0.0000
    19 H19        1.3072   -14.8500    13.2681 H          1 BB1          0.0000
    20 H20       -0.9090   -15.9411    14.1807 H          1 BB1          0.0000
    21 H21       -0.4613   -17.3627    15.1539 H          1 BB1          0.0000
    22 H22        0.4777   -15.8570    15.2936 H          1 BB1          0.0000
    23 H23        2.5908   -17.1447    14.7482 H          1 BB1          0.0000
    24 H24        1.6314   -18.6380    14.6138 H          1 BB1          0.0000
    25 H25        2.6619   -18.1173    13.2591 H          1 BB1          0.0000
    26 O1        -0.3046   -17.2320    10.9820 O.2        2 BB2          0.0000
    27 C2        -0.0992   -16.0437    11.1864 C.2        2 BB2          0.0000
    28 C4        -0.0979   -15.0920    10.0614 C.ar       2 BB2          0.0000
    29 C5        -0.0950   -13.7157    10.3052 C.ar       2 BB2          0.0000
    30 C6        -0.0937   -12.8313     9.2479 C.ar       2 BB2          0.0000
    31 C7        -0.0957   -13.3016     7.9456 C.ar       2 BB2          0.0000
    32 C8        -0.0987   -14.6609     7.6932 C.ar       2 BB2          0.0000
    33 C9        -0.0936   -15.5616     8.7423 C.ar       2 BB2          0.0000
    34 F10       -0.0964   -16.8898     8.4955 F          2 BB2          0.0000
    35 S11       -0.0901   -11.0963     9.5546 S.o2       2 BB2          0.0000
    36 O12        1.2590   -10.8027     9.8907 O.2        2 BB2          0.0000
    37 O13       -0.6960   -10.5347     8.3985 O.2        2 BB2          0.0000
    38 C14       -1.1656   -10.8901    11.0008 C.3        2 BB2          0.0000
    39 C15       -2.3179    -9.9470    10.6491 C.3        2 BB2          0.0000
    40 C16       -3.4317   -10.7237    10.0809 C.1        2 BB2          0.0000
    41 C17       -4.3201   -11.3431     9.6277 C.1        2 BB2          0.0000
    42 H18       -0.0940   -13.3459    11.3199 H          2 BB2          0.0000
    43 H19       -0.0955   -12.6026     7.1222 H          2 BB2          0.0000
    44 H20       -0.1002   -15.0199     6.6747 H          2 BB2          0.0000
    45 H21       -1.5669   -11.8595    11.2963 H          2 BB2          0.0000
    46 H22       -0.5898   -10.4688    11.8248 H          2 BB2          0.0000
    47 H23       -2.6551    -9.4338    11.5497 H          2 BB2          0.0000
    48 H24       -1.9769    -9.2132     9.9188 H          2 BB2          0.0000
    49 H25       -5.1147   -11.8971     9.2224 H          2 BB2          0.0000
@<TRIPOS>BOND
     1      1      2 1
     2      1     12 1
     3      1     13 1
     4      1     14 1
     5      2      3 1
     6      3      4 2
     7      3      5 1
     8      5      6 1
     9      5      9 1
    10      5     15 1
    11      6      7 1
    12      7      8 1
    13      7     16 1
    14      7     17 1
    15      8      9 1
    16      8     18 1
    17      8     19 1
    18      9     10 1
    19      9     11 1
    20     10     20 1
    21     10     21 1
    22     10     22 1
    23     11     23 1
    24     11     24 1
    25     11     25 1
    26     26     27 2
    27     27     28 1
    28     28     29 ar
    29     28     33 ar
    30     29     30 ar
    31     29     42 1
    32     30     31 ar
    33     30     35 1
    34     31     32 ar
    35     31     43 1
    36     32     33 ar
    37     32     44 1
    38     33     34 1
    39     35     36 2
    40     35     37 2
    41     35     38 1
    42     38     39 1
    43     38     45 1
    44     38     46 1
    45     39     40 1
    46     39     47 1
    47     39     48 1
    48     40     41 3
    49     41     49 1
    50      6     27 am
@<TRIPOS>SUBSTRUCTURE
     1 BB1           6
     2 BB2          27
@<TRIPOS>MOLECULE
EN300-703997_i001_EN300-4287209_i001_3_3_1
  40   41   2   0   0
SMALL
USER_CHARGES
@<TRIPOS>ATOM
     1 C1         1.2265   -21.3350    13.3071 C.3        1 BB1          0.0000
     2 O2         0.5859   -20.0388    13.4409 O.3        1 BB1          0.0000
     3 C3         0.6692   -19.2067    12.3910 C.2        1 BB1          0.0000
     4 O4         1.2258   -19.5637    11.3797 O.2        1 BB1          0.0000
     5 C5         0.0685   -17.8270    12.4736 C.3        1 BB1          0.0000
     6 N6         0.1791   -17.1502    11.1632 N.am       1 BB1          0.0000
     7 C7         0.4182   -15.7160    11.4671 C.3        1 BB1          0.0000
     8 C8         1.3782   -15.7664    12.6822 C.3        1 BB1          0.0000
     9 C9         0.8505   -16.9743    13.4898 C.3        1 BB1          0.0000
    10 C10       -0.0772   -16.4996    14.6101 C.3        1 BB1          0.0000
    11 C11        2.0176   -17.7762    14.0694 C.3        1 BB1          0.0000
    12 H12        0.7836   -21.8745    12.4699 H          1 BB1          0.0000
    13 H13        2.2926   -21.1967    13.1269 H          1 BB1          0.0000
    14 H14        1.0843   -21.9070    14.2240 H          1 BB1          0.0000
    15 H15       -0.9784   -17.8952    12.7692 H          1 BB1          0.0000
    16 H16        0.8930   -15.2177    10.6220 H          1 BB1          0.0000
    17 H17       -0.5143   -15.2187    11.7339 H          1 BB1          0.0000
    18 H18        2.4040   -15.9387    12.3564 H          1 BB1          0.0000
    19 H19        1.3072   -14.8500    13.2681 H          1 BB1          0.0000
    20 H20       -0.9090   -15.9411    14.1807 H          1 BB1          0.0000
    21 H21       -0.4613   -17.3627    15.1539 H          1 BB1          0.0000
    22 H22        0.4777   -15.8570    15.2936 H          1 BB1          0.0000
    23 H23        2.5908   -17.1447    14.7482 H          1 BB1          0.0000
    24 H24        1.6314   -18.6380    14.6138 H          1 BB1          0.0000
    25 H25        2.6619   -18.1173    13.2591 H          1 BB1          0.0000
    26 O1         0.9022   -15.2848    11.2052 O.2        2 BB2          0.0000
    27 C2        -0.0043   -14.5201    11.5040 C.2        2 BB2          0.0000
    28 C4        -0.4017   -13.4480    10.5724 C.ar       2 BB2          0.0000
    29 C5        -1.5033   -12.6425    10.8617 C.ar       2 BB2          0.0000
    30 C6        -1.8709   -11.6325     9.9767 C.ar       2 BB2          0.0000
    31 C7        -3.0001   -10.8010    10.2667 C.1        2 BB2          0.0000
    32 C8        -3.9259   -10.1193    10.5044 C.1        2 BB2          0.0000
    33 C9        -1.1364   -11.4311     8.8058 C.ar       2 BB2          0.0000
    34 C10       -0.0472   -12.2308     8.5230 C.ar       2 BB2          0.0000
    35 C11        0.3287   -13.2319     9.3982 C.ar       2 BB2          0.0000
    36 Cl12       1.6998   -14.2324     9.0338 Cl         2 BB2          0.0000
    37 H13       -2.0687   -12.8018    11.7680 H          2 BB2          0.0000
    38 H14       -4.7538    -9.5095    10.7170 H          2 BB2          0.0000
    39 H15       -1.4217   -10.6476     8.1195 H          2 BB2          0.0000
    40 H16        0.5164   -12.0702     7.6158 H          2 BB2          0.0000
@<TRIPOS>BOND
     1      1      2 1
     2      1     12 1
     3      1     13 1
     4      1     14 1
     5      2      3 1
     6      3      4 2
     7      3      5 1
     8      5      6 1
     9      5      9 1
    10      5     15 1
    11      6      7 1
    12      7      8 1
    13      7     16 1
    14      7     17 1
    15      8      9 1
    16      8     18 1
    17      8     19 1
    18      9     10 1
    19      9     11 1
    20     10     20 1
    21     10     21 1
    22     10     22 1
    23     11     23 1
    24     11     24 1
    25     11     25 1
    26     26     27 2
    27     27     28 1
    28     28     29 ar
    29     28     35 ar
    30     29     30 ar
    31     29     37 1
    32     30     31 1
    33     30     33 ar
    34     31     32 3
    35     32     38 1
    36     33     34 ar
    37     33     39 1
    38     34     35 ar
    39     34     40 1
    40     35     36 1
    41      6     27 am
@<TRIPOS>SUBSTRUCTURE
     1 BB1           6
     2 BB2          27
@<TRIPOS>MOLECULE
EN300-703997_i001_EN300-19857_i001_3_19_1
  38   39   2   0   0
SMALL
USER_CHARGES
@<TRIPOS>ATOM
     1 C1         1.2265   -21.3350    13.3071 C.3        1 BB1          0.0000
     2 O2         0.5859   -20.0388    13.4409 O.3        1 BB1          0.0000
     3 C3         0.6692   -19.2067    12.3910 C.2        1 BB1          0.0000
     4 O4         1.2258   -19.5637    11.3797 O.2        1 BB1          0.0000
     5 C5         0.0685   -17.8270    12.4736 C.3        1 BB1          0.0000
     6 N6         0.1791   -17.1502    11.1632 N.am       1 BB1          0.0000
     7 C7         0.4182   -15.7160    11.4671 C.3        1 BB1          0.0000
     8 C8         1.3782   -15.7664    12.6822 C.3        1 BB1          0.0000
     9 C9         0.8505   -16.9743    13.4898 C.3        1 BB1          0.0000
    10 C10       -0.0772   -16.4996    14.6101 C.3        1 BB1          0.0000
    11 C11        2.0176   -17.7762    14.0694 C.3        1 BB1          0.0000
    12 H12        0.7836   -21.8745    12.4699 H          1 BB1          0.0000
    13 H13        2.2926   -21.1967    13.1269 H          1 BB1          0.0000
    14 H14        1.0843   -21.9070    14.2240 H          1 BB1          0.0000
    15 H15       -0.9784   -17.8952    12.7692 H          1 BB1          0.0000
    16 H16        0.8930   -15.2177    10.6220 H          1 BB1          0.0000
    17 H17       -0.5143   -15.2187    11.7339 H          1 BB1          0.0000
    18 H18        2.4040   -15.9387    12.3564 H          1 BB1          0.0000
    19 H19        1.3072   -14.8500    13.2681 H          1 BB1          0.0000
    20 H20       -0.9090   -15.9411    14.1807 H          1 BB1          0.0000
    21 H21       -0.4613   -17.3627    15.1539 H          1 BB1          0.0000
    22 H22        0.4777   -15.8570    15.2936 H          1 BB1          0.0000
    23 H23        2.5908   -17.1447    14.7482 H          1 BB1          0.0000
    24 H24        1.6314   -18.6380    14.6138 H          1 BB1          0.0000
    25 H25        2.6619   -18.1173    13.2591 H          1 BB1          0.0000
    26 O1         0.4960   -16.3601    11.6857 O.2        2 BB2          0.0000
    27 C2         0.1084   -15.2492    12.0190 C.2        2 BB2          0.0000
    28 C4        -0.1003   -14.2039    10.9989 C.ar       2 BB2          0.0000
    29 C5         0.6067   -14.2472     9.7949 C.ar       2 BB2          0.0000
    30 C6         0.4070   -13.2666     8.8454 C.ar       2 BB2          0.0000
    31 C7        -0.4913   -12.2416     9.0830 C.ar       2 BB2          0.0000
    32 C8        -1.1956   -12.1914    10.2743 C.ar       2 BB2          0.0000
    33 Br9       -2.4207   -10.7854    10.5877 Br         2 BB2          0.0000
    34 C10       -1.0103   -13.1691    11.2304 C.ar       2 BB2          0.0000
    35 H11        1.3085   -15.0465     9.6080 H          2 BB2          0.0000
    36 H12        0.9533   -13.2990     7.9144 H          2 BB2          0.0000
    37 H13       -0.6436   -11.4766     8.3360 H          2 BB2          0.0000
    38 H14       -1.5600   -13.1293    12.1592 H          2 BB2          0.0000
@<TRIPOS>BOND
     1      1      2 1
     2      1     12 1
     3      1     13 1
     4      1     14 1
     5      2      3 1
     6      3      4 2
     7      3      5 1
     8      5      6 1
     9      5      9 1
    10      5     15 1
    11      6      7 1
    12      7      8 1
    13      7     16 1
    14      7     17 1
    15      8      9 1
    16      8     18 1
    17      8     19 1
    18      9     10 1
    19      9     11 1
    20     10     20 1
    21     10     21 1
    22     10     22 1
    23     11     23 1
    24     11     24 1
    25     11     25 1
    26     26     27 2
    27     27     28 1
    28     28     29 ar
    29     28     34 ar
    30     29     30 ar
    31     29     35 1
    32     30     31 ar
    33     30     36 1
    34     31     32 ar
    35     31     37 1
    36     32     33 1
    37     32     34 ar
    38     34     38 1
    39      6     27 am
@<TRIPOS>SUBSTRUCTURE
     1 BB1           6
     2 BB2          27
@<TRIPOS>MOLECULE
EN300-703997_i001_EN300-19857_i001_3_20_1
  38   39   2   0   0
SMALL
USER_CHARGES
@<TRIPOS>ATOM
     1 C1         1.2265   -21.3350    13.3071 C.3        1 BB1          0.0000
     2 O2         0.5859   -20.0388    13.4409 O.3        1 BB1          0.0000
     3 C3         0.6692   -19.2067    12.3910 C.2        1 BB1          0.0000
     4 O4         1.2258   -19.5637    11.3797 O.2        1 BB1          0.0000
     5 C5         0.0685   -17.8270    12.4736 C.3        1 BB1          0.0000
     6 N6         0.1791   -17.1502    11.1632 N.am       1 BB1          0.0000
     7 C7         0.4182   -15.7160    11.4671 C.3        1 BB1          0.0000
     8 C8         1.3782   -15.7664    12.6822 C.3        1 BB1          0.0000
     9 C9         0.8505   -16.9743    13.4898 C.3        1 BB1          0.0000
    10 C10       -0.0772   -16.4996    14.6101 C.3        1 BB1          0.0000
    11 C11        2.0176   -17.7762    14.0694 C.3        1 BB1          0.0000
    12 H12        0.7836   -21.8745    12.4699 H          1 BB1          0.0000
    13 H13        2.2926   -21.1967    13.1269 H          1 BB1          0.0000
    14 H14        1.0843   -21.9070    14.2240 H          1 BB1          0.0000
    15 H15       -0.9784   -17.8952    12.7692 H          1 BB1          0.0000
    16 H16        0.8930   -15.2177    10.6220 H          1 BB1          0.0000
    17 H17       -0.5143   -15.2187    11.7339 H          1 BB1          0.0000
    18 H18        2.4040   -15.9387    12.3564 H          1 BB1          0.0000
    19 H19        1.3072   -14.8500    13.2681 H          1 BB1          0.0000
    20 H20       -0.9090   -15.9411    14.1807 H          1 BB1          0.0000
    21 H21       -0.4613   -17.3627    15.1539 H          1 BB1          0.0000
    22 H22        0.4777   -15.8570    15.2936 H          1 BB1          0.0000
    23 H23        2.5908   -17.1447    14.7482 H          1 BB1          0.0000
    24 H24        1.6314   -18.6380    14.6138 H          1 BB1          0.0000
    25 H25        2.6619   -18.1173    13.2591 H          1 BB1          0.0000
    26 C2        -0.0612   -14.3703    11.2846 C.2        2 BB2          0.0000
    27 O3         0.9101   -15.0078    10.9027 O.2        2 BB2          0.0000
    28 C4        -0.4899   -13.1665    10.5471 C.ar       2 BB2          0.0000
    29 C5         0.2870   -12.6738     9.4958 C.ar       2 BB2          0.0000
    30 C6        -0.1195   -11.5478     8.8104 C.ar       2 BB2          0.0000
    31 C7        -1.2938   -10.9062     9.1618 C.ar       2 BB2          0.0000
    32 C8        -2.0692   -11.3882    10.2031 C.ar       2 BB2          0.0000
    33 Br9       -3.6723   -10.5028    10.6742 Br         2 BB2          0.0000
    34 C10       -1.6778   -12.5173    10.8933 C.ar       2 BB2          0.0000
    35 H11        1.2041   -13.1732     9.2205 H          2 BB2          0.0000
    36 H12        0.4805   -11.1659     7.9978 H          2 BB2          0.0000
    37 H13       -1.6071   -10.0250     8.6216 H          2 BB2          0.0000
    38 H14       -2.2830   -12.8926    11.7053 H          2 BB2          0.0000
@<TRIPOS>BOND
     1      1      2 1
     2      1     12 1
     3      1     13 1
     4      1     14 1
     5      2      3 1
     6      3      4 2
     7      3      5 1
     8      5      6 1
     9      5      9 1
    10      5     15 1
    11      6      7 1
    12      7      8 1
    13      7     16 1
    14      7     17 1
    15      8      9 1
    16      8     18 1
    17      8     19 1
    18      9     10 1
    19      9     11 1
    20     10     20 1
    21     10     21 1
    22     10     22 1
    23     11     23 1
    24     11     24 1
    25     11     25 1
    26     26     27 2
    27     26     28 1
    28     28     29 ar
    29     28     34 ar
    30     29     30 ar
    31     29     35 1
    32     30     31 ar
    33     30     36 1
    34     31     32 ar
    35     31     37 1
    36     32     33 1
    37     32     34 ar
    38     34     38 1
    39      6     26 am
@<TRIPOS>SUBSTRUCTURE
     1 BB1           6
     2 BB2          26
@<TRIPOS>MOLECULE
EN300-703997_i001_EN300-97777_i001_3_8_1
  53   53   2   0   0
SMALL
USER_CHARGES
@<TRIPOS>ATOM
     1 C1         1.2265   -21.3350    13.3071 C.3        1 BB1          0.0000
     2 O2         0.5859   -20.0388    13.4409 O.3        1 BB1          0.0000
     3 C3         0.6692   -19.2067    12.3910 C.2        1 BB1          0.0000
     4 O4         1.2258   -19.5637    11.3797 O.2        1 BB1          0.0000
     5 C5         0.0685   -17.8270    12.4736 C.3        1 BB1          0.0000
     6 N6         0.1791   -17.1502    11.1632 N.am       1 BB1          0.0000
     7 C7         0.4182   -15.7160    11.4671 C.3        1 BB1          0.0000
     8 C8         1.3782   -15.7664    12.6822 C.3        1 BB1          0.0000
     9 C9         0.8505   -16.9743    13.4898 C.3        1 BB1          0.0000
    10 C10       -0.0772   -16.4996    14.6101 C.3        1 BB1          0.0000
    11 C11        2.0176   -17.7762    14.0694 C.3        1 BB1          0.0000
    12 H12        0.7836   -21.8745    12.4699 H          1 BB1          0.0000
    13 H13        2.2926   -21.1967    13.1269 H          1 BB1          0.0000
    14 H14        1.0843   -21.9070    14.2240 H          1 BB1          0.0000
    15 H15       -0.9784   -17.8952    12.7692 H          1 BB1          0.0000
    16 H16        0.8930   -15.2177    10.6220 H          1 BB1          0.0000
    17 H17       -0.5143   -15.2187    11.7339 H          1 BB1          0.0000
    18 H18        2.4040   -15.9387    12.3564 H          1 BB1          0.0000
    19 H19        1.3072   -14.8500    13.2681 H          1 BB1          0.0000
    20 H20       -0.9090   -15.9411    14.1807 H          1 BB1          0.0000
    21 H21       -0.4613   -17.3627    15.1539 H          1 BB1          0.0000
    22 H22        0.4777   -15.8570    15.2936 H          1 BB1          0.0000
    23 H23        2.5908   -17.1447    14.7482 H          1 BB1          0.0000
    24 H24        1.6314   -18.6380    14.6138 H          1 BB1          0.0000
    25 H25        2.6619   -18.1173    13.2591 H          1 BB1          0.0000
    26 C1        -1.8238   -10.7306     9.0157 C.3        2 BB2          0.0000
    27 C2        -1.8143   -10.8225    10.5429 C.3        2 BB2          0.0000
    28 C3        -0.6982    -9.9367    11.1002 C.3        2 BB2          0.0000
    29 C4        -3.1623   -10.3495    11.0907 C.3        2 BB2          0.0000
    30 O5        -1.5852   -12.1992    10.9435 O.3        2 BB2          0.0000
    31 C6        -0.4439   -12.7765    10.5227 C.2        2 BB2          0.0000
    32 O7         0.3377   -12.1479     9.8369 O.2        2 BB2          0.0000
    33 N8        -0.1686   -14.0514    10.8621 N.am       2 BB2          0.0000
    34 C9         1.0732   -14.6795    10.4043 C.3        2 BB2          0.0000
    35 C10        1.1107   -14.6769     8.9327 C.1        2 BB2          0.0000
    36 C11        1.1408   -14.6748     7.7592 C.1        2 BB2          0.0000
    37 C12       -1.1112   -14.8091    11.6891 C.3        2 BB2          0.0000
    38 C13       -0.3637   -15.8619    12.4662 C.2        2 BB2          0.0000
    39 O14       -0.8290   -16.9834    12.5766 O.2        2 BB2          0.0000
    40 H16       -0.8635   -11.0675     8.6255 H          2 BB2          0.0000
    41 H17       -2.6190   -11.3616     8.6187 H          2 BB2          0.0000
    42 H18       -1.9957    -9.6971     8.7149 H          2 BB2          0.0000
    43 H19       -0.8702    -8.9032    10.7994 H          2 BB2          0.0000
    44 H20       -0.6914   -10.0022    12.1882 H          2 BB2          0.0000
    45 H21        0.2622   -10.2736    10.7099 H          2 BB2          0.0000
    46 H22       -3.9575   -10.9806    10.6936 H          2 BB2          0.0000
    47 H23       -3.1556   -10.4150    12.1787 H          2 BB2          0.0000
    48 H24       -3.3342    -9.3160    10.7899 H          2 BB2          0.0000
    49 H25        1.9262   -14.1218    10.7905 H          2 BB2          0.0000
    50 H26        1.1161   -15.7064    10.7669 H          2 BB2          0.0000
    51 H27        1.1676   -14.6729     6.7094 H          2 BB2          0.0000
    52 H28       -1.6115   -14.1327    12.3822 H          2 BB2          0.0000
    53 H29       -1.8526   -15.2876    11.0493 H          2 BB2          0.0000
@<TRIPOS>BOND
     1      1      2 1
     2      1     12 1
     3      1     13 1
     4      1     14 1
     5      2      3 1
     6      3      4 2
     7      3      5 1
     8      5      6 1
     9      5      9 1
    10      5     15 1
    11      6      7 1
    12      7      8 1
    13      7     16 1
    14      7     17 1
    15      8      9 1
    16      8     18 1
    17      8     19 1
    18      9     10 1
    19      9     11 1
    20     10     20 1
    21     10     21 1
    22     10     22 1
    23     11     23 1
    24     11     24 1
    25     11     25 1
    26     26     27 1
    27     26     40 1
    28     26     41 1
    29     26     42 1
    30     27     28 1
    31     27     29 1
    32     27     30 1
    33     28     43 1
    34     28     44 1
    35     28     45 1
    36     29     46 1
    37     29     47 1
    38     29     48 1
    39     30     31 1
    40     31     32 2
    41     31     33 am
    42     33     34 1
    43     33     37 1
    44     34     35 1
    45     34     49 1
    46     34     50 1
    47     35     36 3
    48     36     51 1
    49     37     38 1
    50     37     52 1
    51     37     53 1
    52     38     39 2
    53      6     38 am
@<TRIPOS>SUBSTRUCTURE
     1 BB1           6
     2 BB2          38
@<TRIPOS>MOLECULE
EN300-703997_i001_EN300-222254_i002_3_4_1
  48   50   2   0   0
SMALL
USER_CHARGES
@<TRIPOS>ATOM
     1 C1         1.2265   -21.3350    13.3071 C.3        1 BB1          0.0000
     2 O2         0.5859   -20.0388    13.4409 O.3        1 BB1          0.0000
     3 C3         0.6692   -19.2067    12.3910 C.2        1 BB1          0.0000
     4 O4         1.2258   -19.5637    11.3797 O.2        1 BB1          0.0000
     5 C5         0.0685   -17.8270    12.4736 C.3        1 BB1          0.0000
     6 N6         0.1791   -17.1502    11.1632 N.am       1 BB1          0.0000
     7 C7         0.4182   -15.7160    11.4671 C.3        1 BB1          0.0000
     8 C8         1.3782   -15.7664    12.6822 C.3        1 BB1          0.0000
     9 C9         0.8505   -16.9743    13.4898 C.3        1 BB1          0.0000
    10 C10       -0.0772   -16.4996    14.6101 C.3        1 BB1          0.0000
    11 C11        2.0176   -17.7762    14.0694 C.3        1 BB1          0.0000
    12 H12        0.7836   -21.8745    12.4699 H          1 BB1          0.0000
    13 H13        2.2926   -21.1967    13.1269 H          1 BB1          0.0000
    14 H14        1.0843   -21.9070    14.2240 H          1 BB1          0.0000
    15 H15       -0.9784   -17.8952    12.7692 H          1 BB1          0.0000
    16 H16        0.8930   -15.2177    10.6220 H          1 BB1          0.0000
    17 H17       -0.5143   -15.2187    11.7339 H          1 BB1          0.0000
    18 H18        2.4040   -15.9387    12.3564 H          1 BB1          0.0000
    19 H19        1.3072   -14.8500    13.2681 H          1 BB1          0.0000
    20 H20       -0.9090   -15.9411    14.1807 H          1 BB1          0.0000
    21 H21       -0.4613   -17.3627    15.1539 H          1 BB1          0.0000
    22 H22        0.4777   -15.8570    15.2936 H          1 BB1          0.0000
    23 H23        2.5908   -17.1447    14.7482 H          1 BB1          0.0000
    24 H24        1.6314   -18.6380    14.6138 H          1 BB1          0.0000
    25 H25        2.6619   -18.1173    13.2591 H          1 BB1          0.0000
    26 C2         0.8004   -14.8911    10.7774 C.2        2 BB2          0.0000
    27 O3         0.0117   -15.5813    11.4007 O.2        2 BB2          0.0000
    28 C4         0.3644   -14.2102     9.5059 C.3        2 BB2          0.0000
    29 C5         1.4242   -14.2481     8.3921 C.3        2 BB2          0.0000
    30 C6         1.0198   -12.8008     8.0660 C.3        2 BB2          0.0000
    31 C7         0.5555   -12.6843     9.5274 C.3        2 BB2          0.0000
    32 C8        -0.7309   -11.9171     9.6928 C.ar       2 BB2          0.0000
    33 C9        -1.9103   -12.4281     9.1855 C.ar       2 BB2          0.0000
    34 C10       -3.0908   -11.7247     9.3363 C.ar       2 BB2          0.0000
    35 C11       -3.0929   -10.5086     9.9959 C.ar       2 BB2          0.0000
    36 Cl12      -4.5761    -9.6265    10.1853 Cl         2 BB2          0.0000
    37 C13       -1.9132    -9.9958    10.5049 C.ar       2 BB2          0.0000
    38 C14       -0.7321   -10.7026    10.3583 C.ar       2 BB2          0.0000
    39 F15        0.4206   -10.2031    10.8554 F          2 BB2          0.0000
    40 H16       -0.6264   -14.5228     9.1765 H          2 BB2          0.0000
    41 H17        2.4446   -14.3433     8.7634 H          2 BB2          0.0000
    42 H18        1.1950   -14.9556     7.5952 H          2 BB2          0.0000
    43 H19        1.8642   -12.1556     7.8234 H          2 BB2          0.0000
    44 H20        0.2078   -12.7268     7.3427 H          2 BB2          0.0000
    45 H21        1.3384   -12.3520    10.2091 H          2 BB2          0.0000
    46 H22       -1.9097   -13.3774     8.6703 H          2 BB2          0.0000
    47 H23       -4.0119   -12.1247     8.9388 H          2 BB2          0.0000
    48 H24       -1.9145    -9.0466    11.0198 H          2 BB2          0.0000
@<TRIPOS>BOND
     1      1      2 1
     2      1     12 1
     3      1     13 1
     4      1     14 1
     5      2      3 1
     6      3      4 2
     7      3      5 1
     8      5      6 1
     9      5      9 1
    10      5     15 1
    11      6      7 1
    12      7      8 1
    13      7     16 1
    14      7     17 1
    15      8      9 1
    16      8     18 1
    17      8     19 1
    18      9     10 1
    19      9     11 1
    20     10     20 1
    21     10     21 1
    22     10     22 1
    23     11     23 1
    24     11     24 1
    25     11     25 1
    26     26     27 2
    27     26     28 1
    28     28     29 1
    29     28     31 1
    30     28     40 1
    31     29     30 1
    32     29     41 1
    33     29     42 1
    34     30     31 1
    35     30     43 1
    36     30     44 1
    37     31     32 1
    38     31     45 1
    39     32     33 ar
    40     32     38 ar
    41     33     34 ar
    42     33     46 1
    43     34     35 ar
    44     34     47 1
    45     35     36 1
    46     35     37 ar
    47     37     38 ar
    48     37     48 1
    49     38     39 1
    50      6     26 am
@<TRIPOS>SUBSTRUCTURE
     1 BB1           6
     2 BB2          26
@<TRIPOS>MOLECULE
EN300-703997_i001_EN300-222254_i002_3_7_1
  48   50   2   0   0
SMALL
USER_CHARGES
@<TRIPOS>ATOM
     1 C1         1.2265   -21.3350    13.3071 C.3        1 BB1          0.0000
     2 O2         0.5859   -20.0388    13.4409 O.3        1 BB1          0.0000
     3 C3         0.6692   -19.2067    12.3910 C.2        1 BB1          0.0000
     4 O4         1.2258   -19.5637    11.3797 O.2        1 BB1          0.0000
     5 C5         0.0685   -17.8270    12.4736 C.3        1 BB1          0.0000
     6 N6         0.1791   -17.1502    11.1632 N.am       1 BB1          0.0000
     7 C7         0.4182   -15.7160    11.4671 C.3        1 BB1          0.0000
     8 C8         1.3782   -15.7664    12.6822 C.3        1 BB1          0.0000
     9 C9         0.8505   -16.9743    13.4898 C.3        1 BB1          0.0000
    10 C10       -0.0772   -16.4996    14.6101 C.3        1 BB1          0.0000
    11 C11        2.0176   -17.7762    14.0694 C.3        1 BB1          0.0000
    12 H12        0.7836   -21.8745    12.4699 H          1 BB1          0.0000
    13 H13        2.2926   -21.1967    13.1269 H          1 BB1          0.0000
    14 H14        1.0843   -21.9070    14.2240 H          1 BB1          0.0000
    15 H15       -0.9784   -17.8952    12.7692 H          1 BB1          0.0000
    16 H16        0.8930   -15.2177    10.6220 H          1 BB1          0.0000
    17 H17       -0.5143   -15.2187    11.7339 H          1 BB1          0.0000
    18 H18        2.4040   -15.9387    12.3564 H          1 BB1          0.0000
    19 H19        1.3072   -14.8500    13.2681 H          1 BB1          0.0000
    20 H20       -0.9090   -15.9411    14.1807 H          1 BB1          0.0000
    21 H21       -0.4613   -17.3627    15.1539 H          1 BB1          0.0000
    22 H22        0.4777   -15.8570    15.2936 H          1 BB1          0.0000
    23 H23        2.5908   -17.1447    14.7482 H          1 BB1          0.0000
    24 H24        1.6314   -18.6380    14.6138 H          1 BB1          0.0000
    25 H25        2.6619   -18.1173    13.2591 H          1 BB1          0.0000
    26 O1         1.0761   -15.2604    11.4874 O.2        2 BB2          0.0000
    27 C2         0.0691   -14.5794    11.3943 C.2        2 BB2          0.0000
    28 C4        -0.3286   -14.0010    10.0609 C.3        2 BB2          0.0000
    29 C5         0.7881   -14.0614     9.0053 C.3        2 BB2          0.0000
    30 C6         0.3404   -12.6575     8.5654 C.3        2 BB2          0.0000
    31 C7        -0.2035   -12.4698     9.9915 C.3        2 BB2          0.0000
    32 C8        -1.5280   -11.7529    10.0428 C.ar       2 BB2          0.0000
    33 C9        -2.6243   -12.2791     9.3866 C.ar       2 BB2          0.0000
    34 C10       -3.8397   -11.6218     9.4328 C.ar       2 BB2          0.0000
    35 C11       -3.9599   -10.4369    10.1366 C.ar       2 BB2          0.0000
    36 Cl12      -5.4867    -9.6127    10.1944 Cl         2 BB2          0.0000
    37 C13       -2.8635    -9.9090    10.7946 C.ar       2 BB2          0.0000
    38 C14       -1.6479   -10.5698    10.7526 C.ar       2 BB2          0.0000
    39 F15       -0.5765   -10.0555    11.3951 F          2 BB2          0.0000
    40 H16       -1.2870   -14.3786     9.7046 H          2 BB2          0.0000
    41 H17        1.7910   -14.0862     9.4316 H          2 BB2          0.0000
    42 H18        0.6306   -14.8277     8.2463 H          2 BB2          0.0000
    43 H19        1.1683   -11.9913     8.3226 H          2 BB2          0.0000
    44 H20       -0.4354   -12.6666     7.7998 H          2 BB2          0.0000
    45 H21        0.5283   -12.0595    10.6874 H          2 BB2          0.0000
    46 H22       -2.5316   -13.2041     8.8369 H          2 BB2          0.0000
    47 H23       -4.6958   -12.0336     8.9190 H          2 BB2          0.0000
    48 H24       -2.9569    -8.9840    11.3440 H          2 BB2          0.0000
@<TRIPOS>BOND
     1      1      2 1
     2      1     12 1
     3      1     13 1
     4      1     14 1
     5      2      3 1
     6      3      4 2
     7      3      5 1
     8      5      6 1
     9      5      9 1
    10      5     15 1
    11      6      7 1
    12      7      8 1
    13      7     16 1
    14      7     17 1
    15      8      9 1
    16      8     18 1
    17      8     19 1
    18      9     10 1
    19      9     11 1
    20     10     20 1
    21     10     21 1
    22     10     22 1
    23     11     23 1
    24     11     24 1
    25     11     25 1
    26     26     27 2
    27     27     28 1
    28     28     29 1
    29     28     31 1
    30     28     40 1
    31     29     30 1
    32     29     41 1
    33     29     42 1
    34     30     31 1
    35     30     43 1
    36     30     44 1
    37     31     32 1
    38     31     45 1
    39     32     33 ar
    40     32     38 ar
    41     33     34 ar
    42     33     46 1
    43     34     35 ar
    44     34     47 1
    45     35     36 1
    46     35     37 ar
    47     37     38 ar
    48     37     48 1
    49     38     39 1
    50      6     27 am
@<TRIPOS>SUBSTRUCTURE
     1 BB1           6
     2 BB2          27
@<TRIPOS>MOLECULE
EN300-703997_i001_EN300-306118_i001_3_10_1
  47   49   2   0   0
SMALL
USER_CHARGES
@<TRIPOS>ATOM
     1 C1         1.2265   -21.3350    13.3071 C.3        1 BB1          0.0000
     2 O2         0.5859   -20.0388    13.4409 O.3        1 BB1          0.0000
     3 C3         0.6692   -19.2067    12.3910 C.2        1 BB1          0.0000
     4 O4         1.2258   -19.5637    11.3797 O.2        1 BB1          0.0000
     5 C5         0.0685   -17.8270    12.4736 C.3        1 BB1          0.0000
     6 N6         0.1791   -17.1502    11.1632 N.am       1 BB1          0.0000
     7 C7         0.4182   -15.7160    11.4671 C.3        1 BB1          0.0000
     8 C8         1.3782   -15.7664    12.6822 C.3        1 BB1          0.0000
     9 C9         0.8505   -16.9743    13.4898 C.3        1 BB1          0.0000
    10 C10       -0.0772   -16.4996    14.6101 C.3        1 BB1          0.0000
    11 C11        2.0176   -17.7762    14.0694 C.3        1 BB1          0.0000
    12 H12        0.7836   -21.8745    12.4699 H          1 BB1          0.0000
    13 H13        2.2926   -21.1967    13.1269 H          1 BB1          0.0000
    14 H14        1.0843   -21.9070    14.2240 H          1 BB1          0.0000
    15 H15       -0.9784   -17.8952    12.7692 H          1 BB1          0.0000
    16 H16        0.8930   -15.2177    10.6220 H          1 BB1          0.0000
    17 H17       -0.5143   -15.2187    11.7339 H          1 BB1          0.0000
    18 H18        2.4040   -15.9387    12.3564 H          1 BB1          0.0000
    19 H19        1.3072   -14.8500    13.2681 H          1 BB1          0.0000
    20 H20       -0.9090   -15.9411    14.1807 H          1 BB1          0.0000
    21 H21       -0.4613   -17.3627    15.1539 H          1 BB1          0.0000
    22 H22        0.4777   -15.8570    15.2936 H          1 BB1          0.0000
    23 H23        2.5908   -17.1447    14.7482 H          1 BB1          0.0000
    24 H24        1.6314   -18.6380    14.6138 H          1 BB1          0.0000
    25 H25        2.6619   -18.1173    13.2591 H          1 BB1          0.0000
    26 C2         0.1195   -14.4038    10.7566 C.2        2 BB2          0.0000
    27 O3         0.6856   -15.3919    11.2023 O.2        2 BB2          0.0000
    28 C4         0.4114   -13.9416     9.3863 C.ar       2 BB2          0.0000
    29 C5         0.5717   -14.8674     8.3525 C.ar       2 BB2          0.0000
    30 C6         0.8445   -14.4280     7.0737 C.ar       2 BB2          0.0000
    31 C7         0.9599   -13.0739     6.8139 C.ar       2 BB2          0.0000
    32 C8         0.8024   -12.1509     7.8331 C.ar       2 BB2          0.0000
    33 C9         0.5231   -12.5754     9.1151 C.ar       2 BB2          0.0000
    34 C10        0.3514   -11.5687    10.2234 C.3        2 BB2          0.0000
    35 N11       -1.0436   -11.1231    10.2665 N.pl3      2 BB2          0.0000
    36 C12       -1.4690    -9.8410    10.1885 C.2        2 BB2          0.0000
    37 C13       -2.8194    -9.8863    10.2682 C.2        2 BB2          0.0000
    38 N14       -3.1497   -11.1769    10.3896 N.2        2 BB2          0.0000
    39 N15       -2.0753   -11.8843    10.3797 N.2        2 BB2          0.0000
    40 H16        0.4826   -15.9247     8.5541 H          2 BB2          0.0000
    41 H17        0.9688   -15.1425     6.2735 H          2 BB2          0.0000
    42 H18        1.1744   -12.7356     5.8108 H          2 BB2          0.0000
    43 H19        0.8941   -11.0955     7.6231 H          2 BB2          0.0000
    44 H20        0.6156   -12.0283    11.1758 H          2 BB2          0.0000
    45 H21        1.0008   -10.7127    10.0405 H          2 BB2          0.0000
    46 H22       -0.8546    -8.9590    10.0839 H          2 BB2          0.0000
    47 H23       -3.4970    -9.0458    10.2398 H          2 BB2          0.0000
@<TRIPOS>BOND
     1      1      2 1
     2      1     12 1
     3      1     13 1
     4      1     14 1
     5      2      3 1
     6      3      4 2
     7      3      5 1
     8      5      6 1
     9      5      9 1
    10      5     15 1
    11      6      7 1
    12      7      8 1
    13      7     16 1
    14      7     17 1
    15      8      9 1
    16      8     18 1
    17      8     19 1
    18      9     10 1
    19      9     11 1
    20     10     20 1
    21     10     21 1
    22     10     22 1
    23     11     23 1
    24     11     24 1
    25     11     25 1
    26     26     27 2
    27     26     28 1
    28     28     29 ar
    29     28     33 ar
    30     29     30 ar
    31     29     40 1
    32     30     31 ar
    33     30     41 1
    34     31     32 ar
    35     31     42 1
    36     32     33 ar
    37     32     43 1
    38     33     34 1
    39     34     35 1
    40     34     44 1
    41     34     45 1
    42     35     36 1
    43     35     39 1
    44     36     37 2
    45     36     46 1
    46     37     38 1
    47     37     47 1
    48     38     39 2
    49      6     26 am
@<TRIPOS>SUBSTRUCTURE
     1 BB1           6
     2 BB2          26
@<TRIPOS>MOLECULE
EN300-703997_i001_EN300-306118_i001_3_13_1
  47   49   2   0   0
SMALL
USER_CHARGES
@<TRIPOS>ATOM
     1 C1         1.2265   -21.3350    13.3071 C.3        1 BB1          0.0000
     2 O2         0.5859   -20.0388    13.4409 O.3        1 BB1          0.0000
     3 C3         0.6692   -19.2067    12.3910 C.2        1 BB1          0.0000
     4 O4         1.2258   -19.5637    11.3797 O.2        1 BB1          0.0000
     5 C5         0.0685   -17.8270    12.4736 C.3        1 BB1          0.0000
     6 N6         0.1791   -17.1502    11.1632 N.am       1 BB1          0.0000
     7 C7         0.4182   -15.7160    11.4671 C.3        1 BB1          0.0000
     8 C8         1.3782   -15.7664    12.6822 C.3        1 BB1          0.0000
     9 C9         0.8505   -16.9743    13.4898 C.3        1 BB1          0.0000
    10 C10       -0.0772   -16.4996    14.6101 C.3        1 BB1          0.0000
    11 C11        2.0176   -17.7762    14.0694 C.3        1 BB1          0.0000
    12 H12        0.7836   -21.8745    12.4699 H          1 BB1          0.0000
    13 H13        2.2926   -21.1967    13.1269 H          1 BB1          0.0000
    14 H14        1.0843   -21.9070    14.2240 H          1 BB1          0.0000
    15 H15       -0.9784   -17.8952    12.7692 H          1 BB1          0.0000
    16 H16        0.8930   -15.2177    10.6220 H          1 BB1          0.0000
    17 H17       -0.5143   -15.2187    11.7339 H          1 BB1          0.0000
    18 H18        2.4040   -15.9387    12.3564 H          1 BB1          0.0000
    19 H19        1.3072   -14.8500    13.2681 H          1 BB1          0.0000
    20 H20       -0.9090   -15.9411    14.1807 H          1 BB1          0.0000
    21 H21       -0.4613   -17.3627    15.1539 H          1 BB1          0.0000
    22 H22        0.4777   -15.8570    15.2936 H          1 BB1          0.0000
    23 H23        2.5908   -17.1447    14.7482 H          1 BB1          0.0000
    24 H24        1.6314   -18.6380    14.6138 H          1 BB1          0.0000
    25 H25        2.6619   -18.1173    13.2591 H          1 BB1          0.0000
    26 O1        -0.3061   -15.6175    10.8075 O.2        2 BB2          0.0000
    27 C2        -0.2542   -14.4147    11.0220 C.2        2 BB2          0.0000
    28 C4        -0.0888   -13.4717     9.8995 C.ar       2 BB2          0.0000
    29 C5         0.7755   -13.7793     8.8460 C.ar       2 BB2          0.0000
    30 C6         0.9252   -12.8927     7.7999 C.ar       2 BB2          0.0000
    31 C7         0.2221   -11.7011     7.7926 C.ar       2 BB2          0.0000
    32 C8        -0.6359   -11.3897     8.8329 C.ar       2 BB2          0.0000
    33 C9        -0.8003   -12.2692     9.8823 C.ar       2 BB2          0.0000
    34 C10       -1.7356   -11.9285    11.0138 C.3        2 BB2          0.0000
    35 N11       -2.8881   -11.1914    10.4898 N.pl3      2 BB2          0.0000
    36 C12       -3.9824   -11.7380     9.9113 C.2        2 BB2          0.0000
    37 C13       -4.7891   -10.7036     9.5780 C.2        2 BB2          0.0000
    38 N14       -4.1572    -9.5894     9.9637 N.2        2 BB2          0.0000
    39 N15       -3.0361    -9.9129    10.5053 N.2        2 BB2          0.0000
    40 H16        1.3254   -14.7088     8.8509 H          2 BB2          0.0000
    41 H17        1.5931   -13.1291     6.9848 H          2 BB2          0.0000
    42 H18        0.3438   -11.0104     6.9712 H          2 BB2          0.0000
    43 H19       -1.1813   -10.4576     8.8207 H          2 BB2          0.0000
    44 H20       -2.0780   -12.8466    11.4912 H          2 BB2          0.0000
    45 H21       -1.2121   -11.3124    11.7448 H          2 BB2          0.0000
    46 H22       -4.1735   -12.7883     9.7481 H          2 BB2          0.0000
    47 H23       -5.7532   -10.7654     9.0952 H          2 BB2          0.0000
@<TRIPOS>BOND
     1      1      2 1
     2      1     12 1
     3      1     13 1
     4      1     14 1
     5      2      3 1
     6      3      4 2
     7      3      5 1
     8      5      6 1
     9      5      9 1
    10      5     15 1
    11      6      7 1
    12      7      8 1
    13      7     16 1
    14      7     17 1
    15      8      9 1
    16      8     18 1
    17      8     19 1
    18      9     10 1
    19      9     11 1
    20     10     20 1
    21     10     21 1
    22     10     22 1
    23     11     23 1
    24     11     24 1
    25     11     25 1
    26     26     27 2
    27     27     28 1
    28     28     29 ar
    29     28     33 ar
    30     29     30 ar
    31     29     40 1
    32     30     31 ar
    33     30     41 1
    34     31     32 ar
    35     31     42 1
    36     32     33 ar
    37     32     43 1
    38     33     34 1
    39     34     35 1
    40     34     44 1
    41     34     45 1
    42     35     36 1
    43     35     39 1
    44     36     37 2
    45     36     46 1
    46     37     38 1
    47     37     47 1
    48     38     39 2
    49      6     27 am
@<TRIPOS>SUBSTRUCTURE
     1 BB1           6
     2 BB2          27
@<TRIPOS>MOLECULE
EN300-703997_i001_EN300-306118_i001_3_2_1
  47   49   2   0   0
SMALL
USER_CHARGES
@<TRIPOS>ATOM
     1 C1         1.2265   -21.3350    13.3071 C.3        1 BB1          0.0000
     2 O2         0.5859   -20.0388    13.4409 O.3        1 BB1          0.0000
     3 C3         0.6692   -19.2067    12.3910 C.2        1 BB1          0.0000
     4 O4         1.2258   -19.5637    11.3797 O.2        1 BB1          0.0000
     5 C5         0.0685   -17.8270    12.4736 C.3        1 BB1          0.0000
     6 N6         0.1791   -17.1502    11.1632 N.am       1 BB1          0.0000
     7 C7         0.4182   -15.7160    11.4671 C.3        1 BB1          0.0000
     8 C8         1.3782   -15.7664    12.6822 C.3        1 BB1          0.0000
     9 C9         0.8505   -16.9743    13.4898 C.3        1 BB1          0.0000
    10 C10       -0.0772   -16.4996    14.6101 C.3        1 BB1          0.0000
    11 C11        2.0176   -17.7762    14.0694 C.3        1 BB1          0.0000
    12 H12        0.7836   -21.8745    12.4699 H          1 BB1          0.0000
    13 H13        2.2926   -21.1967    13.1269 H          1 BB1          0.0000
    14 H14        1.0843   -21.9070    14.2240 H          1 BB1          0.0000
    15 H15       -0.9784   -17.8952    12.7692 H          1 BB1          0.0000
    16 H16        0.8930   -15.2177    10.6220 H          1 BB1          0.0000
    17 H17       -0.5143   -15.2187    11.7339 H          1 BB1          0.0000
    18 H18        2.4040   -15.9387    12.3564 H          1 BB1          0.0000
    19 H19        1.3072   -14.8500    13.2681 H          1 BB1          0.0000
    20 H20       -0.9090   -15.9411    14.1807 H          1 BB1          0.0000
    21 H21       -0.4613   -17.3627    15.1539 H          1 BB1          0.0000
    22 H22        0.4777   -15.8570    15.2936 H          1 BB1          0.0000
    23 H23        2.5908   -17.1447    14.7482 H          1 BB1          0.0000
    24 H24        1.6314   -18.6380    14.6138 H          1 BB1          0.0000
    25 H25        2.6619   -18.1173    13.2591 H          1 BB1          0.0000
    26 O1        -0.3996   -15.0968    11.7939 O.2        2 BB2          0.0000
    27 C2         0.6326   -14.8679    11.1794 C.2        2 BB2          0.0000
    28 C4         0.5817   -14.1401     9.8971 C.ar       2 BB2          0.0000
    29 C5         1.3893   -14.5408     8.8300 C.ar       2 BB2          0.0000
    30 C6         1.3364   -13.8555     7.6340 C.ar       2 BB2          0.0000
    31 C7         0.4864   -12.7733     7.4900 C.ar       2 BB2          0.0000
    32 C8        -0.3166   -12.3706     8.5429 C.ar       2 BB2          0.0000
    33 C9        -0.2789   -13.0501     9.7423 C.ar       2 BB2          0.0000
    34 C10       -1.1546   -12.6104    10.8873 C.3        2 BB2          0.0000
    35 N11       -2.0673   -11.5601    10.4288 N.pl3      2 BB2          0.0000
    36 C12       -1.7295   -10.2775    10.1613 C.2        2 BB2          0.0000
    37 C13       -2.8693    -9.6610     9.7705 C.2        2 BB2          0.0000
    38 N14       -3.8360   -10.5845     9.8175 N.2        2 BB2          0.0000
    39 N15       -3.3272   -11.7003    10.2060 N.2        2 BB2          0.0000
    40 H16        2.0538   -15.3849     8.9414 H          2 BB2          0.0000
    41 H17        1.9603   -14.1641     6.8083 H          2 BB2          0.0000
    42 H18        0.4497   -12.2400     6.5515 H          2 BB2          0.0000
    43 H19       -0.9775   -11.5248     8.4234 H          2 BB2          0.0000
    44 H20       -1.7320   -13.4605    11.2504 H          2 BB2          0.0000
    45 H21       -0.5313   -12.2235    11.6935 H          2 BB2          0.0000
    46 H22       -0.7479    -9.8347    10.2433 H          2 BB2          0.0000
    47 H23       -2.9773    -8.6269     9.4786 H          2 BB2          0.0000
@<TRIPOS>BOND
     1      1      2 1
     2      1     12 1
     3      1     13 1
     4      1     14 1
     5      2      3 1
     6      3      4 2
     7      3      5 1
     8      5      6 1
     9      5      9 1
    10      5     15 1
    11      6      7 1
    12      7      8 1
    13      7     16 1
    14      7     17 1
    15      8      9 1
    16      8     18 1
    17      8     19 1
    18      9     10 1
    19      9     11 1
    20     10     20 1
    21     10     21 1
    22     10     22 1
    23     11     23 1
    24     11     24 1
    25     11     25 1
    26     26     27 2
    27     27     28 1
    28     28     29 ar
    29     28     33 ar
    30     29     30 ar
    31     29     40 1
    32     30     31 ar
    33     30     41 1
    34     31     32 ar
    35     31     42 1
    36     32     33 ar
    37     32     43 1
    38     33     34 1
    39     34     35 1
    40     34     44 1
    41     34     45 1
    42     35     36 1
    43     35     39 1
    44     36     37 2
    45     36     46 1
    46     37     38 1
    47     37     47 1
    48     38     39 2
    49      6     27 am
@<TRIPOS>SUBSTRUCTURE
     1 BB1           6
     2 BB2          27
@<TRIPOS>MOLECULE
EN300-703997_i001_EN300-306118_i001_3_4_1
  47   49   2   0   0
SMALL
USER_CHARGES
@<TRIPOS>ATOM
     1 C1         1.2265   -21.3350    13.3071 C.3        1 BB1          0.0000
     2 O2         0.5859   -20.0388    13.4409 O.3        1 BB1          0.0000
     3 C3         0.6692   -19.2067    12.3910 C.2        1 BB1          0.0000
     4 O4         1.2258   -19.5637    11.3797 O.2        1 BB1          0.0000
     5 C5         0.0685   -17.8270    12.4736 C.3        1 BB1          0.0000
     6 N6         0.1791   -17.1502    11.1632 N.am       1 BB1          0.0000
     7 C7         0.4182   -15.7160    11.4671 C.3        1 BB1          0.0000
     8 C8         1.3782   -15.7664    12.6822 C.3        1 BB1          0.0000
     9 C9         0.8505   -16.9743    13.4898 C.3        1 BB1          0.0000
    10 C10       -0.0772   -16.4996    14.6101 C.3        1 BB1          0.0000
    11 C11        2.0176   -17.7762    14.0694 C.3        1 BB1          0.0000
    12 H12        0.7836   -21.8745    12.4699 H          1 BB1          0.0000
    13 H13        2.2926   -21.1967    13.1269 H          1 BB1          0.0000
    14 H14        1.0843   -21.9070    14.2240 H          1 BB1          0.0000
    15 H15       -0.9784   -17.8952    12.7692 H          1 BB1          0.0000
    16 H16        0.8930   -15.2177    10.6220 H          1 BB1          0.0000
    17 H17       -0.5143   -15.2187    11.7339 H          1 BB1          0.0000
    18 H18        2.4040   -15.9387    12.3564 H          1 BB1          0.0000
    19 H19        1.3072   -14.8500    13.2681 H          1 BB1          0.0000
    20 H20       -0.9090   -15.9411    14.1807 H          1 BB1          0.0000
    21 H21       -0.4613   -17.3627    15.1539 H          1 BB1          0.0000
    22 H22        0.4777   -15.8570    15.2936 H          1 BB1          0.0000
    23 H23        2.5908   -17.1447    14.7482 H          1 BB1          0.0000
    24 H24        1.6314   -18.6380    14.6138 H          1 BB1          0.0000
    25 H25        2.6619   -18.1173    13.2591 H          1 BB1          0.0000
    26 C2         0.0232   -14.5029    10.8440 C.2        2 BB2          0.0000
    27 O3         0.5964   -15.4713    11.3227 O.2        2 BB2          0.0000
    28 C4         0.1943   -14.1761     9.4156 C.ar       2 BB2          0.0000
    29 C5         0.2000   -15.1937     8.4585 C.ar       2 BB2          0.0000
    30 C6         0.3606   -14.8807     7.1247 C.ar       2 BB2          0.0000
    31 C7         0.5162   -13.5625     6.7340 C.ar       2 BB2          0.0000
    32 C8         0.5116   -12.5491     7.6766 C.ar       2 BB2          0.0000
    33 C9         0.3458   -12.8466     9.0128 C.ar       2 BB2          0.0000
    34 C10        0.3405   -11.7416    10.0376 C.3        2 BB2          0.0000
    35 N11       -0.8775   -10.9417     9.8869 N.pl3      2 BB2          0.0000
    36 C12       -1.9601   -10.9853    10.6975 C.2        2 BB2          0.0000
    37 C13       -2.8435   -10.0913    10.1954 C.2        2 BB2          0.0000
    38 N14       -2.2659    -9.5516     9.1162 N.2        2 BB2          0.0000
    39 N15       -1.0997   -10.0726     8.9638 N.2        2 BB2          0.0000
    40 H16        0.0794   -16.2231     8.7623 H          2 BB2          0.0000
    41 H17        0.3653   -15.6663     6.3837 H          2 BB2          0.0000
    42 H18        0.6423   -13.3234     5.6883 H          2 BB2          0.0000
    43 H19        0.6339   -11.5225     7.3644 H          2 BB2          0.0000
    44 H20        0.3700   -12.1736    11.0379 H          2 BB2          0.0000
    45 H21        1.2134   -11.1056     9.8906 H          2 BB2          0.0000
    46 H22       -2.0926   -11.6083    11.5697 H          2 BB2          0.0000
    47 H23       -3.8224    -9.8595    10.5883 H          2 BB2          0.0000
@<TRIPOS>BOND
     1      1      2 1
     2      1     12 1
     3      1     13 1
     4      1     14 1
     5      2      3 1
     6      3      4 2
     7      3      5 1
     8      5      6 1
     9      5      9 1
    10      5     15 1
    11      6      7 1
    12      7      8 1
    13      7     16 1
    14      7     17 1
    15      8      9 1
    16      8     18 1
    17      8     19 1
    18      9     10 1
    19      9     11 1
    20     10     20 1
    21     10     21 1
    22     10     22 1
    23     11     23 1
    24     11     24 1
    25     11     25 1
    26     26     27 2
    27     26     28 1
    28     28     29 ar
    29     28     33 ar
    30     29     30 ar
    31     29     40 1
    32     30     31 ar
    33     30     41 1
    34     31     32 ar
    35     31     42 1
    36     32     33 ar
    37     32     43 1
    38     33     34 1
    39     34     35 1
    40     34     44 1
    41     34     45 1
    42     35     36 1
    43     35     39 1
    44     36     37 2
    45     36     46 1
    46     37     38 1
    47     37     47 1
    48     38     39 2
    49      6     26 am
@<TRIPOS>SUBSTRUCTURE
     1 BB1           6
     2 BB2          26
@<TRIPOS>MOLECULE
EN300-703997_i001_EN300-306118_i001_3_7_1
  47   49   2   0   0
SMALL
USER_CHARGES
@<TRIPOS>ATOM
     1 C1         1.2265   -21.3350    13.3071 C.3        1 BB1          0.0000
     2 O2         0.5859   -20.0388    13.4409 O.3        1 BB1          0.0000
     3 C3         0.6692   -19.2067    12.3910 C.2        1 BB1          0.0000
     4 O4         1.2258   -19.5637    11.3797 O.2        1 BB1          0.0000
     5 C5         0.0685   -17.8270    12.4736 C.3        1 BB1          0.0000
     6 N6         0.1791   -17.1502    11.1632 N.am       1 BB1          0.0000
     7 C7         0.4182   -15.7160    11.4671 C.3        1 BB1          0.0000
     8 C8         1.3782   -15.7664    12.6822 C.3        1 BB1          0.0000
     9 C9         0.8505   -16.9743    13.4898 C.3        1 BB1          0.0000
    10 C10       -0.0772   -16.4996    14.6101 C.3        1 BB1          0.0000
    11 C11        2.0176   -17.7762    14.0694 C.3        1 BB1          0.0000
    12 H12        0.7836   -21.8745    12.4699 H          1 BB1          0.0000
    13 H13        2.2926   -21.1967    13.1269 H          1 BB1          0.0000
    14 H14        1.0843   -21.9070    14.2240 H          1 BB1          0.0000
    15 H15       -0.9784   -17.8952    12.7692 H          1 BB1          0.0000
    16 H16        0.8930   -15.2177    10.6220 H          1 BB1          0.0000
    17 H17       -0.5143   -15.2187    11.7339 H          1 BB1          0.0000
    18 H18        2.4040   -15.9387    12.3564 H          1 BB1          0.0000
    19 H19        1.3072   -14.8500    13.2681 H          1 BB1          0.0000
    20 H20       -0.9090   -15.9411    14.1807 H          1 BB1          0.0000
    21 H21       -0.4613   -17.3627    15.1539 H          1 BB1          0.0000
    22 H22        0.4777   -15.8570    15.2936 H          1 BB1          0.0000
    23 H23        2.5908   -17.1447    14.7482 H          1 BB1          0.0000
    24 H24        1.6314   -18.6380    14.6138 H          1 BB1          0.0000
    25 H25        2.6619   -18.1173    13.2591 H          1 BB1          0.0000
    26 C2         0.3107   -14.7692    11.2595 C.2        2 BB2          0.0000
    27 O3         1.3333   -15.2930    11.6783 O.2        2 BB2          0.0000
    28 C4         0.2910   -14.1590     9.9165 C.ar       2 BB2          0.0000
    29 C5         0.9400   -14.7869     8.8506 C.ar       2 BB2          0.0000
    30 C6         0.9175   -14.2104     7.5976 C.ar       2 BB2          0.0000
    31 C7         0.2545   -13.0130     7.3953 C.ar       2 BB2          0.0000
    32 C8        -0.3907   -12.3851     8.4465 C.ar       2 BB2          0.0000
    33 C9        -0.3818   -12.9530     9.7032 C.ar       2 BB2          0.0000
    34 C10       -1.0854   -12.2680    10.8464 C.3        2 BB2          0.0000
    35 N11       -1.9001   -11.1660    10.3286 N.pl3      2 BB2          0.0000
    36 C12       -3.2480   -11.0736    10.4030 C.2        2 BB2          0.0000
    37 C13       -3.5794    -9.9055     9.8051 C.2        2 BB2          0.0000
    38 N14       -2.4331    -9.3478     9.3992 N.2        2 BB2          0.0000
    39 N15       -1.4563   -10.1169     9.7294 N.2        2 BB2          0.0000
    40 H16        1.4585   -15.7213     9.0074 H          2 BB2          0.0000
    41 H17        1.4188   -14.6947     6.7727 H          2 BB2          0.0000
    42 H18        0.2408   -12.5658     6.4122 H          2 BB2          0.0000
    43 H19       -0.9059   -11.4505     8.2813 H          2 BB2          0.0000
    44 H20       -1.7270   -12.9843    11.3596 H          2 BB2          0.0000
    45 H21       -0.3465   -11.8763    11.5454 H          2 BB2          0.0000
    46 H22       -3.9235   -11.7882    10.8496 H          2 BB2          0.0000
    47 H23       -4.5737    -9.5029     9.6797 H          2 BB2          0.0000
@<TRIPOS>BOND
     1      1      2 1
     2      1     12 1
     3      1     13 1
     4      1     14 1
     5      2      3 1
     6      3      4 2
     7      3      5 1
     8      5      6 1
     9      5      9 1
    10      5     15 1
    11      6      7 1
    12      7      8 1
    13      7     16 1
    14      7     17 1
    15      8      9 1
    16      8     18 1
    17      8     19 1
    18      9     10 1
    19      9     11 1
    20     10     20 1
    21     10     21 1
    22     10     22 1
    23     11     23 1
    24     11     24 1
    25     11     25 1
    26     26     27 2
    27     26     28 1
    28     28     29 ar
    29     28     33 ar
    30     29     30 ar
    31     29     40 1
    32     30     31 ar
    33     30     41 1
    34     31     32 ar
    35     31     42 1
    36     32     33 ar
    37     32     43 1
    38     33     34 1
    39     34     35 1
    40     34     44 1
    41     34     45 1
    42     35     36 1
    43     35     39 1
    44     36     37 2
    45     36     46 1
    46     37     38 1
    47     37     47 1
    48     38     39 2
    49      6     26 am
@<TRIPOS>SUBSTRUCTURE
     1 BB1           6
     2 BB2          26
@<TRIPOS>MOLECULE
EN300-703997_i001_EN300-315786_i001_3_12_1
  53   55   2   0   0
SMALL
USER_CHARGES
@<TRIPOS>ATOM
     1 C1         1.2265   -21.3350    13.3071 C.3        1 BB1          0.0000
     2 O2         0.5859   -20.0388    13.4409 O.3        1 BB1          0.0000
     3 C3         0.6692   -19.2067    12.3910 C.2        1 BB1          0.0000
     4 O4         1.2258   -19.5637    11.3797 O.2        1 BB1          0.0000
     5 C5         0.0685   -17.8270    12.4736 C.3        1 BB1          0.0000
     6 N6         0.1791   -17.1502    11.1632 N.am       1 BB1          0.0000
     7 C7         0.4182   -15.7160    11.4671 C.3        1 BB1          0.0000
     8 C8         1.3782   -15.7664    12.6822 C.3        1 BB1          0.0000
     9 C9         0.8505   -16.9743    13.4898 C.3        1 BB1          0.0000
    10 C10       -0.0772   -16.4996    14.6101 C.3        1 BB1          0.0000
    11 C11        2.0176   -17.7762    14.0694 C.3        1 BB1          0.0000
    12 H12        0.7836   -21.8745    12.4699 H          1 BB1          0.0000
    13 H13        2.2926   -21.1967    13.1269 H          1 BB1          0.0000
    14 H14        1.0843   -21.9070    14.2240 H          1 BB1          0.0000
    15 H15       -0.9784   -17.8952    12.7692 H          1 BB1          0.0000
    16 H16        0.8930   -15.2177    10.6220 H          1 BB1          0.0000
    17 H17       -0.5143   -15.2187    11.7339 H          1 BB1          0.0000
    18 H18        2.4040   -15.9387    12.3564 H          1 BB1          0.0000
    19 H19        1.3072   -14.8500    13.2681 H          1 BB1          0.0000
    20 H20       -0.9090   -15.9411    14.1807 H          1 BB1          0.0000
    21 H21       -0.4613   -17.3627    15.1539 H          1 BB1          0.0000
    22 H22        0.4777   -15.8570    15.2936 H          1 BB1          0.0000
    23 H23        2.5908   -17.1447    14.7482 H          1 BB1          0.0000
    24 H24        1.6314   -18.6380    14.6138 H          1 BB1          0.0000
    25 H25        2.6619   -18.1173    13.2591 H          1 BB1          0.0000
    26 C2        -0.6251   -18.1724     9.2095 C.2        2 BB2          0.0000
    27 O3        -0.0733   -18.9094    10.0140 O.2        2 BB2          0.0000
    28 C4        -0.4147   -16.7114     9.2806 C.ar       2 BB2          0.0000
    29 C5        -0.2275   -16.0918    10.5182 C.ar       2 BB2          0.0000
    30 C6        -0.0313   -14.7292    10.5836 C.ar       2 BB2          0.0000
    31 C7        -0.0197   -13.9686     9.4139 C.ar       2 BB2          0.0000
    32 C8        -0.2067   -14.5870     8.1770 C.ar       2 BB2          0.0000
    33 C9        -0.3973   -15.9503     8.1096 C.ar       2 BB2          0.0000
    34 C10        0.1906   -12.5044     9.4851 C.2        2 BB2          0.0000
    35 O11        1.1512   -12.0012     8.9367 O.2        2 BB2          0.0000
    36 N12       -0.6833   -11.7300    10.1581 N.am       2 BB2          0.0000
    37 C13       -0.5419   -10.2653    10.1734 C.3        2 BB2          0.0000
    38 C14       -1.8912    -9.6453     9.7929 C.3        2 BB2          0.0000
    39 O15       -2.9134   -10.1931    10.6287 O.3        2 BB2          0.0000
    40 C16       -3.0951   -11.6037    10.4829 C.3        2 BB2          0.0000
    41 C17       -1.8107   -12.3237    10.8942 C.3        2 BB2          0.0000
    42 H18       -0.2367   -16.6803    11.4237 H          2 BB2          0.0000
    43 H19        0.1132   -14.2499    11.5407 H          2 BB2          0.0000
    44 H20       -0.1981   -13.9976     7.2720 H          2 BB2          0.0000
    45 H21       -0.5417   -16.4288     7.1522 H          2 BB2          0.0000
    46 H22       -0.2543    -9.9348    11.1715 H          2 BB2          0.0000
    47 H23        0.2177    -9.9623     9.4528 H          2 BB2          0.0000
    48 H24       -1.8475    -8.5650     9.9317 H          2 BB2          0.0000
    49 H25       -2.1141    -9.8704     8.7499 H          2 BB2          0.0000
    50 H26       -3.9176   -11.9324    11.1182 H          2 BB2          0.0000
    51 H27       -3.3224   -11.8359     9.4425 H          2 BB2          0.0000
    52 H28       -1.8908   -13.3838    10.6533 H          2 BB2          0.0000
    53 H29       -1.6480   -12.2013    11.9650 H          2 BB2          0.0000
@<TRIPOS>BOND
     1      1      2 1
     2      1     12 1
     3      1     13 1
     4      1     14 1
     5      2      3 1
     6      3      4 2
     7      3      5 1
     8      5      6 1
     9      5      9 1
    10      5     15 1
    11      6      7 1
    12      7      8 1
    13      7     16 1
    14      7     17 1
    15      8      9 1
    16      8     18 1
    17      8     19 1
    18      9     10 1
    19      9     11 1
    20     10     20 1
    21     10     21 1
    22     10     22 1
    23     11     23 1
    24     11     24 1
    25     11     25 1
    26     26     27 2
    27     26     28 1
    28     28     29 ar
    29     28     33 ar
    30     29     30 ar
    31     29     42 1
    32     30     31 ar
    33     30     43 1
    34     31     32 ar
    35     31     34 1
    36     32     33 ar
    37     32     44 1
    38     33     45 1
    39     34     35 2
    40     34     36 am
    41     36     37 1
    42     36     41 1
    43     37     38 1
    44     37     46 1
    45     37     47 1
    46     38     39 1
    47     38     48 1
    48     38     49 1
    49     39     40 1
    50     40     41 1
    51     40     50 1
    52     40     51 1
    53     41     52 1
    54     41     53 1
    55      6     26 am
@<TRIPOS>SUBSTRUCTURE
     1 BB1           6
     2 BB2          26
@<TRIPOS>MOLECULE
EN300-703997_i001_EN300-194291_i002_3_16_1
  49   51   2   0   0
SMALL
USER_CHARGES
@<TRIPOS>ATOM
     1 C1         1.2265   -21.3350    13.3071 C.3        1 BB1          0.0000
     2 O2         0.5859   -20.0388    13.4409 O.3        1 BB1          0.0000
     3 C3         0.6692   -19.2067    12.3910 C.2        1 BB1          0.0000
     4 O4         1.2258   -19.5637    11.3797 O.2        1 BB1          0.0000
     5 C5         0.0685   -17.8270    12.4736 C.3        1 BB1          0.0000
     6 N6         0.1791   -17.1502    11.1632 N.am       1 BB1          0.0000
     7 C7         0.4182   -15.7160    11.4671 C.3        1 BB1          0.0000
     8 C8         1.3782   -15.7664    12.6822 C.3        1 BB1          0.0000
     9 C9         0.8505   -16.9743    13.4898 C.3        1 BB1          0.0000
    10 C10       -0.0772   -16.4996    14.6101 C.3        1 BB1          0.0000
    11 C11        2.0176   -17.7762    14.0694 C.3        1 BB1          0.0000
    12 H12        0.7836   -21.8745    12.4699 H          1 BB1          0.0000
    13 H13        2.2926   -21.1967    13.1269 H          1 BB1          0.0000
    14 H14        1.0843   -21.9070    14.2240 H          1 BB1          0.0000
    15 H15       -0.9784   -17.8952    12.7692 H          1 BB1          0.0000
    16 H16        0.8930   -15.2177    10.6220 H          1 BB1          0.0000
    17 H17       -0.5143   -15.2187    11.7339 H          1 BB1          0.0000
    18 H18        2.4040   -15.9387    12.3564 H          1 BB1          0.0000
    19 H19        1.3072   -14.8500    13.2681 H          1 BB1          0.0000
    20 H20       -0.9090   -15.9411    14.1807 H          1 BB1          0.0000
    21 H21       -0.4613   -17.3627    15.1539 H          1 BB1          0.0000
    22 H22        0.4777   -15.8570    15.2936 H          1 BB1          0.0000
    23 H23        2.5908   -17.1447    14.7482 H          1 BB1          0.0000
    24 H24        1.6314   -18.6380    14.6138 H          1 BB1          0.0000
    25 H25        2.6619   -18.1173    13.2591 H          1 BB1          0.0000
    26 O1         0.3181   -16.2492    12.8568 O.2        2 BB2          0.0000
    27 C2         0.9864   -15.6654    12.0206 C.2        2 BB2          0.0000
    28 C4         0.3162   -15.0305    10.8295 C.3        2 BB2          0.0000
    29 C5        -0.7059   -13.9613    11.2751 C.3        2 BB2          0.0000
    30 N6        -0.6164   -12.8925    10.2732 N.am       2 BB2          0.0000
    31 C7         0.5153   -12.9905     9.5545 C.2        2 BB2          0.0000
    32 O8         0.8423   -12.2317     8.6666 O.2        2 BB2          0.0000
    33 C9         1.3218   -14.1850    10.0143 C.3        2 BB2          0.0000
    34 C10       -1.5851   -11.8982    10.0900 C.ar       2 BB2          0.0000
    35 C11       -1.1994   -10.5761     9.9146 C.ar       2 BB2          0.0000
    36 C12       -2.1559    -9.5957     9.7334 C.ar       2 BB2          0.0000
    37 C13       -3.4988    -9.9298     9.7271 C.ar       2 BB2          0.0000
    38 F14       -4.4322    -8.9694     9.5498 F          2 BB2          0.0000
    39 C15       -3.8874   -11.2498     9.9021 C.ar       2 BB2          0.0000
    40 F16       -5.1988   -11.5745     9.8952 F          2 BB2          0.0000
    41 C17       -2.9323   -12.2343    10.0779 C.ar       2 BB2          0.0000
    42 H18       -0.1577   -15.7858    10.2026 H          2 BB2          0.0000
    43 H19       -1.7111   -14.3826    11.2883 H          2 BB2          0.0000
    44 H20       -0.4442   -13.5770    12.2610 H          2 BB2          0.0000
    45 H21        2.1512   -13.8654    10.6453 H          2 BB2          0.0000
    46 H22        1.6889   -14.7501     9.1575 H          2 BB2          0.0000
    47 H23       -0.1517   -10.3141     9.9201 H          2 BB2          0.0000
    48 H24       -1.8553    -8.5674     9.5970 H          2 BB2          0.0000
    49 H25       -3.2342   -13.2622    10.2142 H          2 BB2          0.0000
@<TRIPOS>BOND
     1      1      2 1
     2      1     12 1
     3      1     13 1
     4      1     14 1
     5      2      3 1
     6      3      4 2
     7      3      5 1
     8      5      6 1
     9      5      9 1
    10      5     15 1
    11      6      7 1
    12      7      8 1
    13      7     16 1
    14      7     17 1
    15      8      9 1
    16      8     18 1
    17      8     19 1
    18      9     10 1
    19      9     11 1
    20     10     20 1
    21     10     21 1
    22     10     22 1
    23     11     23 1
    24     11     24 1
    25     11     25 1
    26     26     27 2
    27     27     28 1
    28     28     29 1
    29     28     33 1
    30     28     42 1
    31     29     30 1
    32     29     43 1
    33     29     44 1
    34     30     31 am
    35     30     34 1
    36     31     32 2
    37     31     33 1
    38     33     45 1
    39     33     46 1
    40     34     35 ar
    41     34     41 ar
    42     35     36 ar
    43     35     47 1
    44     36     37 ar
    45     36     48 1
    46     37     38 1
    47     37     39 ar
    48     39     40 1
    49     39     41 ar
    50     41     49 1
    51      6     27 am
@<TRIPOS>SUBSTRUCTURE
     1 BB1           6
     2 BB2          27
@<TRIPOS>MOLECULE
EN300-703997_i001_EN300-344045_i001_3_2_1
  54   56   2   0   0
SMALL
USER_CHARGES
@<TRIPOS>ATOM
     1 C1         1.2265   -21.3350    13.3071 C.3        1 BB1          0.0000
     2 O2         0.5859   -20.0388    13.4409 O.3        1 BB1          0.0000
     3 C3         0.6692   -19.2067    12.3910 C.2        1 BB1          0.0000
     4 O4         1.2258   -19.5637    11.3797 O.2        1 BB1          0.0000
     5 C5         0.0685   -17.8270    12.4736 C.3        1 BB1          0.0000
     6 N6         0.1791   -17.1502    11.1632 N.am       1 BB1          0.0000
     7 C7         0.4182   -15.7160    11.4671 C.3        1 BB1          0.0000
     8 C8         1.3782   -15.7664    12.6822 C.3        1 BB1          0.0000
     9 C9         0.8505   -16.9743    13.4898 C.3        1 BB1          0.0000
    10 C10       -0.0772   -16.4996    14.6101 C.3        1 BB1          0.0000
    11 C11        2.0176   -17.7762    14.0694 C.3        1 BB1          0.0000
    12 H12        0.7836   -21.8745    12.4699 H          1 BB1          0.0000
    13 H13        2.2926   -21.1967    13.1269 H          1 BB1          0.0000
    14 H14        1.0843   -21.9070    14.2240 H          1 BB1          0.0000
    15 H15       -0.9784   -17.8952    12.7692 H          1 BB1          0.0000
    16 H16        0.8930   -15.2177    10.6220 H          1 BB1          0.0000
    17 H17       -0.5143   -15.2187    11.7339 H          1 BB1          0.0000
    18 H18        2.4040   -15.9387    12.3564 H          1 BB1          0.0000
    19 H19        1.3072   -14.8500    13.2681 H          1 BB1          0.0000
    20 H20       -0.9090   -15.9411    14.1807 H          1 BB1          0.0000
    21 H21       -0.4613   -17.3627    15.1539 H          1 BB1          0.0000
    22 H22        0.4777   -15.8570    15.2936 H          1 BB1          0.0000
    23 H23        2.5908   -17.1447    14.7482 H          1 BB1          0.0000
    24 H24        1.6314   -18.6380    14.6138 H          1 BB1          0.0000
    25 H25        2.6619   -18.1173    13.2591 H          1 BB1          0.0000
    26 O1         0.5661   -15.7707    10.9576 O.2        2 BB2          0.0000
    27 C2         0.2489   -14.5943    11.0019 C.2        2 BB2          0.0000
    28 C4         0.9922   -13.5817    10.1694 C.3        2 BB2          0.0000
    29 C5         0.0568   -13.0163     9.0988 C.3        2 BB2          0.0000
    30 C6         0.8768   -12.3025     8.0042 C.3        2 BB2          0.0000
    31 C7         1.0511   -13.3749     6.9002 C.3        2 BB2          0.0000
    32 C8        -0.3163   -14.1023     6.9114 C.3        2 BB2          0.0000
    33 C9        -0.7017   -14.1605     8.4040 C.3        2 BB2          0.0000
    34 C10       -0.9194   -12.0528     9.7233 C.ar       2 BB2          0.0000
    35 C11       -0.7018   -11.5818    11.0046 C.ar       2 BB2          0.0000
    36 C12       -1.5972   -10.6981    11.5774 C.ar       2 BB2          0.0000
    37 C13       -2.7099   -10.2850    10.8687 C.ar       2 BB2          0.0000
    38 C14       -2.9270   -10.7553     9.5871 C.ar       2 BB2          0.0000
    39 C15       -2.0292   -11.6357     9.0126 C.ar       2 BB2          0.0000
    40 H16        1.3431   -12.7722    10.8096 H          2 BB2          0.0000
    41 H17        1.8455   -14.0614     9.6898 H          2 BB2          0.0000
    42 H18        0.3298   -11.4425     7.6177 H          2 BB2          0.0000
    43 H19        1.8472   -11.9949     8.3939 H          2 BB2          0.0000
    44 H20        1.2319   -12.9071     5.9324 H          2 BB2          0.0000
    45 H21        1.8570   -14.0634     7.1543 H          2 BB2          0.0000
    46 H22       -1.0559   -13.5330     6.3483 H          2 BB2          0.0000
    47 H23       -0.2166   -15.1082     6.5036 H          2 BB2          0.0000
    48 H24       -0.4034   -15.1187     8.8294 H          2 BB2          0.0000
    49 H25       -1.7765   -14.0194     8.5179 H          2 BB2          0.0000
    50 H26        0.1674   -11.9045    11.5583 H          2 BB2          0.0000
    51 H27       -1.4278   -10.3307    12.5787 H          2 BB2          0.0000
    52 H28       -3.4099    -9.5951    11.3165 H          2 BB2          0.0000
    53 H29       -3.7964   -10.4328     9.0334 H          2 BB2          0.0000
    54 H30       -2.1987   -12.0032     8.0113 H          2 BB2          0.0000
@<TRIPOS>BOND
     1      1      2 1
     2      1     12 1
     3      1     13 1
     4      1     14 1
     5      2      3 1
     6      3      4 2
     7      3      5 1
     8      5      6 1
     9      5      9 1
    10      5     15 1
    11      6      7 1
    12      7      8 1
    13      7     16 1
    14      7     17 1
    15      8      9 1
    16      8     18 1
    17      8     19 1
    18      9     10 1
    19      9     11 1
    20     10     20 1
    21     10     21 1
    22     10     22 1
    23     11     23 1
    24     11     24 1
    25     11     25 1
    26     26     27 2
    27     27     28 1
    28     28     29 1
    29     28     40 1
    30     28     41 1
    31     29     30 1
    32     29     33 1
    33     29     34 1
    34     30     31 1
    35     30     42 1
    36     30     43 1
    37     31     32 1
    38     31     44 1
    39     31     45 1
    40     32     33 1
    41     32     46 1
    42     32     47 1
    43     33     48 1
    44     33     49 1
    45     34     35 ar
    46     34     39 ar
    47     35     36 ar
    48     35     50 1
    49     36     37 ar
    50     36     51 1
    51     37     38 ar
    52     37     52 1
    53     38     39 ar
    54     38     53 1
    55     39     54 1
    56      6     27 am
@<TRIPOS>SUBSTRUCTURE
     1 BB1           6
     2 BB2          27
@<TRIPOS>MOLECULE
EN300-703997_i001_EN300-344045_i001_3_3_1
  54   56   2   0   0
SMALL
USER_CHARGES
@<TRIPOS>ATOM
     1 C1         1.2265   -21.3350    13.3071 C.3        1 BB1          0.0000
     2 O2         0.5859   -20.0388    13.4409 O.3        1 BB1          0.0000
     3 C3         0.6692   -19.2067    12.3910 C.2        1 BB1          0.0000
     4 O4         1.2258   -19.5637    11.3797 O.2        1 BB1          0.0000
     5 C5         0.0685   -17.8270    12.4736 C.3        1 BB1          0.0000
     6 N6         0.1791   -17.1502    11.1632 N.am       1 BB1          0.0000
     7 C7         0.4182   -15.7160    11.4671 C.3        1 BB1          0.0000
     8 C8         1.3782   -15.7664    12.6822 C.3        1 BB1          0.0000
     9 C9         0.8505   -16.9743    13.4898 C.3        1 BB1          0.0000
    10 C10       -0.0772   -16.4996    14.6101 C.3        1 BB1          0.0000
    11 C11        2.0176   -17.7762    14.0694 C.3        1 BB1          0.0000
    12 H12        0.7836   -21.8745    12.4699 H          1 BB1          0.0000
    13 H13        2.2926   -21.1967    13.1269 H          1 BB1          0.0000
    14 H14        1.0843   -21.9070    14.2240 H          1 BB1          0.0000
    15 H15       -0.9784   -17.8952    12.7692 H          1 BB1          0.0000
    16 H16        0.8930   -15.2177    10.6220 H          1 BB1          0.0000
    17 H17       -0.5143   -15.2187    11.7339 H          1 BB1          0.0000
    18 H18        2.4040   -15.9387    12.3564 H          1 BB1          0.0000
    19 H19        1.3072   -14.8500    13.2681 H          1 BB1          0.0000
    20 H20       -0.9090   -15.9411    14.1807 H          1 BB1          0.0000
    21 H21       -0.4613   -17.3627    15.1539 H          1 BB1          0.0000
    22 H22        0.4777   -15.8570    15.2936 H          1 BB1          0.0000
    23 H23        2.5908   -17.1447    14.7482 H          1 BB1          0.0000
    24 H24        1.6314   -18.6380    14.6138 H          1 BB1          0.0000
    25 H25        2.6619   -18.1173    13.2591 H          1 BB1          0.0000
    26 C2         0.5459   -14.5453    10.1019 C.2        2 BB2          0.0000
    27 O3         0.1752   -15.4776     9.4091 O.2        2 BB2          0.0000
    28 C4        -0.4230   -13.4540    10.4780 C.3        2 BB2          0.0000
    29 C5        -0.6345   -12.5251     9.2809 C.3        2 BB2          0.0000
    30 C6         0.6374   -11.6890     9.0294 C.3        2 BB2          0.0000
    31 C7         1.4011   -12.4785     7.9373 C.3        2 BB2          0.0000
    32 C8         0.2593   -12.9923     7.0255 C.3        2 BB2          0.0000
    33 C9        -0.8749   -13.3536     8.0068 C.3        2 BB2          0.0000
    34 C10       -1.8085   -11.6149     9.5352 C.ar       2 BB2          0.0000
    35 C11       -3.0826   -12.1418     9.6348 C.ar       2 BB2          0.0000
    36 C12       -4.1594   -11.3070     9.8680 C.ar       2 BB2          0.0000
    37 C13       -3.9620    -9.9453    10.0023 C.ar       2 BB2          0.0000
    38 C14       -2.6878    -9.4186     9.9036 C.ar       2 BB2          0.0000
    39 C15       -1.6104   -10.2540     9.6747 C.ar       2 BB2          0.0000
    40 H16       -1.3759   -13.8977    10.7665 H          2 BB2          0.0000
    41 H17       -0.0201   -12.8827    11.3144 H          2 BB2          0.0000
    42 H18        0.3751   -10.6947     8.6682 H          2 BB2          0.0000
    43 H19        1.2348   -11.6204     9.9386 H          2 BB2          0.0000
    44 H20        2.0718   -11.8214     7.3835 H          2 BB2          0.0000
    45 H21        1.9500   -13.3119     8.3758 H          2 BB2          0.0000
    46 H22       -0.0641   -12.2083     6.3407 H          2 BB2          0.0000
    47 H23        0.5807   -13.8747     6.4723 H          2 BB2          0.0000
    48 H24       -0.8408   -14.4175     8.2413 H          2 BB2          0.0000
    49 H25       -1.8409   -13.0975     7.5716 H          2 BB2          0.0000
    50 H26       -3.2369   -13.2055     9.5299 H          2 BB2          0.0000
    51 H27       -5.1549   -11.7185     9.9450 H          2 BB2          0.0000
    52 H28       -4.8033    -9.2931    10.1838 H          2 BB2          0.0000
    53 H29       -2.5335    -8.3548    10.0082 H          2 BB2          0.0000
    54 H30       -0.6148    -9.8425     9.5976 H          2 BB2          0.0000
@<TRIPOS>BOND
     1      1      2 1
     2      1     12 1
     3      1     13 1
     4      1     14 1
     5      2      3 1
     6      3      4 2
     7      3      5 1
     8      5      6 1
     9      5      9 1
    10      5     15 1
    11      6      7 1
    12      7      8 1
    13      7     16 1
    14      7     17 1
    15      8      9 1
    16      8     18 1
    17      8     19 1
    18      9     10 1
    19      9     11 1
    20     10     20 1
    21     10     21 1
    22     10     22 1
    23     11     23 1
    24     11     24 1
    25     11     25 1
    26     26     27 2
    27     26     28 1
    28     28     29 1
    29     28     40 1
    30     28     41 1
    31     29     30 1
    32     29     33 1
    33     29     34 1
    34     30     31 1
    35     30     42 1
    36     30     43 1
    37     31     32 1
    38     31     44 1
    39     31     45 1
    40     32     33 1
    41     32     46 1
    42     32     47 1
    43     33     48 1
    44     33     49 1
    45     34     35 ar
    46     34     39 ar
    47     35     36 ar
    48     35     50 1
    49     36     37 ar
    50     36     51 1
    51     37     38 ar
    52     37     52 1
    53     38     39 ar
    54     38     53 1
    55     39     54 1
    56      6     26 am
@<TRIPOS>SUBSTRUCTURE
     1 BB1           6
     2 BB2          26
@<TRIPOS>MOLECULE
EN300-703997_i001_EN300-1198129_i001_4_11_1
  49   50   2   0   0
SMALL
USER_CHARGES
@<TRIPOS>ATOM
     1 C1        -0.6971   -21.4979    12.2126 C.3        1 BB1          0.0000
     2 O2        -0.7338   -20.1429    12.7333 O.3        1 BB1          0.0000
     3 C3        -0.0740   -19.2043    12.0367 C.2        1 BB1          0.0000
     4 O4         0.5026   -19.5021    11.0175 O.2        1 BB1          0.0000
     5 C5        -0.0522   -17.7791    12.5258 C.3        1 BB1          0.0000
     6 N6         0.6165   -16.9146    11.5294 N.am       1 BB1          0.0000
     7 C7         1.3530   -15.8893    12.3120 C.3        1 BB1          0.0000
     8 C8         1.9099   -16.6933    13.5138 C.3        1 BB1          0.0000
     9 C9         0.7650   -17.6835    13.8275 C.3        1 BB1          0.0000
    10 C10       -0.1068   -17.1448    14.9636 C.3        1 BB1          0.0000
    11 C11        1.3351   -19.0541    14.1984 C.3        1 BB1          0.0000
    12 H12       -1.1319   -21.5150    11.2133 H          1 BB1          0.0000
    13 H13        0.3364   -21.8410    12.1650 H          1 BB1          0.0000
    14 H14       -1.2681   -22.1548    12.8687 H          1 BB1          0.0000
    15 H15       -1.0705   -17.4298    12.6967 H          1 BB1          0.0000
    16 H16        2.1661   -15.4660    11.7224 H          1 BB1          0.0000
    17 H17        0.6760   -15.1063    12.6536 H          1 BB1          0.0000
    18 H18        2.8168   -17.2286    13.2327 H          1 BB1          0.0000
    19 H19        2.0960   -16.0369    14.3639 H          1 BB1          0.0000
    20 H20       -0.5148   -16.1747    14.6796 H          1 BB1          0.0000
    21 H21       -0.9237   -17.8403    15.1560 H          1 BB1          0.0000
    22 H22        0.4970   -17.0353    15.8644 H          1 BB1          0.0000
    23 H23        1.9515   -18.9613    15.0926 H          1 BB1          0.0000
    24 H24        0.5168   -19.7478    14.3916 H          1 BB1          0.0000
    25 H25        1.9431   -19.4295    13.3754 H          1 BB1          0.0000
    26 O1         0.0143   -16.1877    10.6382 O.2        2 BB2          0.0000
    27 C2        -0.1070   -15.9082     9.4535 C.2        2 BB2          0.0000
    28 C4         0.0888   -14.5199     9.0003 C.ar       2 BB2          0.0000
    29 C5        -0.2536   -13.4529     9.8358 C.ar       2 BB2          0.0000
    30 C6        -0.0676   -12.1568     9.4051 C.ar       2 BB2          0.0000
    31 C7         0.4567   -11.9083     8.1479 C.ar       2 BB2          0.0000
    32 C8         0.7986   -12.9562     7.3134 C.ar       2 BB2          0.0000
    33 C9         0.6244   -14.2623     7.7324 C.ar       2 BB2          0.0000
    34 F10        0.9586   -15.2862     6.9169 F          2 BB2          0.0000
    35 S11       -0.4990   -10.8115    10.4579 S.o2       2 BB2          0.0000
    36 O12       -0.9885   -11.4332    11.6382 O.2        2 BB2          0.0000
    37 O13        0.6677   -10.0009    10.4867 O.2        2 BB2          0.0000
    38 C14       -1.8418    -9.9635     9.5814 C.3        2 BB2          0.0000
    39 C15       -3.0735    -9.8878    10.4860 C.3        2 BB2          0.0000
    40 C16       -4.1017   -10.8192     9.9938 C.1        2 BB2          0.0000
    41 C17       -4.9218   -11.5619     9.6012 C.1        2 BB2          0.0000
    42 H18       -0.6632   -13.6436    10.8167 H          2 BB2          0.0000
    43 H19        0.5988   -10.8901     7.8170 H          2 BB2          0.0000
    44 H20        1.2070   -12.7542     6.3343 H          2 BB2          0.0000
    45 H21       -1.5232    -8.9553     9.3166 H          2 BB2          0.0000
    46 H22       -2.0901   -10.5158     8.6751 H          2 BB2          0.0000
    47 H23       -2.7940   -10.1601    11.5037 H          2 BB2          0.0000
    48 H24       -3.4691    -8.8722    10.4771 H          2 BB2          0.0000
    49 H25       -5.6553   -12.2263     9.2502 H          2 BB2          0.0000
@<TRIPOS>BOND
     1      1      2 1
     2      1     12 1
     3      1     13 1
     4      1     14 1
     5      2      3 1
     6      3      4 2
     7      3      5 1
     8      5      6 1
     9      5      9 1
    10      5     15 1
    11      6      7 1
    12      7      8 1
    13      7     16 1
    14      7     17 1
    15      8      9 1
    16      8     18 1
    17      8     19 1
    18      9     10 1
    19      9     11 1
    20     10     20 1
    21     10     21 1
    22     10     22 1
    23     11     23 1
    24     11     24 1
    25     11     25 1
    26     26     27 2
    27     27     28 1
    28     28     29 ar
    29     28     33 ar
    30     29     30 ar
    31     29     42 1
    32     30     31 ar
    33     30     35 1
    34     31     32 ar
    35     31     43 1
    36     32     33 ar
    37     32     44 1
    38     33     34 1
    39     35     36 2
    40     35     37 2
    41     35     38 1
    42     38     39 1
    43     38     45 1
    44     38     46 1
    45     39     40 1
    46     39     47 1
    47     39     48 1
    48     40     41 3
    49     41     49 1
    50      6     27 am
@<TRIPOS>SUBSTRUCTURE
     1 BB1           6
     2 BB2          27
@<TRIPOS>MOLECULE
EN300-703997_i001_EN300-1198129_i001_4_19_1
  49   50   2   0   0
SMALL
USER_CHARGES
@<TRIPOS>ATOM
     1 C1        -0.6971   -21.4979    12.2126 C.3        1 BB1          0.0000
     2 O2        -0.7338   -20.1429    12.7333 O.3        1 BB1          0.0000
     3 C3        -0.0740   -19.2043    12.0367 C.2        1 BB1          0.0000
     4 O4         0.5026   -19.5021    11.0175 O.2        1 BB1          0.0000
     5 C5        -0.0522   -17.7791    12.5258 C.3        1 BB1          0.0000
     6 N6         0.6165   -16.9146    11.5294 N.am       1 BB1          0.0000
     7 C7         1.3530   -15.8893    12.3120 C.3        1 BB1          0.0000
     8 C8         1.9099   -16.6933    13.5138 C.3        1 BB1          0.0000
     9 C9         0.7650   -17.6835    13.8275 C.3        1 BB1          0.0000
    10 C10       -0.1068   -17.1448    14.9636 C.3        1 BB1          0.0000
    11 C11        1.3351   -19.0541    14.1984 C.3        1 BB1          0.0000
    12 H12       -1.1319   -21.5150    11.2133 H          1 BB1          0.0000
    13 H13        0.3364   -21.8410    12.1650 H          1 BB1          0.0000
    14 H14       -1.2681   -22.1548    12.8687 H          1 BB1          0.0000
    15 H15       -1.0705   -17.4298    12.6967 H          1 BB1          0.0000
    16 H16        2.1661   -15.4660    11.7224 H          1 BB1          0.0000
    17 H17        0.6760   -15.1063    12.6536 H          1 BB1          0.0000
    18 H18        2.8168   -17.2286    13.2327 H          1 BB1          0.0000
    19 H19        2.0960   -16.0369    14.3639 H          1 BB1          0.0000
    20 H20       -0.5148   -16.1747    14.6796 H          1 BB1          0.0000
    21 H21       -0.9237   -17.8403    15.1560 H          1 BB1          0.0000
    22 H22        0.4970   -17.0353    15.8644 H          1 BB1          0.0000
    23 H23        1.9515   -18.9613    15.0926 H          1 BB1          0.0000
    24 H24        0.5168   -19.7478    14.3916 H          1 BB1          0.0000
    25 H25        1.9431   -19.4295    13.3754 H          1 BB1          0.0000
    26 O1        -0.3046   -17.2320    10.9820 O.2        2 BB2          0.0000
    27 C2        -0.0992   -16.0437    11.1864 C.2        2 BB2          0.0000
    28 C4        -0.0979   -15.0920    10.0614 C.ar       2 BB2          0.0000
    29 C5        -0.0950   -13.7157    10.3052 C.ar       2 BB2          0.0000
    30 C6        -0.0937   -12.8313     9.2479 C.ar       2 BB2          0.0000
    31 C7        -0.0957   -13.3016     7.9456 C.ar       2 BB2          0.0000
    32 C8        -0.0987   -14.6609     7.6932 C.ar       2 BB2          0.0000
    33 C9        -0.0936   -15.5616     8.7423 C.ar       2 BB2          0.0000
    34 F10       -0.0964   -16.8898     8.4955 F          2 BB2          0.0000
    35 S11       -0.0901   -11.0963     9.5546 S.o2       2 BB2          0.0000
    36 O12        1.2590   -10.8027     9.8907 O.2        2 BB2          0.0000
    37 O13       -0.6960   -10.5347     8.3985 O.2        2 BB2          0.0000
    38 C14       -1.1656   -10.8901    11.0008 C.3        2 BB2          0.0000
    39 C15       -2.3179    -9.9470    10.6491 C.3        2 BB2          0.0000
    40 C16       -3.4317   -10.7237    10.0809 C.1        2 BB2          0.0000
    41 C17       -4.3201   -11.3431     9.6277 C.1        2 BB2          0.0000
    42 H18       -0.0940   -13.3459    11.3199 H          2 BB2          0.0000
    43 H19       -0.0955   -12.6026     7.1222 H          2 BB2          0.0000
    44 H20       -0.1002   -15.0199     6.6747 H          2 BB2          0.0000
    45 H21       -1.5669   -11.8595    11.2963 H          2 BB2          0.0000
    46 H22       -0.5898   -10.4688    11.8248 H          2 BB2          0.0000
    47 H23       -2.6551    -9.4338    11.5497 H          2 BB2          0.0000
    48 H24       -1.9769    -9.2132     9.9188 H          2 BB2          0.0000
    49 H25       -5.1147   -11.8971     9.2224 H          2 BB2          0.0000
@<TRIPOS>BOND
     1      1      2 1
     2      1     12 1
     3      1     13 1
     4      1     14 1
     5      2      3 1
     6      3      4 2
     7      3      5 1
     8      5      6 1
     9      5      9 1
    10      5     15 1
    11      6      7 1
    12      7      8 1
    13      7     16 1
    14      7     17 1
    15      8      9 1
    16      8     18 1
    17      8     19 1
    18      9     10 1
    19      9     11 1
    20     10     20 1
    21     10     21 1
    22     10     22 1
    23     11     23 1
    24     11     24 1
    25     11     25 1
    26     26     27 2
    27     27     28 1
    28     28     29 ar
    29     28     33 ar
    30     29     30 ar
    31     29     42 1
    32     30     31 ar
    33     30     35 1
    34     31     32 ar
    35     31     43 1
    36     32     33 ar
    37     32     44 1
    38     33     34 1
    39     35     36 2
    40     35     37 2
    41     35     38 1
    42     38     39 1
    43     38     45 1
    44     38     46 1
    45     39     40 1
    46     39     47 1
    47     39     48 1
    48     40     41 3
    49     41     49 1
    50      6     27 am
@<TRIPOS>SUBSTRUCTURE
     1 BB1           6
     2 BB2          27
@<TRIPOS>MOLECULE
EN300-703997_i001_EN300-1198129_i001_4_2_1
  49   50   2   0   0
SMALL
USER_CHARGES
@<TRIPOS>ATOM
     1 C1        -0.6971   -21.4979    12.2126 C.3        1 BB1          0.0000
     2 O2        -0.7338   -20.1429    12.7333 O.3        1 BB1          0.0000
     3 C3        -0.0740   -19.2043    12.0367 C.2        1 BB1          0.0000
     4 O4         0.5026   -19.5021    11.0175 O.2        1 BB1          0.0000
     5 C5        -0.0522   -17.7791    12.5258 C.3        1 BB1          0.0000
     6 N6         0.6165   -16.9146    11.5294 N.am       1 BB1          0.0000
     7 C7         1.3530   -15.8893    12.3120 C.3        1 BB1          0.0000
     8 C8         1.9099   -16.6933    13.5138 C.3        1 BB1          0.0000
     9 C9         0.7650   -17.6835    13.8275 C.3        1 BB1          0.0000
    10 C10       -0.1068   -17.1448    14.9636 C.3        1 BB1          0.0000
    11 C11        1.3351   -19.0541    14.1984 C.3        1 BB1          0.0000
    12 H12       -1.1319   -21.5150    11.2133 H          1 BB1          0.0000
    13 H13        0.3364   -21.8410    12.1650 H          1 BB1          0.0000
    14 H14       -1.2681   -22.1548    12.8687 H          1 BB1          0.0000
    15 H15       -1.0705   -17.4298    12.6967 H          1 BB1          0.0000
    16 H16        2.1661   -15.4660    11.7224 H          1 BB1          0.0000
    17 H17        0.6760   -15.1063    12.6536 H          1 BB1          0.0000
    18 H18        2.8168   -17.2286    13.2327 H          1 BB1          0.0000
    19 H19        2.0960   -16.0369    14.3639 H          1 BB1          0.0000
    20 H20       -0.5148   -16.1747    14.6796 H          1 BB1          0.0000
    21 H21       -0.9237   -17.8403    15.1560 H          1 BB1          0.0000
    22 H22        0.4970   -17.0353    15.8644 H          1 BB1          0.0000
    23 H23        1.9515   -18.9613    15.0926 H          1 BB1          0.0000
    24 H24        0.5168   -19.7478    14.3916 H          1 BB1          0.0000
    25 H25        1.9431   -19.4295    13.3754 H          1 BB1          0.0000
    26 C2        -0.3925   -15.7871    12.2073 C.2        2 BB2          0.0000
    27 O3        -0.9969   -16.8465    12.3003 O.2        2 BB2          0.0000
    28 C4        -0.2354   -15.1414    10.8922 C.ar       2 BB2          0.0000
    29 C5        -0.1788   -13.7480    10.7957 C.ar       2 BB2          0.0000
    30 C6        -0.0318   -13.1509     9.5621 C.ar       2 BB2          0.0000
    31 C7         0.0595   -13.9262     8.4186 C.ar       2 BB2          0.0000
    32 C8         0.0046   -15.3051     8.5026 C.ar       2 BB2          0.0000
    33 C9        -0.1363   -15.9203     9.7329 C.ar       2 BB2          0.0000
    34 F10       -0.1899   -17.2677     9.8148 F          2 BB2          0.0000
    35 S11        0.0396   -11.3946     9.4399 S.o2       2 BB2          0.0000
    36 O12        0.3047   -10.9615    10.7671 O.2        2 BB2          0.0000
    37 O13        0.9678   -11.1537     8.3914 O.2        2 BB2          0.0000
    38 C14       -1.6330   -10.9078     8.9338 C.3        2 BB2          0.0000
    39 C15       -2.3738   -10.3081    10.1306 C.3        2 BB2          0.0000
    40 C16       -3.8145   -10.5817    10.0032 C.1        2 BB2          0.0000
    41 C17       -4.9636   -10.7998     9.9015 C.1        2 BB2          0.0000
    42 H18       -0.2504   -13.1407    11.6858 H          2 BB2          0.0000
    43 H19        0.1738   -13.4511     7.4554 H          2 BB2          0.0000
    44 H20        0.0765   -15.9029     7.6061 H          2 BB2          0.0000
    45 H21       -1.5702   -10.1667     8.1369 H          2 BB2          0.0000
    46 H22       -2.1731   -11.7834     8.5738 H          2 BB2          0.0000
    47 H23       -1.9991   -10.7556    11.0512 H          2 BB2          0.0000
    48 H24       -2.2095    -9.2309    10.1572 H          2 BB2          0.0000
    49 H25       -5.9913   -10.9949     9.8107 H          2 BB2          0.0000
@<TRIPOS>BOND
     1      1      2 1
     2      1     12 1
     3      1     13 1
     4      1     14 1
     5      2      3 1
     6      3      4 2
     7      3      5 1
     8      5      6 1
     9      5      9 1
    10      5     15 1
    11      6      7 1
    12      7      8 1
    13      7     16 1
    14      7     17 1
    15      8      9 1
    16      8     18 1
    17      8     19 1
    18      9     10 1
    19      9     11 1
    20     10     20 1
    21     10     21 1
    22     10     22 1
    23     11     23 1
    24     11     24 1
    25     11     25 1
    26     26     27 2
    27     26     28 1
    28     28     29 ar
    29     28     33 ar
    30     29     30 ar
    31     29     42 1
    32     30     31 ar
    33     30     35 1
    34     31     32 ar
    35     31     43 1
    36     32     33 ar
    37     32     44 1
    38     33     34 1
    39     35     36 2
    40     35     37 2
    41     35     38 1
    42     38     39 1
    43     38     45 1
    44     38     46 1
    45     39     40 1
    46     39     47 1
    47     39     48 1
    48     40     41 3
    49     41     49 1
    50      6     26 am
@<TRIPOS>SUBSTRUCTURE
     1 BB1           6
     2 BB2          26
@<TRIPOS>MOLECULE
EN300-703997_i001_EN300-4287209_i001_4_3_1
  40   41   2   0   0
SMALL
USER_CHARGES
@<TRIPOS>ATOM
     1 C1        -0.6971   -21.4979    12.2126 C.3        1 BB1          0.0000
     2 O2        -0.7338   -20.1429    12.7333 O.3        1 BB1          0.0000
     3 C3        -0.0740   -19.2043    12.0367 C.2        1 BB1          0.0000
     4 O4         0.5026   -19.5021    11.0175 O.2        1 BB1          0.0000
     5 C5        -0.0522   -17.7791    12.5258 C.3        1 BB1          0.0000
     6 N6         0.6165   -16.9146    11.5294 N.am       1 BB1          0.0000
     7 C7         1.3530   -15.8893    12.3120 C.3        1 BB1          0.0000
     8 C8         1.9099   -16.6933    13.5138 C.3        1 BB1          0.0000
     9 C9         0.7650   -17.6835    13.8275 C.3        1 BB1          0.0000
    10 C10       -0.1068   -17.1448    14.9636 C.3        1 BB1          0.0000
    11 C11        1.3351   -19.0541    14.1984 C.3        1 BB1          0.0000
    12 H12       -1.1319   -21.5150    11.2133 H          1 BB1          0.0000
    13 H13        0.3364   -21.8410    12.1650 H          1 BB1          0.0000
    14 H14       -1.2681   -22.1548    12.8687 H          1 BB1          0.0000
    15 H15       -1.0705   -17.4298    12.6967 H          1 BB1          0.0000
    16 H16        2.1661   -15.4660    11.7224 H          1 BB1          0.0000
    17 H17        0.6760   -15.1063    12.6536 H          1 BB1          0.0000
    18 H18        2.8168   -17.2286    13.2327 H          1 BB1          0.0000
    19 H19        2.0960   -16.0369    14.3639 H          1 BB1          0.0000
    20 H20       -0.5148   -16.1747    14.6796 H          1 BB1          0.0000
    21 H21       -0.9237   -17.8403    15.1560 H          1 BB1          0.0000
    22 H22        0.4970   -17.0353    15.8644 H          1 BB1          0.0000
    23 H23        1.9515   -18.9613    15.0926 H          1 BB1          0.0000
    24 H24        0.5168   -19.7478    14.3916 H          1 BB1          0.0000
    25 H25        1.9431   -19.4295    13.3754 H          1 BB1          0.0000
    26 O1         0.9022   -15.2848    11.2052 O.2        2 BB2          0.0000
    27 C2        -0.0043   -14.5201    11.5040 C.2        2 BB2          0.0000
    28 C4        -0.4017   -13.4480    10.5724 C.ar       2 BB2          0.0000
    29 C5        -1.5033   -12.6425    10.8617 C.ar       2 BB2          0.0000
    30 C6        -1.8709   -11.6325     9.9767 C.ar       2 BB2          0.0000
    31 C7        -3.0001   -10.8010    10.2667 C.1        2 BB2          0.0000
    32 C8        -3.9259   -10.1193    10.5044 C.1        2 BB2          0.0000
    33 C9        -1.1364   -11.4311     8.8058 C.ar       2 BB2          0.0000
    34 C10       -0.0472   -12.2308     8.5230 C.ar       2 BB2          0.0000
    35 C11        0.3287   -13.2319     9.3982 C.ar       2 BB2          0.0000
    36 Cl12       1.6998   -14.2324     9.0338 Cl         2 BB2          0.0000
    37 H13       -2.0687   -12.8018    11.7680 H          2 BB2          0.0000
    38 H14       -4.7538    -9.5095    10.7170 H          2 BB2          0.0000
    39 H15       -1.4217   -10.6476     8.1195 H          2 BB2          0.0000
    40 H16        0.5164   -12.0702     7.6158 H          2 BB2          0.0000
@<TRIPOS>BOND
     1      1      2 1
     2      1     12 1
     3      1     13 1
     4      1     14 1
     5      2      3 1
     6      3      4 2
     7      3      5 1
     8      5      6 1
     9      5      9 1
    10      5     15 1
    11      6      7 1
    12      7      8 1
    13      7     16 1
    14      7     17 1
    15      8      9 1
    16      8     18 1
    17      8     19 1
    18      9     10 1
    19      9     11 1
    20     10     20 1
    21     10     21 1
    22     10     22 1
    23     11     23 1
    24     11     24 1
    25     11     25 1
    26     26     27 2
    27     27     28 1
    28     28     29 ar
    29     28     35 ar
    30     29     30 ar
    31     29     37 1
    32     30     31 1
    33     30     33 ar
    34     31     32 3
    35     32     38 1
    36     33     34 ar
    37     33     39 1
    38     34     35 ar
    39     34     40 1
    40     35     36 1
    41      6     27 am
@<TRIPOS>SUBSTRUCTURE
     1 BB1           6
     2 BB2          27
@<TRIPOS>MOLECULE
EN300-703997_i001_EN300-19857_i001_4_19_1
  38   39   2   0   0
SMALL
USER_CHARGES
@<TRIPOS>ATOM
     1 C1        -0.6971   -21.4979    12.2126 C.3        1 BB1          0.0000
     2 O2        -0.7338   -20.1429    12.7333 O.3        1 BB1          0.0000
     3 C3        -0.0740   -19.2043    12.0367 C.2        1 BB1          0.0000
     4 O4         0.5026   -19.5021    11.0175 O.2        1 BB1          0.0000
     5 C5        -0.0522   -17.7791    12.5258 C.3        1 BB1          0.0000
     6 N6         0.6165   -16.9146    11.5294 N.am       1 BB1          0.0000
     7 C7         1.3530   -15.8893    12.3120 C.3        1 BB1          0.0000
     8 C8         1.9099   -16.6933    13.5138 C.3        1 BB1          0.0000
     9 C9         0.7650   -17.6835    13.8275 C.3        1 BB1          0.0000
    10 C10       -0.1068   -17.1448    14.9636 C.3        1 BB1          0.0000
    11 C11        1.3351   -19.0541    14.1984 C.3        1 BB1          0.0000
    12 H12       -1.1319   -21.5150    11.2133 H          1 BB1          0.0000
    13 H13        0.3364   -21.8410    12.1650 H          1 BB1          0.0000
    14 H14       -1.2681   -22.1548    12.8687 H          1 BB1          0.0000
    15 H15       -1.0705   -17.4298    12.6967 H          1 BB1          0.0000
    16 H16        2.1661   -15.4660    11.7224 H          1 BB1          0.0000
    17 H17        0.6760   -15.1063    12.6536 H          1 BB1          0.0000
    18 H18        2.8168   -17.2286    13.2327 H          1 BB1          0.0000
    19 H19        2.0960   -16.0369    14.3639 H          1 BB1          0.0000
    20 H20       -0.5148   -16.1747    14.6796 H          1 BB1          0.0000
    21 H21       -0.9237   -17.8403    15.1560 H          1 BB1          0.0000
    22 H22        0.4970   -17.0353    15.8644 H          1 BB1          0.0000
    23 H23        1.9515   -18.9613    15.0926 H          1 BB1          0.0000
    24 H24        0.5168   -19.7478    14.3916 H          1 BB1          0.0000
    25 H25        1.9431   -19.4295    13.3754 H          1 BB1          0.0000
    26 O1         0.4960   -16.3601    11.6857 O.2        2 BB2          0.0000
    27 C2         0.1084   -15.2492    12.0190 C.2        2 BB2          0.0000
    28 C4        -0.1003   -14.2039    10.9989 C.ar       2 BB2          0.0000
    29 C5         0.6067   -14.2472     9.7949 C.ar       2 BB2          0.0000
    30 C6         0.4070   -13.2666     8.8454 C.ar       2 BB2          0.0000
    31 C7        -0.4913   -12.2416     9.0830 C.ar       2 BB2          0.0000
    32 C8        -1.1956   -12.1914    10.2743 C.ar       2 BB2          0.0000
    33 Br9       -2.4207   -10.7854    10.5877 Br         2 BB2          0.0000
    34 C10       -1.0103   -13.1691    11.2304 C.ar       2 BB2          0.0000
    35 H11        1.3085   -15.0465     9.6080 H          2 BB2          0.0000
    36 H12        0.9533   -13.2990     7.9144 H          2 BB2          0.0000
    37 H13       -0.6436   -11.4766     8.3360 H          2 BB2          0.0000
    38 H14       -1.5600   -13.1293    12.1592 H          2 BB2          0.0000
@<TRIPOS>BOND
     1      1      2 1
     2      1     12 1
     3      1     13 1
     4      1     14 1
     5      2      3 1
     6      3      4 2
     7      3      5 1
     8      5      6 1
     9      5      9 1
    10      5     15 1
    11      6      7 1
    12      7      8 1
    13      7     16 1
    14      7     17 1
    15      8      9 1
    16      8     18 1
    17      8     19 1
    18      9     10 1
    19      9     11 1
    20     10     20 1
    21     10     21 1
    22     10     22 1
    23     11     23 1
    24     11     24 1
    25     11     25 1
    26     26     27 2
    27     27     28 1
    28     28     29 ar
    29     28     34 ar
    30     29     30 ar
    31     29     35 1
    32     30     31 ar
    33     30     36 1
    34     31     32 ar
    35     31     37 1
    36     32     33 1
    37     32     34 ar
    38     34     38 1
    39      6     27 am
@<TRIPOS>SUBSTRUCTURE
     1 BB1           6
     2 BB2          27
@<TRIPOS>MOLECULE
EN300-703997_i001_EN300-97777_i001_4_8_1
  53   53   2   0   0
SMALL
USER_CHARGES
@<TRIPOS>ATOM
     1 C1        -0.6971   -21.4979    12.2126 C.3        1 BB1          0.0000
     2 O2        -0.7338   -20.1429    12.7333 O.3        1 BB1          0.0000
     3 C3        -0.0740   -19.2043    12.0367 C.2        1 BB1          0.0000
     4 O4         0.5026   -19.5021    11.0175 O.2        1 BB1          0.0000
     5 C5        -0.0522   -17.7791    12.5258 C.3        1 BB1          0.0000
     6 N6         0.6165   -16.9146    11.5294 N.am       1 BB1          0.0000
     7 C7         1.3530   -15.8893    12.3120 C.3        1 BB1          0.0000
     8 C8         1.9099   -16.6933    13.5138 C.3        1 BB1          0.0000
     9 C9         0.7650   -17.6835    13.8275 C.3        1 BB1          0.0000
    10 C10       -0.1068   -17.1448    14.9636 C.3        1 BB1          0.0000
    11 C11        1.3351   -19.0541    14.1984 C.3        1 BB1          0.0000
    12 H12       -1.1319   -21.5150    11.2133 H          1 BB1          0.0000
    13 H13        0.3364   -21.8410    12.1650 H          1 BB1          0.0000
    14 H14       -1.2681   -22.1548    12.8687 H          1 BB1          0.0000
    15 H15       -1.0705   -17.4298    12.6967 H          1 BB1          0.0000
    16 H16        2.1661   -15.4660    11.7224 H          1 BB1          0.0000
    17 H17        0.6760   -15.1063    12.6536 H          1 BB1          0.0000
    18 H18        2.8168   -17.2286    13.2327 H          1 BB1          0.0000
    19 H19        2.0960   -16.0369    14.3639 H          1 BB1          0.0000
    20 H20       -0.5148   -16.1747    14.6796 H          1 BB1          0.0000
    21 H21       -0.9237   -17.8403    15.1560 H          1 BB1          0.0000
    22 H22        0.4970   -17.0353    15.8644 H          1 BB1          0.0000
    23 H23        1.9515   -18.9613    15.0926 H          1 BB1          0.0000
    24 H24        0.5168   -19.7478    14.3916 H          1 BB1          0.0000
    25 H25        1.9431   -19.4295    13.3754 H          1 BB1          0.0000
    26 C1        -1.8238   -10.7306     9.0157 C.3        2 BB2          0.0000
    27 C2        -1.8143   -10.8225    10.5429 C.3        2 BB2          0.0000
    28 C3        -0.6982    -9.9367    11.1002 C.3        2 BB2          0.0000
    29 C4        -3.1623   -10.3495    11.0907 C.3        2 BB2          0.0000
    30 O5        -1.5852   -12.1992    10.9435 O.3        2 BB2          0.0000
    31 C6        -0.4439   -12.7765    10.5227 C.2        2 BB2          0.0000
    32 O7         0.3377   -12.1479     9.8369 O.2        2 BB2          0.0000
    33 N8        -0.1686   -14.0514    10.8621 N.am       2 BB2          0.0000
    34 C9         1.0732   -14.6795    10.4043 C.3        2 BB2          0.0000
    35 C10        1.1107   -14.6769     8.9327 C.1        2 BB2          0.0000
    36 C11        1.1408   -14.6748     7.7592 C.1        2 BB2          0.0000
    37 C12       -1.1112   -14.8091    11.6891 C.3        2 BB2          0.0000
    38 C13       -0.3637   -15.8619    12.4662 C.2        2 BB2          0.0000
    39 O14       -0.8290   -16.9834    12.5766 O.2        2 BB2          0.0000
    40 H16       -0.8635   -11.0675     8.6255 H          2 BB2          0.0000
    41 H17       -2.6190   -11.3616     8.6187 H          2 BB2          0.0000
    42 H18       -1.9957    -9.6971     8.7149 H          2 BB2          0.0000
    43 H19       -0.8702    -8.9032    10.7994 H          2 BB2          0.0000
    44 H20       -0.6914   -10.0022    12.1882 H          2 BB2          0.0000
    45 H21        0.2622   -10.2736    10.7099 H          2 BB2          0.0000
    46 H22       -3.9575   -10.9806    10.6936 H          2 BB2          0.0000
    47 H23       -3.1556   -10.4150    12.1787 H          2 BB2          0.0000
    48 H24       -3.3342    -9.3160    10.7899 H          2 BB2          0.0000
    49 H25        1.9262   -14.1218    10.7905 H          2 BB2          0.0000
    50 H26        1.1161   -15.7064    10.7669 H          2 BB2          0.0000
    51 H27        1.1676   -14.6729     6.7094 H          2 BB2          0.0000
    52 H28       -1.6115   -14.1327    12.3822 H          2 BB2          0.0000
    53 H29       -1.8526   -15.2876    11.0493 H          2 BB2          0.0000
@<TRIPOS>BOND
     1      1      2 1
     2      1     12 1
     3      1     13 1
     4      1     14 1
     5      2      3 1
     6      3      4 2
     7      3      5 1
     8      5      6 1
     9      5      9 1
    10      5     15 1
    11      6      7 1
    12      7      8 1
    13      7     16 1
    14      7     17 1
    15      8      9 1
    16      8     18 1
    17      8     19 1
    18      9     10 1
    19      9     11 1
    20     10     20 1
    21     10     21 1
    22     10     22 1
    23     11     23 1
    24     11     24 1
    25     11     25 1
    26     26     27 1
    27     26     40 1
    28     26     41 1
    29     26     42 1
    30     27     28 1
    31     27     29 1
    32     27     30 1
    33     28     43 1
    34     28     44 1
    35     28     45 1
    36     29     46 1
    37     29     47 1
    38     29     48 1
    39     30     31 1
    40     31     32 2
    41     31     33 am
    42     33     34 1
    43     33     37 1
    44     34     35 1
    45     34     49 1
    46     34     50 1
    47     35     36 3
    48     36     51 1
    49     37     38 1
    50     37     52 1
    51     37     53 1
    52     38     39 2
    53      6     38 am
@<TRIPOS>SUBSTRUCTURE
     1 BB1           6
     2 BB2          38
@<TRIPOS>MOLECULE
EN300-703997_i001_EN300-222254_i002_4_7_1
  48   50   2   0   0
SMALL
USER_CHARGES
@<TRIPOS>ATOM
     1 C1        -0.6971   -21.4979    12.2126 C.3        1 BB1          0.0000
     2 O2        -0.7338   -20.1429    12.7333 O.3        1 BB1          0.0000
     3 C3        -0.0740   -19.2043    12.0367 C.2        1 BB1          0.0000
     4 O4         0.5026   -19.5021    11.0175 O.2        1 BB1          0.0000
     5 C5        -0.0522   -17.7791    12.5258 C.3        1 BB1          0.0000
     6 N6         0.6165   -16.9146    11.5294 N.am       1 BB1          0.0000
     7 C7         1.3530   -15.8893    12.3120 C.3        1 BB1          0.0000
     8 C8         1.9099   -16.6933    13.5138 C.3        1 BB1          0.0000
     9 C9         0.7650   -17.6835    13.8275 C.3        1 BB1          0.0000
    10 C10       -0.1068   -17.1448    14.9636 C.3        1 BB1          0.0000
    11 C11        1.3351   -19.0541    14.1984 C.3        1 BB1          0.0000
    12 H12       -1.1319   -21.5150    11.2133 H          1 BB1          0.0000
    13 H13        0.3364   -21.8410    12.1650 H          1 BB1          0.0000
    14 H14       -1.2681   -22.1548    12.8687 H          1 BB1          0.0000
    15 H15       -1.0705   -17.4298    12.6967 H          1 BB1          0.0000
    16 H16        2.1661   -15.4660    11.7224 H          1 BB1          0.0000
    17 H17        0.6760   -15.1063    12.6536 H          1 BB1          0.0000
    18 H18        2.8168   -17.2286    13.2327 H          1 BB1          0.0000
    19 H19        2.0960   -16.0369    14.3639 H          1 BB1          0.0000
    20 H20       -0.5148   -16.1747    14.6796 H          1 BB1          0.0000
    21 H21       -0.9237   -17.8403    15.1560 H          1 BB1          0.0000
    22 H22        0.4970   -17.0353    15.8644 H          1 BB1          0.0000
    23 H23        1.9515   -18.9613    15.0926 H          1 BB1          0.0000
    24 H24        0.5168   -19.7478    14.3916 H          1 BB1          0.0000
    25 H25        1.9431   -19.4295    13.3754 H          1 BB1          0.0000
    26 O1         1.0761   -15.2604    11.4874 O.2        2 BB2          0.0000
    27 C2         0.0691   -14.5794    11.3943 C.2        2 BB2          0.0000
    28 C4        -0.3286   -14.0010    10.0609 C.3        2 BB2          0.0000
    29 C5         0.7881   -14.0614     9.0053 C.3        2 BB2          0.0000
    30 C6         0.3404   -12.6575     8.5654 C.3        2 BB2          0.0000
    31 C7        -0.2035   -12.4698     9.9915 C.3        2 BB2          0.0000
    32 C8        -1.5280   -11.7529    10.0428 C.ar       2 BB2          0.0000
    33 C9        -2.6243   -12.2791     9.3866 C.ar       2 BB2          0.0000
    34 C10       -3.8397   -11.6218     9.4328 C.ar       2 BB2          0.0000
    35 C11       -3.9599   -10.4369    10.1366 C.ar       2 BB2          0.0000
    36 Cl12      -5.4867    -9.6127    10.1944 Cl         2 BB2          0.0000
    37 C13       -2.8635    -9.9090    10.7946 C.ar       2 BB2          0.0000
    38 C14       -1.6479   -10.5698    10.7526 C.ar       2 BB2          0.0000
    39 F15       -0.5765   -10.0555    11.3951 F          2 BB2          0.0000
    40 H16       -1.2870   -14.3786     9.7046 H          2 BB2          0.0000
    41 H17        1.7910   -14.0862     9.4316 H          2 BB2          0.0000
    42 H18        0.6306   -14.8277     8.2463 H          2 BB2          0.0000
    43 H19        1.1683   -11.9913     8.3226 H          2 BB2          0.0000
    44 H20       -0.4354   -12.6666     7.7998 H          2 BB2          0.0000
    45 H21        0.5283   -12.0595    10.6874 H          2 BB2          0.0000
    46 H22       -2.5316   -13.2041     8.8369 H          2 BB2          0.0000
    47 H23       -4.6958   -12.0336     8.9190 H          2 BB2          0.0000
    48 H24       -2.9569    -8.9840    11.3440 H          2 BB2          0.0000
@<TRIPOS>BOND
     1      1      2 1
     2      1     12 1
     3      1     13 1
     4      1     14 1
     5      2      3 1
     6      3      4 2
     7      3      5 1
     8      5      6 1
     9      5      9 1
    10      5     15 1
    11      6      7 1
    12      7      8 1
    13      7     16 1
    14      7     17 1
    15      8      9 1
    16      8     18 1
    17      8     19 1
    18      9     10 1
    19      9     11 1
    20     10     20 1
    21     10     21 1
    22     10     22 1
    23     11     23 1
    24     11     24 1
    25     11     25 1
    26     26     27 2
    27     27     28 1
    28     28     29 1
    29     28     31 1
    30     28     40 1
    31     29     30 1
    32     29     41 1
    33     29     42 1
    34     30     31 1
    35     30     43 1
    36     30     44 1
    37     31     32 1
    38     31     45 1
    39     32     33 ar
    40     32     38 ar
    41     33     34 ar
    42     33     46 1
    43     34     35 ar
    44     34     47 1
    45     35     36 1
    46     35     37 ar
    47     37     38 ar
    48     37     48 1
    49     38     39 1
    50      6     27 am
@<TRIPOS>SUBSTRUCTURE
     1 BB1           6
     2 BB2          27
@<TRIPOS>MOLECULE
EN300-703997_i001_EN300-222254_i002_4_9_1
  48   50   2   0   0
SMALL
USER_CHARGES
@<TRIPOS>ATOM
     1 C1        -0.6971   -21.4979    12.2126 C.3        1 BB1          0.0000
     2 O2        -0.7338   -20.1429    12.7333 O.3        1 BB1          0.0000
     3 C3        -0.0740   -19.2043    12.0367 C.2        1 BB1          0.0000
     4 O4         0.5026   -19.5021    11.0175 O.2        1 BB1          0.0000
     5 C5        -0.0522   -17.7791    12.5258 C.3        1 BB1          0.0000
     6 N6         0.6165   -16.9146    11.5294 N.am       1 BB1          0.0000
     7 C7         1.3530   -15.8893    12.3120 C.3        1 BB1          0.0000
     8 C8         1.9099   -16.6933    13.5138 C.3        1 BB1          0.0000
     9 C9         0.7650   -17.6835    13.8275 C.3        1 BB1          0.0000
    10 C10       -0.1068   -17.1448    14.9636 C.3        1 BB1          0.0000
    11 C11        1.3351   -19.0541    14.1984 C.3        1 BB1          0.0000
    12 H12       -1.1319   -21.5150    11.2133 H          1 BB1          0.0000
    13 H13        0.3364   -21.8410    12.1650 H          1 BB1          0.0000
    14 H14       -1.2681   -22.1548    12.8687 H          1 BB1          0.0000
    15 H15       -1.0705   -17.4298    12.6967 H          1 BB1          0.0000
    16 H16        2.1661   -15.4660    11.7224 H          1 BB1          0.0000
    17 H17        0.6760   -15.1063    12.6536 H          1 BB1          0.0000
    18 H18        2.8168   -17.2286    13.2327 H          1 BB1          0.0000
    19 H19        2.0960   -16.0369    14.3639 H          1 BB1          0.0000
    20 H20       -0.5148   -16.1747    14.6796 H          1 BB1          0.0000
    21 H21       -0.9237   -17.8403    15.1560 H          1 BB1          0.0000
    22 H22        0.4970   -17.0353    15.8644 H          1 BB1          0.0000
    23 H23        1.9515   -18.9613    15.0926 H          1 BB1          0.0000
    24 H24        0.5168   -19.7478    14.3916 H          1 BB1          0.0000
    25 H25        1.9431   -19.4295    13.3754 H          1 BB1          0.0000
    26 O1        -0.2518   -16.8805    10.2544 O.2        2 BB2          0.0000
    27 C2        -0.3919   -16.9343     9.0444 C.2        2 BB2          0.0000
    28 C4        -0.1618   -15.7049     8.2039 C.3        2 BB2          0.0000
    29 C5         0.9915   -15.8536     7.1976 C.3        2 BB2          0.0000
    30 C6         1.3768   -14.4060     7.5447 C.3        2 BB2          0.0000
    31 C7         0.6904   -14.6319     8.9021 C.3        2 BB2          0.0000
    32 C8        -0.1062   -13.4455     9.3806 C.ar       2 BB2          0.0000
    33 C9        -0.3494   -12.3867     8.5268 C.ar       2 BB2          0.0000
    34 C10       -1.0796   -11.2978     8.9651 C.ar       2 BB2          0.0000
    35 C11       -1.5683   -11.2671    10.2590 C.ar       2 BB2          0.0000
    36 Cl12      -2.4857    -9.8994    10.8081 Cl         2 BB2          0.0000
    37 C13       -1.3262   -12.3265    11.1150 C.ar       2 BB2          0.0000
    38 C14       -0.5994   -13.4191    10.6744 C.ar       2 BB2          0.0000
    39 F15       -0.3628   -14.4545    11.5093 F          2 BB2          0.0000
    40 H16       -1.0793   -15.3164     7.7621 H          2 BB2          0.0000
    41 H17        1.7396   -16.5881     7.4961 H          2 BB2          0.0000
    42 H18        0.6586   -15.9819     6.1676 H          2 BB2          0.0000
    43 H19        2.4524   -14.2466     7.6205 H          2 BB2          0.0000
    44 H20        0.8803   -13.6610     6.9229 H          2 BB2          0.0000
    45 H21        1.3560   -15.0323     9.6667 H          2 BB2          0.0000
    46 H22        0.0317   -12.4097     7.5164 H          2 BB2          0.0000
    47 H23       -1.2685   -10.4704     8.2971 H          2 BB2          0.0000
    48 H24       -1.7075   -12.3029    12.1251 H          2 BB2          0.0000
@<TRIPOS>BOND
     1      1      2 1
     2      1     12 1
     3      1     13 1
     4      1     14 1
     5      2      3 1
     6      3      4 2
     7      3      5 1
     8      5      6 1
     9      5      9 1
    10      5     15 1
    11      6      7 1
    12      7      8 1
    13      7     16 1
    14      7     17 1
    15      8      9 1
    16      8     18 1
    17      8     19 1
    18      9     10 1
    19      9     11 1
    20     10     20 1
    21     10     21 1
    22     10     22 1
    23     11     23 1
    24     11     24 1
    25     11     25 1
    26     26     27 2
    27     27     28 1
    28     28     29 1
    29     28     31 1
    30     28     40 1
    31     29     30 1
    32     29     41 1
    33     29     42 1
    34     30     31 1
    35     30     43 1
    36     30     44 1
    37     31     32 1
    38     31     45 1
    39     32     33 ar
    40     32     38 ar
    41     33     34 ar
    42     33     46 1
    43     34     35 ar
    44     34     47 1
    45     35     36 1
    46     35     37 ar
    47     37     38 ar
    48     37     48 1
    49     38     39 1
    50      6     27 am
@<TRIPOS>SUBSTRUCTURE
     1 BB1           6
     2 BB2          27
@<TRIPOS>MOLECULE
EN300-703997_i001_EN300-306118_i001_4_10_1
  47   49   2   0   0
SMALL
USER_CHARGES
@<TRIPOS>ATOM
     1 C1        -0.6971   -21.4979    12.2126 C.3        1 BB1          0.0000
     2 O2        -0.7338   -20.1429    12.7333 O.3        1 BB1          0.0000
     3 C3        -0.0740   -19.2043    12.0367 C.2        1 BB1          0.0000
     4 O4         0.5026   -19.5021    11.0175 O.2        1 BB1          0.0000
     5 C5        -0.0522   -17.7791    12.5258 C.3        1 BB1          0.0000
     6 N6         0.6165   -16.9146    11.5294 N.am       1 BB1          0.0000
     7 C7         1.3530   -15.8893    12.3120 C.3        1 BB1          0.0000
     8 C8         1.9099   -16.6933    13.5138 C.3        1 BB1          0.0000
     9 C9         0.7650   -17.6835    13.8275 C.3        1 BB1          0.0000
    10 C10       -0.1068   -17.1448    14.9636 C.3        1 BB1          0.0000
    11 C11        1.3351   -19.0541    14.1984 C.3        1 BB1          0.0000
    12 H12       -1.1319   -21.5150    11.2133 H          1 BB1          0.0000
    13 H13        0.3364   -21.8410    12.1650 H          1 BB1          0.0000
    14 H14       -1.2681   -22.1548    12.8687 H          1 BB1          0.0000
    15 H15       -1.0705   -17.4298    12.6967 H          1 BB1          0.0000
    16 H16        2.1661   -15.4660    11.7224 H          1 BB1          0.0000
    17 H17        0.6760   -15.1063    12.6536 H          1 BB1          0.0000
    18 H18        2.8168   -17.2286    13.2327 H          1 BB1          0.0000
    19 H19        2.0960   -16.0369    14.3639 H          1 BB1          0.0000
    20 H20       -0.5148   -16.1747    14.6796 H          1 BB1          0.0000
    21 H21       -0.9237   -17.8403    15.1560 H          1 BB1          0.0000
    22 H22        0.4970   -17.0353    15.8644 H          1 BB1          0.0000
    23 H23        1.9515   -18.9613    15.0926 H          1 BB1          0.0000
    24 H24        0.5168   -19.7478    14.3916 H          1 BB1          0.0000
    25 H25        1.9431   -19.4295    13.3754 H          1 BB1          0.0000
    26 C2         0.1195   -14.4038    10.7566 C.2        2 BB2          0.0000
    27 O3         0.6856   -15.3919    11.2023 O.2        2 BB2          0.0000
    28 C4         0.4114   -13.9416     9.3863 C.ar       2 BB2          0.0000
    29 C5         0.5717   -14.8674     8.3525 C.ar       2 BB2          0.0000
    30 C6         0.8445   -14.4280     7.0737 C.ar       2 BB2          0.0000
    31 C7         0.9599   -13.0739     6.8139 C.ar       2 BB2          0.0000
    32 C8         0.8024   -12.1509     7.8331 C.ar       2 BB2          0.0000
    33 C9         0.5231   -12.5754     9.1151 C.ar       2 BB2          0.0000
    34 C10        0.3514   -11.5687    10.2234 C.3        2 BB2          0.0000
    35 N11       -1.0436   -11.1231    10.2665 N.pl3      2 BB2          0.0000
    36 C12       -1.4690    -9.8410    10.1885 C.2        2 BB2          0.0000
    37 C13       -2.8194    -9.8863    10.2682 C.2        2 BB2          0.0000
    38 N14       -3.1497   -11.1769    10.3896 N.2        2 BB2          0.0000
    39 N15       -2.0753   -11.8843    10.3797 N.2        2 BB2          0.0000
    40 H16        0.4826   -15.9247     8.5541 H          2 BB2          0.0000
    41 H17        0.9688   -15.1425     6.2735 H          2 BB2          0.0000
    42 H18        1.1744   -12.7356     5.8108 H          2 BB2          0.0000
    43 H19        0.8941   -11.0955     7.6231 H          2 BB2          0.0000
    44 H20        0.6156   -12.0283    11.1758 H          2 BB2          0.0000
    45 H21        1.0008   -10.7127    10.0405 H          2 BB2          0.0000
    46 H22       -0.8546    -8.9590    10.0839 H          2 BB2          0.0000
    47 H23       -3.4970    -9.0458    10.2398 H          2 BB2          0.0000
@<TRIPOS>BOND
     1      1      2 1
     2      1     12 1
     3      1     13 1
     4      1     14 1
     5      2      3 1
     6      3      4 2
     7      3      5 1
     8      5      6 1
     9      5      9 1
    10      5     15 1
    11      6      7 1
    12      7      8 1
    13      7     16 1
    14      7     17 1
    15      8      9 1
    16      8     18 1
    17      8     19 1
    18      9     10 1
    19      9     11 1
    20     10     20 1
    21     10     21 1
    22     10     22 1
    23     11     23 1
    24     11     24 1
    25     11     25 1
    26     26     27 2
    27     26     28 1
    28     28     29 ar
    29     28     33 ar
    30     29     30 ar
    31     29     40 1
    32     30     31 ar
    33     30     41 1
    34     31     32 ar
    35     31     42 1
    36     32     33 ar
    37     32     43 1
    38     33     34 1
    39     34     35 1
    40     34     44 1
    41     34     45 1
    42     35     36 1
    43     35     39 1
    44     36     37 2
    45     36     46 1
    46     37     38 1
    47     37     47 1
    48     38     39 2
    49      6     26 am
@<TRIPOS>SUBSTRUCTURE
     1 BB1           6
     2 BB2          26
@<TRIPOS>MOLECULE
EN300-703997_i001_EN300-306118_i001_4_13_1
  47   49   2   0   0
SMALL
USER_CHARGES
@<TRIPOS>ATOM
     1 C1        -0.6971   -21.4979    12.2126 C.3        1 BB1          0.0000
     2 O2        -0.7338   -20.1429    12.7333 O.3        1 BB1          0.0000
     3 C3        -0.0740   -19.2043    12.0367 C.2        1 BB1          0.0000
     4 O4         0.5026   -19.5021    11.0175 O.2        1 BB1          0.0000
     5 C5        -0.0522   -17.7791    12.5258 C.3        1 BB1          0.0000
     6 N6         0.6165   -16.9146    11.5294 N.am       1 BB1          0.0000
     7 C7         1.3530   -15.8893    12.3120 C.3        1 BB1          0.0000
     8 C8         1.9099   -16.6933    13.5138 C.3        1 BB1          0.0000
     9 C9         0.7650   -17.6835    13.8275 C.3        1 BB1          0.0000
    10 C10       -0.1068   -17.1448    14.9636 C.3        1 BB1          0.0000
    11 C11        1.3351   -19.0541    14.1984 C.3        1 BB1          0.0000
    12 H12       -1.1319   -21.5150    11.2133 H          1 BB1          0.0000
    13 H13        0.3364   -21.8410    12.1650 H          1 BB1          0.0000
    14 H14       -1.2681   -22.1548    12.8687 H          1 BB1          0.0000
    15 H15       -1.0705   -17.4298    12.6967 H          1 BB1          0.0000
    16 H16        2.1661   -15.4660    11.7224 H          1 BB1          0.0000
    17 H17        0.6760   -15.1063    12.6536 H          1 BB1          0.0000
    18 H18        2.8168   -17.2286    13.2327 H          1 BB1          0.0000
    19 H19        2.0960   -16.0369    14.3639 H          1 BB1          0.0000
    20 H20       -0.5148   -16.1747    14.6796 H          1 BB1          0.0000
    21 H21       -0.9237   -17.8403    15.1560 H          1 BB1          0.0000
    22 H22        0.4970   -17.0353    15.8644 H          1 BB1          0.0000
    23 H23        1.9515   -18.9613    15.0926 H          1 BB1          0.0000
    24 H24        0.5168   -19.7478    14.3916 H          1 BB1          0.0000
    25 H25        1.9431   -19.4295    13.3754 H          1 BB1          0.0000
    26 O1        -0.3061   -15.6175    10.8075 O.2        2 BB2          0.0000
    27 C2        -0.2542   -14.4147    11.0220 C.2        2 BB2          0.0000
    28 C4        -0.0888   -13.4717     9.8995 C.ar       2 BB2          0.0000
    29 C5         0.7755   -13.7793     8.8460 C.ar       2 BB2          0.0000
    30 C6         0.9252   -12.8927     7.7999 C.ar       2 BB2          0.0000
    31 C7         0.2221   -11.7011     7.7926 C.ar       2 BB2          0.0000
    32 C8        -0.6359   -11.3897     8.8329 C.ar       2 BB2          0.0000
    33 C9        -0.8003   -12.2692     9.8823 C.ar       2 BB2          0.0000
    34 C10       -1.7356   -11.9285    11.0138 C.3        2 BB2          0.0000
    35 N11       -2.8881   -11.1914    10.4898 N.pl3      2 BB2          0.0000
    36 C12       -3.9824   -11.7380     9.9113 C.2        2 BB2          0.0000
    37 C13       -4.7891   -10.7036     9.5780 C.2        2 BB2          0.0000
    38 N14       -4.1572    -9.5894     9.9637 N.2        2 BB2          0.0000
    39 N15       -3.0361    -9.9129    10.5053 N.2        2 BB2          0.0000
    40 H16        1.3254   -14.7088     8.8509 H          2 BB2          0.0000
    41 H17        1.5931   -13.1291     6.9848 H          2 BB2          0.0000
    42 H18        0.3438   -11.0104     6.9712 H          2 BB2          0.0000
    43 H19       -1.1813   -10.4576     8.8207 H          2 BB2          0.0000
    44 H20       -2.0780   -12.8466    11.4912 H          2 BB2          0.0000
    45 H21       -1.2121   -11.3124    11.7448 H          2 BB2          0.0000
    46 H22       -4.1735   -12.7883     9.7481 H          2 BB2          0.0000
    47 H23       -5.7532   -10.7654     9.0952 H          2 BB2          0.0000
@<TRIPOS>BOND
     1      1      2 1
     2      1     12 1
     3      1     13 1
     4      1     14 1
     5      2      3 1
     6      3      4 2
     7      3      5 1
     8      5      6 1
     9      5      9 1
    10      5     15 1
    11      6      7 1
    12      7      8 1
    13      7     16 1
    14      7     17 1
    15      8      9 1
    16      8     18 1
    17      8     19 1
    18      9     10 1
    19      9     11 1
    20     10     20 1
    21     10     21 1
    22     10     22 1
    23     11     23 1
    24     11     24 1
    25     11     25 1
    26     26     27 2
    27     27     28 1
    28     28     29 ar
    29     28     33 ar
    30     29     30 ar
    31     29     40 1
    32     30     31 ar
    33     30     41 1
    34     31     32 ar
    35     31     42 1
    36     32     33 ar
    37     32     43 1
    38     33     34 1
    39     34     35 1
    40     34     44 1
    41     34     45 1
    42     35     36 1
    43     35     39 1
    44     36     37 2
    45     36     46 1
    46     37     38 1
    47     37     47 1
    48     38     39 2
    49      6     27 am
@<TRIPOS>SUBSTRUCTURE
     1 BB1           6
     2 BB2          27
@<TRIPOS>MOLECULE
EN300-703997_i001_EN300-306118_i001_4_2_1
  47   49   2   0   0
SMALL
USER_CHARGES
@<TRIPOS>ATOM
     1 C1        -0.6971   -21.4979    12.2126 C.3        1 BB1          0.0000
     2 O2        -0.7338   -20.1429    12.7333 O.3        1 BB1          0.0000
     3 C3        -0.0740   -19.2043    12.0367 C.2        1 BB1          0.0000
     4 O4         0.5026   -19.5021    11.0175 O.2        1 BB1          0.0000
     5 C5        -0.0522   -17.7791    12.5258 C.3        1 BB1          0.0000
     6 N6         0.6165   -16.9146    11.5294 N.am       1 BB1          0.0000
     7 C7         1.3530   -15.8893    12.3120 C.3        1 BB1          0.0000
     8 C8         1.9099   -16.6933    13.5138 C.3        1 BB1          0.0000
     9 C9         0.7650   -17.6835    13.8275 C.3        1 BB1          0.0000
    10 C10       -0.1068   -17.1448    14.9636 C.3        1 BB1          0.0000
    11 C11        1.3351   -19.0541    14.1984 C.3        1 BB1          0.0000
    12 H12       -1.1319   -21.5150    11.2133 H          1 BB1          0.0000
    13 H13        0.3364   -21.8410    12.1650 H          1 BB1          0.0000
    14 H14       -1.2681   -22.1548    12.8687 H          1 BB1          0.0000
    15 H15       -1.0705   -17.4298    12.6967 H          1 BB1          0.0000
    16 H16        2.1661   -15.4660    11.7224 H          1 BB1          0.0000
    17 H17        0.6760   -15.1063    12.6536 H          1 BB1          0.0000
    18 H18        2.8168   -17.2286    13.2327 H          1 BB1          0.0000
    19 H19        2.0960   -16.0369    14.3639 H          1 BB1          0.0000
    20 H20       -0.5148   -16.1747    14.6796 H          1 BB1          0.0000
    21 H21       -0.9237   -17.8403    15.1560 H          1 BB1          0.0000
    22 H22        0.4970   -17.0353    15.8644 H          1 BB1          0.0000
    23 H23        1.9515   -18.9613    15.0926 H          1 BB1          0.0000
    24 H24        0.5168   -19.7478    14.3916 H          1 BB1          0.0000
    25 H25        1.9431   -19.4295    13.3754 H          1 BB1          0.0000
    26 C2         0.6326   -14.8679    11.1794 C.2        2 BB2          0.0000
    27 O3         1.7065   -15.2466    11.6254 O.2        2 BB2          0.0000
    28 C4         0.5817   -14.1401     9.8971 C.ar       2 BB2          0.0000
    29 C5         1.3893   -14.5408     8.8300 C.ar       2 BB2          0.0000
    30 C6         1.3364   -13.8555     7.6340 C.ar       2 BB2          0.0000
    31 C7         0.4864   -12.7733     7.4900 C.ar       2 BB2          0.0000
    32 C8        -0.3166   -12.3706     8.5429 C.ar       2 BB2          0.0000
    33 C9        -0.2789   -13.0501     9.7423 C.ar       2 BB2          0.0000
    34 C10       -1.1546   -12.6104    10.8873 C.3        2 BB2          0.0000
    35 N11       -2.0673   -11.5601    10.4288 N.pl3      2 BB2          0.0000
    36 C12       -1.7295   -10.2775    10.1613 C.2        2 BB2          0.0000
    37 C13       -2.8693    -9.6610     9.7705 C.2        2 BB2          0.0000
    38 N14       -3.8360   -10.5845     9.8175 N.2        2 BB2          0.0000
    39 N15       -3.3272   -11.7003    10.2060 N.2        2 BB2          0.0000
    40 H16        2.0538   -15.3849     8.9414 H          2 BB2          0.0000
    41 H17        1.9603   -14.1641     6.8083 H          2 BB2          0.0000
    42 H18        0.4497   -12.2400     6.5515 H          2 BB2          0.0000
    43 H19       -0.9775   -11.5248     8.4234 H          2 BB2          0.0000
    44 H20       -1.7320   -13.4605    11.2504 H          2 BB2          0.0000
    45 H21       -0.5313   -12.2235    11.6935 H          2 BB2          0.0000
    46 H22       -0.7479    -9.8347    10.2433 H          2 BB2          0.0000
    47 H23       -2.9773    -8.6269     9.4786 H          2 BB2          0.0000
@<TRIPOS>BOND
     1      1      2 1
     2      1     12 1
     3      1     13 1
     4      1     14 1
     5      2      3 1
     6      3      4 2
     7      3      5 1
     8      5      6 1
     9      5      9 1
    10      5     15 1
    11      6      7 1
    12      7      8 1
    13      7     16 1
    14      7     17 1
    15      8      9 1
    16      8     18 1
    17      8     19 1
    18      9     10 1
    19      9     11 1
    20     10     20 1
    21     10     21 1
    22     10     22 1
    23     11     23 1
    24     11     24 1
    25     11     25 1
    26     26     27 2
    27     26     28 1
    28     28     29 ar
    29     28     33 ar
    30     29     30 ar
    31     29     40 1
    32     30     31 ar
    33     30     41 1
    34     31     32 ar
    35     31     42 1
    36     32     33 ar
    37     32     43 1
    38     33     34 1
    39     34     35 1
    40     34     44 1
    41     34     45 1
    42     35     36 1
    43     35     39 1
    44     36     37 2
    45     36     46 1
    46     37     38 1
    47     37     47 1
    48     38     39 2
    49      6     26 am
@<TRIPOS>SUBSTRUCTURE
     1 BB1           6
     2 BB2          26
@<TRIPOS>MOLECULE
EN300-703997_i001_EN300-306118_i001_4_4_1
  47   49   2   0   0
SMALL
USER_CHARGES
@<TRIPOS>ATOM
     1 C1        -0.6971   -21.4979    12.2126 C.3        1 BB1          0.0000
     2 O2        -0.7338   -20.1429    12.7333 O.3        1 BB1          0.0000
     3 C3        -0.0740   -19.2043    12.0367 C.2        1 BB1          0.0000
     4 O4         0.5026   -19.5021    11.0175 O.2        1 BB1          0.0000
     5 C5        -0.0522   -17.7791    12.5258 C.3        1 BB1          0.0000
     6 N6         0.6165   -16.9146    11.5294 N.am       1 BB1          0.0000
     7 C7         1.3530   -15.8893    12.3120 C.3        1 BB1          0.0000
     8 C8         1.9099   -16.6933    13.5138 C.3        1 BB1          0.0000
     9 C9         0.7650   -17.6835    13.8275 C.3        1 BB1          0.0000
    10 C10       -0.1068   -17.1448    14.9636 C.3        1 BB1          0.0000
    11 C11        1.3351   -19.0541    14.1984 C.3        1 BB1          0.0000
    12 H12       -1.1319   -21.5150    11.2133 H          1 BB1          0.0000
    13 H13        0.3364   -21.8410    12.1650 H          1 BB1          0.0000
    14 H14       -1.2681   -22.1548    12.8687 H          1 BB1          0.0000
    15 H15       -1.0705   -17.4298    12.6967 H          1 BB1          0.0000
    16 H16        2.1661   -15.4660    11.7224 H          1 BB1          0.0000
    17 H17        0.6760   -15.1063    12.6536 H          1 BB1          0.0000
    18 H18        2.8168   -17.2286    13.2327 H          1 BB1          0.0000
    19 H19        2.0960   -16.0369    14.3639 H          1 BB1          0.0000
    20 H20       -0.5148   -16.1747    14.6796 H          1 BB1          0.0000
    21 H21       -0.9237   -17.8403    15.1560 H          1 BB1          0.0000
    22 H22        0.4970   -17.0353    15.8644 H          1 BB1          0.0000
    23 H23        1.9515   -18.9613    15.0926 H          1 BB1          0.0000
    24 H24        0.5168   -19.7478    14.3916 H          1 BB1          0.0000
    25 H25        1.9431   -19.4295    13.3754 H          1 BB1          0.0000
    26 C2         0.0232   -14.5029    10.8440 C.2        2 BB2          0.0000
    27 O3         0.5964   -15.4713    11.3227 O.2        2 BB2          0.0000
    28 C4         0.1943   -14.1761     9.4156 C.ar       2 BB2          0.0000
    29 C5         0.2000   -15.1937     8.4585 C.ar       2 BB2          0.0000
    30 C6         0.3606   -14.8807     7.1247 C.ar       2 BB2          0.0000
    31 C7         0.5162   -13.5625     6.7340 C.ar       2 BB2          0.0000
    32 C8         0.5116   -12.5491     7.6766 C.ar       2 BB2          0.0000
    33 C9         0.3458   -12.8466     9.0128 C.ar       2 BB2          0.0000
    34 C10        0.3405   -11.7416    10.0376 C.3        2 BB2          0.0000
    35 N11       -0.8775   -10.9417     9.8869 N.pl3      2 BB2          0.0000
    36 C12       -1.9601   -10.9853    10.6975 C.2        2 BB2          0.0000
    37 C13       -2.8435   -10.0913    10.1954 C.2        2 BB2          0.0000
    38 N14       -2.2659    -9.5516     9.1162 N.2        2 BB2          0.0000
    39 N15       -1.0997   -10.0726     8.9638 N.2        2 BB2          0.0000
    40 H16        0.0794   -16.2231     8.7623 H          2 BB2          0.0000
    41 H17        0.3653   -15.6663     6.3837 H          2 BB2          0.0000
    42 H18        0.6423   -13.3234     5.6883 H          2 BB2          0.0000
    43 H19        0.6339   -11.5225     7.3644 H          2 BB2          0.0000
    44 H20        0.3700   -12.1736    11.0379 H          2 BB2          0.0000
    45 H21        1.2134   -11.1056     9.8906 H          2 BB2          0.0000
    46 H22       -2.0926   -11.6083    11.5697 H          2 BB2          0.0000
    47 H23       -3.8224    -9.8595    10.5883 H          2 BB2          0.0000
@<TRIPOS>BOND
     1      1      2 1
     2      1     12 1
     3      1     13 1
     4      1     14 1
     5      2      3 1
     6      3      4 2
     7      3      5 1
     8      5      6 1
     9      5      9 1
    10      5     15 1
    11      6      7 1
    12      7      8 1
    13      7     16 1
    14      7     17 1
    15      8      9 1
    16      8     18 1
    17      8     19 1
    18      9     10 1
    19      9     11 1
    20     10     20 1
    21     10     21 1
    22     10     22 1
    23     11     23 1
    24     11     24 1
    25     11     25 1
    26     26     27 2
    27     26     28 1
    28     28     29 ar
    29     28     33 ar
    30     29     30 ar
    31     29     40 1
    32     30     31 ar
    33     30     41 1
    34     31     32 ar
    35     31     42 1
    36     32     33 ar
    37     32     43 1
    38     33     34 1
    39     34     35 1
    40     34     44 1
    41     34     45 1
    42     35     36 1
    43     35     39 1
    44     36     37 2
    45     36     46 1
    46     37     38 1
    47     37     47 1
    48     38     39 2
    49      6     26 am
@<TRIPOS>SUBSTRUCTURE
     1 BB1           6
     2 BB2          26
@<TRIPOS>MOLECULE
EN300-703997_i001_EN300-306118_i001_4_7_1
  47   49   2   0   0
SMALL
USER_CHARGES
@<TRIPOS>ATOM
     1 C1        -0.6971   -21.4979    12.2126 C.3        1 BB1          0.0000
     2 O2        -0.7338   -20.1429    12.7333 O.3        1 BB1          0.0000
     3 C3        -0.0740   -19.2043    12.0367 C.2        1 BB1          0.0000
     4 O4         0.5026   -19.5021    11.0175 O.2        1 BB1          0.0000
     5 C5        -0.0522   -17.7791    12.5258 C.3        1 BB1          0.0000
     6 N6         0.6165   -16.9146    11.5294 N.am       1 BB1          0.0000
     7 C7         1.3530   -15.8893    12.3120 C.3        1 BB1          0.0000
     8 C8         1.9099   -16.6933    13.5138 C.3        1 BB1          0.0000
     9 C9         0.7650   -17.6835    13.8275 C.3        1 BB1          0.0000
    10 C10       -0.1068   -17.1448    14.9636 C.3        1 BB1          0.0000
    11 C11        1.3351   -19.0541    14.1984 C.3        1 BB1          0.0000
    12 H12       -1.1319   -21.5150    11.2133 H          1 BB1          0.0000
    13 H13        0.3364   -21.8410    12.1650 H          1 BB1          0.0000
    14 H14       -1.2681   -22.1548    12.8687 H          1 BB1          0.0000
    15 H15       -1.0705   -17.4298    12.6967 H          1 BB1          0.0000
    16 H16        2.1661   -15.4660    11.7224 H          1 BB1          0.0000
    17 H17        0.6760   -15.1063    12.6536 H          1 BB1          0.0000
    18 H18        2.8168   -17.2286    13.2327 H          1 BB1          0.0000
    19 H19        2.0960   -16.0369    14.3639 H          1 BB1          0.0000
    20 H20       -0.5148   -16.1747    14.6796 H          1 BB1          0.0000
    21 H21       -0.9237   -17.8403    15.1560 H          1 BB1          0.0000
    22 H22        0.4970   -17.0353    15.8644 H          1 BB1          0.0000
    23 H23        1.9515   -18.9613    15.0926 H          1 BB1          0.0000
    24 H24        0.5168   -19.7478    14.3916 H          1 BB1          0.0000
    25 H25        1.9431   -19.4295    13.3754 H          1 BB1          0.0000
    26 C2         0.3107   -14.7692    11.2595 C.2        2 BB2          0.0000
    27 O3         1.3333   -15.2930    11.6783 O.2        2 BB2          0.0000
    28 C4         0.2910   -14.1590     9.9165 C.ar       2 BB2          0.0000
    29 C5         0.9400   -14.7869     8.8506 C.ar       2 BB2          0.0000
    30 C6         0.9175   -14.2104     7.5976 C.ar       2 BB2          0.0000
    31 C7         0.2545   -13.0130     7.3953 C.ar       2 BB2          0.0000
    32 C8        -0.3907   -12.3851     8.4465 C.ar       2 BB2          0.0000
    33 C9        -0.3818   -12.9530     9.7032 C.ar       2 BB2          0.0000
    34 C10       -1.0854   -12.2680    10.8464 C.3        2 BB2          0.0000
    35 N11       -1.9001   -11.1660    10.3286 N.pl3      2 BB2          0.0000
    36 C12       -3.2480   -11.0736    10.4030 C.2        2 BB2          0.0000
    37 C13       -3.5794    -9.9055     9.8051 C.2        2 BB2          0.0000
    38 N14       -2.4331    -9.3478     9.3992 N.2        2 BB2          0.0000
    39 N15       -1.4563   -10.1169     9.7294 N.2        2 BB2          0.0000
    40 H16        1.4585   -15.7213     9.0074 H          2 BB2          0.0000
    41 H17        1.4188   -14.6947     6.7727 H          2 BB2          0.0000
    42 H18        0.2408   -12.5658     6.4122 H          2 BB2          0.0000
    43 H19       -0.9059   -11.4505     8.2813 H          2 BB2          0.0000
    44 H20       -1.7270   -12.9843    11.3596 H          2 BB2          0.0000
    45 H21       -0.3465   -11.8763    11.5454 H          2 BB2          0.0000
    46 H22       -3.9235   -11.7882    10.8496 H          2 BB2          0.0000
    47 H23       -4.5737    -9.5029     9.6797 H          2 BB2          0.0000
@<TRIPOS>BOND
     1      1      2 1
     2      1     12 1
     3      1     13 1
     4      1     14 1
     5      2      3 1
     6      3      4 2
     7      3      5 1
     8      5      6 1
     9      5      9 1
    10      5     15 1
    11      6      7 1
    12      7      8 1
    13      7     16 1
    14      7     17 1
    15      8      9 1
    16      8     18 1
    17      8     19 1
    18      9     10 1
    19      9     11 1
    20     10     20 1
    21     10     21 1
    22     10     22 1
    23     11     23 1
    24     11     24 1
    25     11     25 1
    26     26     27 2
    27     26     28 1
    28     28     29 ar
    29     28     33 ar
    30     29     30 ar
    31     29     40 1
    32     30     31 ar
    33     30     41 1
    34     31     32 ar
    35     31     42 1
    36     32     33 ar
    37     32     43 1
    38     33     34 1
    39     34     35 1
    40     34     44 1
    41     34     45 1
    42     35     36 1
    43     35     39 1
    44     36     37 2
    45     36     46 1
    46     37     38 1
    47     37     47 1
    48     38     39 2
    49      6     26 am
@<TRIPOS>SUBSTRUCTURE
     1 BB1           6
     2 BB2          26
@<TRIPOS>MOLECULE
EN300-703997_i001_EN300-315786_i001_4_12_1
  53   55   2   0   0
SMALL
USER_CHARGES
@<TRIPOS>ATOM
     1 C1        -0.6971   -21.4979    12.2126 C.3        1 BB1          0.0000
     2 O2        -0.7338   -20.1429    12.7333 O.3        1 BB1          0.0000
     3 C3        -0.0740   -19.2043    12.0367 C.2        1 BB1          0.0000
     4 O4         0.5026   -19.5021    11.0175 O.2        1 BB1          0.0000
     5 C5        -0.0522   -17.7791    12.5258 C.3        1 BB1          0.0000
     6 N6         0.6165   -16.9146    11.5294 N.am       1 BB1          0.0000
     7 C7         1.3530   -15.8893    12.3120 C.3        1 BB1          0.0000
     8 C8         1.9099   -16.6933    13.5138 C.3        1 BB1          0.0000
     9 C9         0.7650   -17.6835    13.8275 C.3        1 BB1          0.0000
    10 C10       -0.1068   -17.1448    14.9636 C.3        1 BB1          0.0000
    11 C11        1.3351   -19.0541    14.1984 C.3        1 BB1          0.0000
    12 H12       -1.1319   -21.5150    11.2133 H          1 BB1          0.0000
    13 H13        0.3364   -21.8410    12.1650 H          1 BB1          0.0000
    14 H14       -1.2681   -22.1548    12.8687 H          1 BB1          0.0000
    15 H15       -1.0705   -17.4298    12.6967 H          1 BB1          0.0000
    16 H16        2.1661   -15.4660    11.7224 H          1 BB1          0.0000
    17 H17        0.6760   -15.1063    12.6536 H          1 BB1          0.0000
    18 H18        2.8168   -17.2286    13.2327 H          1 BB1          0.0000
    19 H19        2.0960   -16.0369    14.3639 H          1 BB1          0.0000
    20 H20       -0.5148   -16.1747    14.6796 H          1 BB1          0.0000
    21 H21       -0.9237   -17.8403    15.1560 H          1 BB1          0.0000
    22 H22        0.4970   -17.0353    15.8644 H          1 BB1          0.0000
    23 H23        1.9515   -18.9613    15.0926 H          1 BB1          0.0000
    24 H24        0.5168   -19.7478    14.3916 H          1 BB1          0.0000
    25 H25        1.9431   -19.4295    13.3754 H          1 BB1          0.0000
    26 C2        -0.6251   -18.1724     9.2095 C.2        2 BB2          0.0000
    27 O3        -0.0733   -18.9094    10.0140 O.2        2 BB2          0.0000
    28 C4        -0.4147   -16.7114     9.2806 C.ar       2 BB2          0.0000
    29 C5        -0.2275   -16.0918    10.5182 C.ar       2 BB2          0.0000
    30 C6        -0.0313   -14.7292    10.5836 C.ar       2 BB2          0.0000
    31 C7        -0.0197   -13.9686     9.4139 C.ar       2 BB2          0.0000
    32 C8        -0.2067   -14.5870     8.1770 C.ar       2 BB2          0.0000
    33 C9        -0.3973   -15.9503     8.1096 C.ar       2 BB2          0.0000
    34 C10        0.1906   -12.5044     9.4851 C.2        2 BB2          0.0000
    35 O11        1.1512   -12.0012     8.9367 O.2        2 BB2          0.0000
    36 N12       -0.6833   -11.7300    10.1581 N.am       2 BB2          0.0000
    37 C13       -0.5419   -10.2653    10.1734 C.3        2 BB2          0.0000
    38 C14       -1.8912    -9.6453     9.7929 C.3        2 BB2          0.0000
    39 O15       -2.9134   -10.1931    10.6287 O.3        2 BB2          0.0000
    40 C16       -3.0951   -11.6037    10.4829 C.3        2 BB2          0.0000
    41 C17       -1.8107   -12.3237    10.8942 C.3        2 BB2          0.0000
    42 H18       -0.2367   -16.6803    11.4237 H          2 BB2          0.0000
    43 H19        0.1132   -14.2499    11.5407 H          2 BB2          0.0000
    44 H20       -0.1981   -13.9976     7.2720 H          2 BB2          0.0000
    45 H21       -0.5417   -16.4288     7.1522 H          2 BB2          0.0000
    46 H22       -0.2543    -9.9348    11.1715 H          2 BB2          0.0000
    47 H23        0.2177    -9.9623     9.4528 H          2 BB2          0.0000
    48 H24       -1.8475    -8.5650     9.9317 H          2 BB2          0.0000
    49 H25       -2.1141    -9.8704     8.7499 H          2 BB2          0.0000
    50 H26       -3.9176   -11.9324    11.1182 H          2 BB2          0.0000
    51 H27       -3.3224   -11.8359     9.4425 H          2 BB2          0.0000
    52 H28       -1.8908   -13.3838    10.6533 H          2 BB2          0.0000
    53 H29       -1.6480   -12.2013    11.9650 H          2 BB2          0.0000
@<TRIPOS>BOND
     1      1      2 1
     2      1     12 1
     3      1     13 1
     4      1     14 1
     5      2      3 1
     6      3      4 2
     7      3      5 1
     8      5      6 1
     9      5      9 1
    10      5     15 1
    11      6      7 1
    12      7      8 1
    13      7     16 1
    14      7     17 1
    15      8      9 1
    16      8     18 1
    17      8     19 1
    18      9     10 1
    19      9     11 1
    20     10     20 1
    21     10     21 1
    22     10     22 1
    23     11     23 1
    24     11     24 1
    25     11     25 1
    26     26     27 2
    27     26     28 1
    28     28     29 ar
    29     28     33 ar
    30     29     30 ar
    31     29     42 1
    32     30     31 ar
    33     30     43 1
    34     31     32 ar
    35     31     34 1
    36     32     33 ar
    37     32     44 1
    38     33     45 1
    39     34     35 2
    40     34     36 am
    41     36     37 1
    42     36     41 1
    43     37     38 1
    44     37     46 1
    45     37     47 1
    46     38     39 1
    47     38     48 1
    48     38     49 1
    49     39     40 1
    50     40     41 1
    51     40     50 1
    52     40     51 1
    53     41     52 1
    54     41     53 1
    55      6     26 am
@<TRIPOS>SUBSTRUCTURE
     1 BB1           6
     2 BB2          26
@<TRIPOS>MOLECULE
EN300-703997_i001_EN300-194291_i002_4_16_1
  49   51   2   0   0
SMALL
USER_CHARGES
@<TRIPOS>ATOM
     1 C1        -0.6971   -21.4979    12.2126 C.3        1 BB1          0.0000
     2 O2        -0.7338   -20.1429    12.7333 O.3        1 BB1          0.0000
     3 C3        -0.0740   -19.2043    12.0367 C.2        1 BB1          0.0000
     4 O4         0.5026   -19.5021    11.0175 O.2        1 BB1          0.0000
     5 C5        -0.0522   -17.7791    12.5258 C.3        1 BB1          0.0000
     6 N6         0.6165   -16.9146    11.5294 N.am       1 BB1          0.0000
     7 C7         1.3530   -15.8893    12.3120 C.3        1 BB1          0.0000
     8 C8         1.9099   -16.6933    13.5138 C.3        1 BB1          0.0000
     9 C9         0.7650   -17.6835    13.8275 C.3        1 BB1          0.0000
    10 C10       -0.1068   -17.1448    14.9636 C.3        1 BB1          0.0000
    11 C11        1.3351   -19.0541    14.1984 C.3        1 BB1          0.0000
    12 H12       -1.1319   -21.5150    11.2133 H          1 BB1          0.0000
    13 H13        0.3364   -21.8410    12.1650 H          1 BB1          0.0000
    14 H14       -1.2681   -22.1548    12.8687 H          1 BB1          0.0000
    15 H15       -1.0705   -17.4298    12.6967 H          1 BB1          0.0000
    16 H16        2.1661   -15.4660    11.7224 H          1 BB1          0.0000
    17 H17        0.6760   -15.1063    12.6536 H          1 BB1          0.0000
    18 H18        2.8168   -17.2286    13.2327 H          1 BB1          0.0000
    19 H19        2.0960   -16.0369    14.3639 H          1 BB1          0.0000
    20 H20       -0.5148   -16.1747    14.6796 H          1 BB1          0.0000
    21 H21       -0.9237   -17.8403    15.1560 H          1 BB1          0.0000
    22 H22        0.4970   -17.0353    15.8644 H          1 BB1          0.0000
    23 H23        1.9515   -18.9613    15.0926 H          1 BB1          0.0000
    24 H24        0.5168   -19.7478    14.3916 H          1 BB1          0.0000
    25 H25        1.9431   -19.4295    13.3754 H          1 BB1          0.0000
    26 O1         0.3181   -16.2492    12.8568 O.2        2 BB2          0.0000
    27 C2         0.9864   -15.6654    12.0206 C.2        2 BB2          0.0000
    28 C4         0.3162   -15.0305    10.8295 C.3        2 BB2          0.0000
    29 C5        -0.7059   -13.9613    11.2751 C.3        2 BB2          0.0000
    30 N6        -0.6164   -12.8925    10.2732 N.am       2 BB2          0.0000
    31 C7         0.5153   -12.9905     9.5545 C.2        2 BB2          0.0000
    32 O8         0.8423   -12.2317     8.6666 O.2        2 BB2          0.0000
    33 C9         1.3218   -14.1850    10.0143 C.3        2 BB2          0.0000
    34 C10       -1.5851   -11.8982    10.0900 C.ar       2 BB2          0.0000
    35 C11       -1.1994   -10.5761     9.9146 C.ar       2 BB2          0.0000
    36 C12       -2.1559    -9.5957     9.7334 C.ar       2 BB2          0.0000
    37 C13       -3.4988    -9.9298     9.7271 C.ar       2 BB2          0.0000
    38 F14       -4.4322    -8.9694     9.5498 F          2 BB2          0.0000
    39 C15       -3.8874   -11.2498     9.9021 C.ar       2 BB2          0.0000
    40 F16       -5.1988   -11.5745     9.8952 F          2 BB2          0.0000
    41 C17       -2.9323   -12.2343    10.0779 C.ar       2 BB2          0.0000
    42 H18       -0.1577   -15.7858    10.2026 H          2 BB2          0.0000
    43 H19       -1.7111   -14.3826    11.2883 H          2 BB2          0.0000
    44 H20       -0.4442   -13.5770    12.2610 H          2 BB2          0.0000
    45 H21        2.1512   -13.8654    10.6453 H          2 BB2          0.0000
    46 H22        1.6889   -14.7501     9.1575 H          2 BB2          0.0000
    47 H23       -0.1517   -10.3141     9.9201 H          2 BB2          0.0000
    48 H24       -1.8553    -8.5674     9.5970 H          2 BB2          0.0000
    49 H25       -3.2342   -13.2622    10.2142 H          2 BB2          0.0000
@<TRIPOS>BOND
     1      1      2 1
     2      1     12 1
     3      1     13 1
     4      1     14 1
     5      2      3 1
     6      3      4 2
     7      3      5 1
     8      5      6 1
     9      5      9 1
    10      5     15 1
    11      6      7 1
    12      7      8 1
    13      7     16 1
    14      7     17 1
    15      8      9 1
    16      8     18 1
    17      8     19 1
    18      9     10 1
    19      9     11 1
    20     10     20 1
    21     10     21 1
    22     10     22 1
    23     11     23 1
    24     11     24 1
    25     11     25 1
    26     26     27 2
    27     27     28 1
    28     28     29 1
    29     28     33 1
    30     28     42 1
    31     29     30 1
    32     29     43 1
    33     29     44 1
    34     30     31 am
    35     30     34 1
    36     31     32 2
    37     31     33 1
    38     33     45 1
    39     33     46 1
    40     34     35 ar
    41     34     41 ar
    42     35     36 ar
    43     35     47 1
    44     36     37 ar
    45     36     48 1
    46     37     38 1
    47     37     39 ar
    48     39     40 1
    49     39     41 ar
    50     41     49 1
    51      6     27 am
@<TRIPOS>SUBSTRUCTURE
     1 BB1           6
     2 BB2          27
@<TRIPOS>MOLECULE
EN300-703997_i001_EN300-344045_i001_4_2_1
  54   56   2   0   0
SMALL
USER_CHARGES
@<TRIPOS>ATOM
     1 C1        -0.6971   -21.4979    12.2126 C.3        1 BB1          0.0000
     2 O2        -0.7338   -20.1429    12.7333 O.3        1 BB1          0.0000
     3 C3        -0.0740   -19.2043    12.0367 C.2        1 BB1          0.0000
     4 O4         0.5026   -19.5021    11.0175 O.2        1 BB1          0.0000
     5 C5        -0.0522   -17.7791    12.5258 C.3        1 BB1          0.0000
     6 N6         0.6165   -16.9146    11.5294 N.am       1 BB1          0.0000
     7 C7         1.3530   -15.8893    12.3120 C.3        1 BB1          0.0000
     8 C8         1.9099   -16.6933    13.5138 C.3        1 BB1          0.0000
     9 C9         0.7650   -17.6835    13.8275 C.3        1 BB1          0.0000
    10 C10       -0.1068   -17.1448    14.9636 C.3        1 BB1          0.0000
    11 C11        1.3351   -19.0541    14.1984 C.3        1 BB1          0.0000
    12 H12       -1.1319   -21.5150    11.2133 H          1 BB1          0.0000
    13 H13        0.3364   -21.8410    12.1650 H          1 BB1          0.0000
    14 H14       -1.2681   -22.1548    12.8687 H          1 BB1          0.0000
    15 H15       -1.0705   -17.4298    12.6967 H          1 BB1          0.0000
    16 H16        2.1661   -15.4660    11.7224 H          1 BB1          0.0000
    17 H17        0.6760   -15.1063    12.6536 H          1 BB1          0.0000
    18 H18        2.8168   -17.2286    13.2327 H          1 BB1          0.0000
    19 H19        2.0960   -16.0369    14.3639 H          1 BB1          0.0000
    20 H20       -0.5148   -16.1747    14.6796 H          1 BB1          0.0000
    21 H21       -0.9237   -17.8403    15.1560 H          1 BB1          0.0000
    22 H22        0.4970   -17.0353    15.8644 H          1 BB1          0.0000
    23 H23        1.9515   -18.9613    15.0926 H          1 BB1          0.0000
    24 H24        0.5168   -19.7478    14.3916 H          1 BB1          0.0000
    25 H25        1.9431   -19.4295    13.3754 H          1 BB1          0.0000
    26 O1         0.5661   -15.7707    10.9576 O.2        2 BB2          0.0000
    27 C2         0.2489   -14.5943    11.0019 C.2        2 BB2          0.0000
    28 C4         0.9922   -13.5817    10.1694 C.3        2 BB2          0.0000
    29 C5         0.0568   -13.0163     9.0988 C.3        2 BB2          0.0000
    30 C6         0.8768   -12.3025     8.0042 C.3        2 BB2          0.0000
    31 C7         1.0511   -13.3749     6.9002 C.3        2 BB2          0.0000
    32 C8        -0.3163   -14.1023     6.9114 C.3        2 BB2          0.0000
    33 C9        -0.7017   -14.1605     8.4040 C.3        2 BB2          0.0000
    34 C10       -0.9194   -12.0528     9.7233 C.ar       2 BB2          0.0000
    35 C11       -0.7018   -11.5818    11.0046 C.ar       2 BB2          0.0000
    36 C12       -1.5972   -10.6981    11.5774 C.ar       2 BB2          0.0000
    37 C13       -2.7099   -10.2850    10.8687 C.ar       2 BB2          0.0000
    38 C14       -2.9270   -10.7553     9.5871 C.ar       2 BB2          0.0000
    39 C15       -2.0292   -11.6357     9.0126 C.ar       2 BB2          0.0000
    40 H16        1.3431   -12.7722    10.8096 H          2 BB2          0.0000
    41 H17        1.8455   -14.0614     9.6898 H          2 BB2          0.0000
    42 H18        0.3298   -11.4425     7.6177 H          2 BB2          0.0000
    43 H19        1.8472   -11.9949     8.3939 H          2 BB2          0.0000
    44 H20        1.2319   -12.9071     5.9324 H          2 BB2          0.0000
    45 H21        1.8570   -14.0634     7.1543 H          2 BB2          0.0000
    46 H22       -1.0559   -13.5330     6.3483 H          2 BB2          0.0000
    47 H23       -0.2166   -15.1082     6.5036 H          2 BB2          0.0000
    48 H24       -0.4034   -15.1187     8.8294 H          2 BB2          0.0000
    49 H25       -1.7765   -14.0194     8.5179 H          2 BB2          0.0000
    50 H26        0.1674   -11.9045    11.5583 H          2 BB2          0.0000
    51 H27       -1.4278   -10.3307    12.5787 H          2 BB2          0.0000
    52 H28       -3.4099    -9.5951    11.3165 H          2 BB2          0.0000
    53 H29       -3.7964   -10.4328     9.0334 H          2 BB2          0.0000
    54 H30       -2.1987   -12.0032     8.0113 H          2 BB2          0.0000
@<TRIPOS>BOND
     1      1      2 1
     2      1     12 1
     3      1     13 1
     4      1     14 1
     5      2      3 1
     6      3      4 2
     7      3      5 1
     8      5      6 1
     9      5      9 1
    10      5     15 1
    11      6      7 1
    12      7      8 1
    13      7     16 1
    14      7     17 1
    15      8      9 1
    16      8     18 1
    17      8     19 1
    18      9     10 1
    19      9     11 1
    20     10     20 1
    21     10     21 1
    22     10     22 1
    23     11     23 1
    24     11     24 1
    25     11     25 1
    26     26     27 2
    27     27     28 1
    28     28     29 1
    29     28     40 1
    30     28     41 1
    31     29     30 1
    32     29     33 1
    33     29     34 1
    34     30     31 1
    35     30     42 1
    36     30     43 1
    37     31     32 1
    38     31     44 1
    39     31     45 1
    40     32     33 1
    41     32     46 1
    42     32     47 1
    43     33     48 1
    44     33     49 1
    45     34     35 ar
    46     34     39 ar
    47     35     36 ar
    48     35     50 1
    49     36     37 ar
    50     36     51 1
    51     37     38 ar
    52     37     52 1
    53     38     39 ar
    54     38     53 1
    55     39     54 1
    56      6     27 am
@<TRIPOS>SUBSTRUCTURE
     1 BB1           6
     2 BB2          27
@<TRIPOS>MOLECULE
EN300-703997_i001_EN300-1165841_i001_5_20_1
  53   54   2   0   0
SMALL
USER_CHARGES
@<TRIPOS>ATOM
     1 C1         0.7867   -13.1731     6.5896 C.3        1 BB1          0.0000
     2 O2        -0.0105   -12.8996     7.7719 O.3        1 BB1          0.0000
     3 C3         0.3314   -11.8268     8.5026 C.2        1 BB1          0.0000
     4 O4         0.8393   -10.8692     7.9688 O.2        1 BB1          0.0000
     5 C5         0.0817   -11.8167     9.9888 C.3        1 BB1          0.0000
     6 N6        -0.3622   -13.1553    10.4342 N.am       1 BB1          0.0000
     7 C7        -1.3485   -12.9149    11.5185 C.3        1 BB1          0.0000
     8 C8        -2.1422   -11.6855    11.0094 C.3        1 BB1          0.0000
     9 C9        -1.0524   -10.8302    10.3235 C.3        1 BB1          0.0000
    10 C10       -0.5487    -9.7462    11.2786 C.3        1 BB1          0.0000
    11 C11       -1.6014   -10.1979     9.0430 C.3        1 BB1          0.0000
    12 H12        0.7292   -12.3243     5.9082 H          1 BB1          0.0000
    13 H13        1.8245   -13.3356     6.8806 H          1 BB1          0.0000
    14 H14        0.4049   -14.0648     6.0923 H          1 BB1          0.0000
    15 H15        0.9925   -11.5329    10.5161 H          1 BB1          0.0000
    16 H16       -2.0067   -13.7755    11.6376 H          1 BB1          0.0000
    17 H17       -0.8416   -12.6845    12.4555 H          1 BB1          0.0000
    18 H18       -2.9037   -11.9886    10.2909 H          1 BB1          0.0000
    19 H19       -2.5902   -11.1437    11.8424 H          1 BB1          0.0000
    20 H20       -0.1501   -10.2126    12.1795 H          1 BB1          0.0000
    21 H21        0.2364    -9.1684    10.7908 H          1 BB1          0.0000
    22 H22       -1.3734    -9.0855    11.5458 H          1 BB1          0.0000
    23 H23       -2.4353    -9.5411     9.2907 H          1 BB1          0.0000
    24 H24       -0.8153    -9.6196     8.5574 H          1 BB1          0.0000
    25 H25       -1.9446   -10.9823     8.3686 H          1 BB1          0.0000
    26 C1         2.5764   -14.3098    10.1170 C.3        2 BB2          0.0000
    27 C2         1.1323   -14.6517    10.4890 C.3        2 BB2          0.0000
    28 N3         1.1179   -15.8348    11.3597 N.4        2 BB2          1.0000
    29 C4        -0.2523   -16.0819    11.8244 C.3        2 BB2          0.0000
    30 C5        -0.2871   -17.3595    12.6659 C.3        2 BB2          0.0000
    31 C6         0.6411   -17.1947    13.8728 C.3        2 BB2          0.0000
    32 O7         0.1639   -16.1325    14.7010 O.3        2 BB2          0.0000
    33 C8         2.0521   -16.8639    13.3779 C.3        2 BB2          0.0000
    34 C9         2.0000   -15.6046    12.5101 C.3        2 BB2          0.0000
    35 C10        0.6699   -18.4469    14.6460 C.1        2 BB2          0.0000
    36 C11        0.6930   -19.4456    15.2629 C.1        2 BB2          0.0000
    37 C12        0.3457   -14.9402     9.2365 C.2        2 BB2          0.0000
    38 O13        0.1574   -14.0566     8.4177 O.2        2 BB2          0.0000
    39 H15        3.0257   -15.1528     9.5919 H          2 BB2          0.0000
    40 H16        2.5871   -13.4320     9.4709 H          2 BB2          0.0000
    41 H17        3.1454   -14.1011    11.0230 H          2 BB2          0.0000
    42 H18        0.6830   -13.8087    11.0141 H          2 BB2          0.0000
    43 H19       -0.5877   -15.2396    12.4295 H          2 BB2          0.0000
    44 H20       -0.9122   -16.1958    10.9644 H          2 BB2          0.0000
    45 H21       -1.3049   -17.5402    13.0114 H          2 BB2          0.0000
    46 H22        0.0479   -18.2025    12.0615 H          2 BB2          0.0000
    47 H23        2.7061   -16.6903    14.2323 H          2 BB2          0.0000
    48 H24        2.4355   -17.6966    12.7883 H          2 BB2          0.0000
    49 H25        3.0030   -15.3661    12.1562 H          2 BB2          0.0000
    50 H26        1.6167   -14.7725    13.1006 H          2 BB2          0.0000
    51 H27        0.7136   -20.3388    15.8144 H          2 BB2          0.0000
    52 H28       -0.7927   -16.1435    14.8426 H          2 BB2          0.0000
    53 H29        1.4460   -16.6362    10.8419 H          2 BB2          0.0000
@<TRIPOS>BOND
     1      1      2 1
     2      1     12 1
     3      1     13 1
     4      1     14 1
     5      2      3 1
     6      3      4 2
     7      3      5 1
     8      5      6 1
     9      5      9 1
    10      5     15 1
    11      6      7 1
    12      7      8 1
    13      7     16 1
    14      7     17 1
    15      8      9 1
    16      8     18 1
    17      8     19 1
    18      9     10 1
    19      9     11 1
    20     10     20 1
    21     10     21 1
    22     10     22 1
    23     11     23 1
    24     11     24 1
    25     11     25 1
    26     26     27 1
    27     26     39 1
    28     26     40 1
    29     26     41 1
    30     27     28 1
    31     27     37 1
    32     27     42 1
    33     28     29 1
    34     28     34 1
    35     28     53 1
    36     29     30 1
    37     29     43 1
    38     29     44 1
    39     30     31 1
    40     30     45 1
    41     30     46 1
    42     31     32 1
    43     31     33 1
    44     31     35 1
    45     32     52 1
    46     33     34 1
    47     33     47 1
    48     33     48 1
    49     34     49 1
    50     34     50 1
    51     35     36 3
    52     36     51 1
    53     37     38 2
    54      6     37 am
@<TRIPOS>SUBSTRUCTURE
     1 BB1           6
     2 BB2          37
@<TRIPOS>MOLECULE
EN300-703997_i001_EN300-97777_i001_7_3_1
  53   53   2   0   0
SMALL
USER_CHARGES
@<TRIPOS>ATOM
     1 C1        -1.5965   -20.8421    13.2639 C.3        1 BB1          0.0000
     2 O2        -1.0573   -19.5185    13.0076 O.3        1 BB1          0.0000
     3 C3         0.2663   -19.4287    12.8038 C.2        1 BB1          0.0000
     4 O4         0.9448   -20.4284    12.7904 O.2        1 BB1          0.0000
     5 C5         0.9062   -18.0809    12.5917 C.3        1 BB1          0.0000
     6 N6         2.3397   -18.2490    12.2685 N.am       1 BB1          0.0000
     7 C7         3.0351   -17.0994    12.9018 C.3        1 BB1          0.0000
     8 C8         2.2984   -16.9416    14.2557 C.3        1 BB1          0.0000
     9 C9         0.8295   -17.2538    13.8884 C.3        1 BB1          0.0000
    10 C10        0.0555   -15.9565    13.6458 C.3        1 BB1          0.0000
    11 C11        0.1661   -18.0693    15.0000 C.3        1 BB1          0.0000
    12 H12       -1.3864   -21.4910    12.4137 H          1 BB1          0.0000
    13 H13       -1.1335   -21.2559    14.1598 H          1 BB1          0.0000
    14 H14       -2.6744   -20.7732    13.4107 H          1 BB1          0.0000
    15 H15        0.4021   -17.5541    11.7814 H          1 BB1          0.0000
    16 H16        4.0888   -17.3278    13.0616 H          1 BB1          0.0000
    17 H17        2.9229   -16.2005    12.2957 H          1 BB1          0.0000
    18 H18        2.6743   -17.6588    14.9853 H          1 BB1          0.0000
    19 H19        2.3940   -15.9224    14.6303 H          1 BB1          0.0000
    20 H20        0.5329   -15.3932    12.8440 H          1 BB1          0.0000
    21 H21       -0.9703   -16.1929    13.3630 H          1 BB1          0.0000
    22 H22        0.0526   -15.3592    14.5576 H          1 BB1          0.0000
    23 H23        0.1640   -17.4905    15.9236 H          1 BB1          0.0000
    24 H24       -0.8598   -18.3036    14.7158 H          1 BB1          0.0000
    25 H25        0.7212   -18.9948    15.1524 H          1 BB1          0.0000
    26 C1        -1.5392   -10.5689    11.7089 C.3        2 BB2          0.0000
    27 C2        -1.5677   -11.2425    10.3355 C.3        2 BB2          0.0000
    28 C3        -2.9433   -11.8711    10.1040 C.3        2 BB2          0.0000
    29 C4        -1.2944   -10.1995     9.2500 C.3        2 BB2          0.0000
    30 O5        -0.5485   -12.2753    10.2818 O.3        2 BB2          0.0000
    31 C6        -0.7051   -13.3319    11.1016 C.2        2 BB2          0.0000
    32 O7        -1.5463   -13.3014    11.9779 O.2        2 BB2          0.0000
    33 N8         0.0712   -14.4232    10.9502 N.am       2 BB2          0.0000
    34 C9         1.0854   -14.4598     9.8936 C.3        2 BB2          0.0000
    35 C10        0.4242   -14.4570     8.5785 C.1        2 BB2          0.0000
    36 C11       -0.1031   -14.4548     7.5296 C.1        2 BB2          0.0000
    37 C12       -0.0992   -15.5728    11.8422 C.3        2 BB2          0.0000
    38 C13        1.0675   -15.6478    12.7932 C.2        2 BB2          0.0000
    39 O14        2.2016   -15.7569    12.3594 O.2        2 BB2          0.0000
    40 H16       -1.7339   -11.3120    12.4821 H          2 BB2          0.0000
    41 H17       -0.5592   -10.1211    11.8737 H          2 BB2          0.0000
    42 H18       -2.3044    -9.7936    11.7492 H          2 BB2          0.0000
    43 H19       -3.7084   -11.0958    10.1443 H          2 BB2          0.0000
    44 H20       -2.9635   -12.3511     9.1256 H          2 BB2          0.0000
    45 H21       -3.1380   -12.6142    10.8774 H          2 BB2          0.0000
    46 H22       -0.3143    -9.7517     9.4149 H          2 BB2          0.0000
    47 H23       -1.3146   -10.6794     8.2715 H          2 BB2          0.0000
    48 H24       -2.0595    -9.4243     9.2903 H          2 BB2          0.0000
    49 H25        1.7298   -13.5849     9.9782 H          2 BB2          0.0000
    50 H26        1.6851   -15.3641     9.9968 H          2 BB2          0.0000
    51 H27       -0.5748   -14.4528     6.5915 H          2 BB2          0.0000
    52 H28       -1.0232   -15.4590    12.4091 H          2 BB2          0.0000
    53 H29       -0.1456   -16.4875    11.2513 H          2 BB2          0.0000
@<TRIPOS>BOND
     1      1      2 1
     2      1     12 1
     3      1     13 1
     4      1     14 1
     5      2      3 1
     6      3      4 2
     7      3      5 1
     8      5      6 1
     9      5      9 1
    10      5     15 1
    11      6      7 1
    12      7      8 1
    13      7     16 1
    14      7     17 1
    15      8      9 1
    16      8     18 1
    17      8     19 1
    18      9     10 1
    19      9     11 1
    20     10     20 1
    21     10     21 1
    22     10     22 1
    23     11     23 1
    24     11     24 1
    25     11     25 1
    26     26     27 1
    27     26     40 1
    28     26     41 1
    29     26     42 1
    30     27     28 1
    31     27     29 1
    32     27     30 1
    33     28     43 1
    34     28     44 1
    35     28     45 1
    36     29     46 1
    37     29     47 1
    38     29     48 1
    39     30     31 1
    40     31     32 2
    41     31     33 am
    42     33     34 1
    43     33     37 1
    44     34     35 1
    45     34     49 1
    46     34     50 1
    47     35     36 3
    48     36     51 1
    49     37     38 1
    50     37     52 1
    51     37     53 1
    52     38     39 2
    53      6     38 am
@<TRIPOS>SUBSTRUCTURE
     1 BB1           6
     2 BB2          38
@<TRIPOS>MOLECULE
EN300-703997_i001_EN300-194291_i002_7_16_1
  49   51   2   0   0
SMALL
USER_CHARGES
@<TRIPOS>ATOM
     1 C1        -1.5965   -20.8421    13.2639 C.3        1 BB1          0.0000
     2 O2        -1.0573   -19.5185    13.0076 O.3        1 BB1          0.0000
     3 C3         0.2663   -19.4287    12.8038 C.2        1 BB1          0.0000
     4 O4         0.9448   -20.4284    12.7904 O.2        1 BB1          0.0000
     5 C5         0.9062   -18.0809    12.5917 C.3        1 BB1          0.0000
     6 N6         2.3397   -18.2490    12.2685 N.am       1 BB1          0.0000
     7 C7         3.0351   -17.0994    12.9018 C.3        1 BB1          0.0000
     8 C8         2.2984   -16.9416    14.2557 C.3        1 BB1          0.0000
     9 C9         0.8295   -17.2538    13.8884 C.3        1 BB1          0.0000
    10 C10        0.0555   -15.9565    13.6458 C.3        1 BB1          0.0000
    11 C11        0.1661   -18.0693    15.0000 C.3        1 BB1          0.0000
    12 H12       -1.3864   -21.4910    12.4137 H          1 BB1          0.0000
    13 H13       -1.1335   -21.2559    14.1598 H          1 BB1          0.0000
    14 H14       -2.6744   -20.7732    13.4107 H          1 BB1          0.0000
    15 H15        0.4021   -17.5541    11.7814 H          1 BB1          0.0000
    16 H16        4.0888   -17.3278    13.0616 H          1 BB1          0.0000
    17 H17        2.9229   -16.2005    12.2957 H          1 BB1          0.0000
    18 H18        2.6743   -17.6588    14.9853 H          1 BB1          0.0000
    19 H19        2.3940   -15.9224    14.6303 H          1 BB1          0.0000
    20 H20        0.5329   -15.3932    12.8440 H          1 BB1          0.0000
    21 H21       -0.9703   -16.1929    13.3630 H          1 BB1          0.0000
    22 H22        0.0526   -15.3592    14.5576 H          1 BB1          0.0000
    23 H23        0.1640   -17.4905    15.9236 H          1 BB1          0.0000
    24 H24       -0.8598   -18.3036    14.7158 H          1 BB1          0.0000
    25 H25        0.7212   -18.9948    15.1524 H          1 BB1          0.0000
    26 C2         0.9864   -15.6654    12.0206 C.2        2 BB2          0.0000
    27 O3         2.1974   -15.5995    12.1456 O.2        2 BB2          0.0000
    28 C4         0.3162   -15.0305    10.8295 C.3        2 BB2          0.0000
    29 C5        -0.7059   -13.9613    11.2751 C.3        2 BB2          0.0000
    30 N6        -0.6164   -12.8925    10.2732 N.am       2 BB2          0.0000
    31 C7         0.5153   -12.9905     9.5545 C.2        2 BB2          0.0000
    32 O8         0.8423   -12.2317     8.6666 O.2        2 BB2          0.0000
    33 C9         1.3218   -14.1850    10.0143 C.3        2 BB2          0.0000
    34 C10       -1.5851   -11.8982    10.0900 C.ar       2 BB2          0.0000
    35 C11       -1.1994   -10.5761     9.9146 C.ar       2 BB2          0.0000
    36 C12       -2.1559    -9.5957     9.7334 C.ar       2 BB2          0.0000
    37 C13       -3.4988    -9.9298     9.7271 C.ar       2 BB2          0.0000
    38 F14       -4.4322    -8.9694     9.5498 F          2 BB2          0.0000
    39 C15       -3.8874   -11.2498     9.9021 C.ar       2 BB2          0.0000
    40 F16       -5.1988   -11.5745     9.8952 F          2 BB2          0.0000
    41 C17       -2.9323   -12.2343    10.0779 C.ar       2 BB2          0.0000
    42 H18       -0.1577   -15.7858    10.2026 H          2 BB2          0.0000
    43 H19       -1.7111   -14.3826    11.2883 H          2 BB2          0.0000
    44 H20       -0.4442   -13.5770    12.2610 H          2 BB2          0.0000
    45 H21        2.1512   -13.8654    10.6453 H          2 BB2          0.0000
    46 H22        1.6889   -14.7501     9.1575 H          2 BB2          0.0000
    47 H23       -0.1517   -10.3141     9.9201 H          2 BB2          0.0000
    48 H24       -1.8553    -8.5674     9.5970 H          2 BB2          0.0000
    49 H25       -3.2342   -13.2622    10.2142 H          2 BB2          0.0000
@<TRIPOS>BOND
     1      1      2 1
     2      1     12 1
     3      1     13 1
     4      1     14 1
     5      2      3 1
     6      3      4 2
     7      3      5 1
     8      5      6 1
     9      5      9 1
    10      5     15 1
    11      6      7 1
    12      7      8 1
    13      7     16 1
    14      7     17 1
    15      8      9 1
    16      8     18 1
    17      8     19 1
    18      9     10 1
    19      9     11 1
    20     10     20 1
    21     10     21 1
    22     10     22 1
    23     11     23 1
    24     11     24 1
    25     11     25 1
    26     26     27 2
    27     26     28 1
    28     28     29 1
    29     28     33 1
    30     28     42 1
    31     29     30 1
    32     29     43 1
    33     29     44 1
    34     30     31 am
    35     30     34 1
    36     31     32 2
    37     31     33 1
    38     33     45 1
    39     33     46 1
    40     34     35 ar
    41     34     41 ar
    42     35     36 ar
    43     35     47 1
    44     36     37 ar
    45     36     48 1
    46     37     38 1
    47     37     39 ar
    48     39     40 1
    49     39     41 ar
    50     41     49 1
    51      6     26 am
@<TRIPOS>SUBSTRUCTURE
     1 BB1           6
     2 BB2          26
@<TRIPOS>MOLECULE
EN300-136798_i002_EN300-107901_i001_10_14_1
  54   57   2   0   0
SMALL
USER_CHARGES
@<TRIPOS>ATOM
     1 C1        -2.8695   -10.1837     9.7339 C.3        1 BB1          0.0000
     2 O2        -2.1423   -11.3787    10.1231 O.3        1 BB1          0.0000
     3 C3        -0.9609   -11.6015     9.5144 C.2        1 BB1          0.0000
     4 O4        -0.5356   -10.8032     8.7029 O.2        1 BB1          0.0000
     5 C5        -0.1848   -12.8132     9.8329 C.2        1 BB1          0.0000
     6 C6        -0.4325   -13.6720    10.8667 C.2        1 BB1          0.0000
     7 N7         0.5022   -14.6409    10.8018 N.pl3      1 BB1          0.0000
     8 N8         1.3195   -14.3435     9.7020 N.2        1 BB1          0.0000
     9 N9         0.8832   -13.2641     9.1521 N.2        1 BB1          0.0000
    10 C10        0.6385   -15.7849    11.7068 C.3        1 BB1          0.0000
    11 C11        2.0005   -15.7256    12.4044 C.3        1 BB1          0.0000
    12 C12        2.1012   -16.8806    13.4049 C.3        1 BB1          0.0000
    13 C13        0.9381   -16.7930    14.3954 C.3        1 BB1          0.0000
    14 N14       -0.3348   -16.8819    13.6699 N.am       1 BB1          0.0000
    15 C15       -0.4705   -15.7380    12.7602 C.3        1 BB1          0.0000
    16 H16       -3.8004   -10.1250    10.2979 H          1 BB1          0.0000
    17 H17       -2.2613    -9.3037     9.9439 H          1 BB1          0.0000
    18 H18       -3.0926   -10.2251     8.6678 H          1 BB1          0.0000
    19 H19       -1.2247   -13.5899    11.5961 H          1 BB1          0.0000
    20 H20        0.5613   -16.7109    11.1371 H          1 BB1          0.0000
    21 H21        2.7941   -15.8156    11.6627 H          1 BB1          0.0000
    22 H22        2.0988   -14.7768    12.9319 H          1 BB1          0.0000
    23 H23        2.0541   -17.8297    12.8712 H          1 BB1          0.0000
    24 H24        3.0454   -16.8127    13.9454 H          1 BB1          0.0000
    25 H25        1.0069   -17.6138    15.1093 H          1 BB1          0.0000
    26 H26        0.9862   -15.8437    14.9289 H          1 BB1          0.0000
    27 H27       -0.3923   -14.8111    13.3284 H          1 BB1          0.0000
    28 H28       -1.4415   -15.7798    12.2669 H          1 BB1          0.0000
    29 O1        -1.1044   -18.9616    12.9522 O.2        2 BB2          0.0000
    30 C2        -0.2112   -19.3730    13.6728 C.2        2 BB2          0.0000
    31 C4         0.9797   -20.0451    13.0754 C.3        2 BB2          0.0000
    32 C5         0.7789   -21.1029    12.0033 C.3        2 BB2          0.0000
    33 C6        -0.6011   -21.4491    11.5202 C.3        2 BB2          0.0000
    34 C7        -1.0687   -22.8022    12.1671 C.3        2 BB2          0.0000
    35 C8        -2.1119   -22.2542    13.2046 C.3        2 BB2          0.0000
    36 C9        -1.6431   -21.8882    14.5934 C.3        2 BB2          0.0000
    37 C10       -0.2703   -21.9777    15.1628 C.3        2 BB2          0.0000
    38 C11        0.7467   -22.5237    14.1819 C.3        2 BB2          0.0000
    39 C12        1.4004   -21.4658    13.3283 C.3        2 BB2          0.0000
    40 H13        1.8063   -19.3226    12.8705 H          2 BB2          0.0000
    41 H14        1.4998   -21.0308    11.1347 H          2 BB2          0.0000
    42 H15       -1.3314   -20.6776    11.7382 H          2 BB2          0.0000
    43 H16       -0.5859   -21.6033    10.4298 H          2 BB2          0.0000
    44 H17       -1.6564   -23.3338    11.3862 H          2 BB2          0.0000
    45 H18       -0.3114   -23.4212    12.4973 H          2 BB2          0.0000
    46 H19       -2.5982   -21.3894    12.7428 H          2 BB2          0.0000
    47 H20       -2.8869   -23.0314    13.2890 H          2 BB2          0.0000
    48 H21       -2.0404   -20.8695    14.8077 H          2 BB2          0.0000
    49 H22       -2.2938   -22.4998    15.2815 H          2 BB2          0.0000
    50 H23        0.0623   -21.0182    15.5960 H          2 BB2          0.0000
    51 H24       -0.2987   -22.6555    16.0572 H          2 BB2          0.0000
    52 H25        1.5953   -22.9279    14.8520 H          2 BB2          0.0000
    53 H26        0.4807   -23.4678    13.7322 H          2 BB2          0.0000
    54 H27        2.5427   -21.6098    13.3168 H          2 BB2          0.0000
@<TRIPOS>BOND
     1      1      2 1
     2      1     16 1
     3      1     17 1
     4      1     18 1
     5      2      3 1
     6      3      4 2
     7      3      5 1
     8      5      6 2
     9      5      9 1
    10      6      7 1
    11      6     19 1
    12      7      8 1
    13      7     10 1
    14      8      9 2
    15     10     11 1
    16     10     15 1
    17     10     20 1
    18     11     12 1
    19     11     21 1
    20     11     22 1
    21     12     13 1
    22     12     23 1
    23     12     24 1
    24     13     14 1
    25     13     25 1
    26     13     26 1
    27     14     15 1
    28     15     27 1
    29     15     28 1
    30     29     30 2
    31     30     31 1
    32     31     32 1
    33     31     39 1
    34     31     40 1
    35     32     33 1
    36     32     39 1
    37     32     41 1
    38     33     34 1
    39     33     42 1
    40     33     43 1
    41     34     35 1
    42     34     44 1
    43     34     45 1
    44     35     36 1
    45     35     46 1
    46     35     47 1
    47     36     37 1
    48     36     48 1
    49     36     49 1
    50     37     38 1
    51     37     50 1
    52     37     51 1
    53     38     39 1
    54     38     52 1
    55     38     53 1
    56     39     54 1
    57     14     30 am
@<TRIPOS>SUBSTRUCTURE
     1 BB1          14
     2 BB2          30
@<TRIPOS>MOLECULE
EN300-136798_i002_EN300-107901_i001_10_19_1
  54   57   2   0   0
SMALL
USER_CHARGES
@<TRIPOS>ATOM
     1 C1        -2.8695   -10.1837     9.7339 C.3        1 BB1          0.0000
     2 O2        -2.1423   -11.3787    10.1231 O.3        1 BB1          0.0000
     3 C3        -0.9609   -11.6015     9.5144 C.2        1 BB1          0.0000
     4 O4        -0.5356   -10.8032     8.7029 O.2        1 BB1          0.0000
     5 C5        -0.1848   -12.8132     9.8329 C.2        1 BB1          0.0000
     6 C6        -0.4325   -13.6720    10.8667 C.2        1 BB1          0.0000
     7 N7         0.5022   -14.6409    10.8018 N.pl3      1 BB1          0.0000
     8 N8         1.3195   -14.3435     9.7020 N.2        1 BB1          0.0000
     9 N9         0.8832   -13.2641     9.1521 N.2        1 BB1          0.0000
    10 C10        0.6385   -15.7849    11.7068 C.3        1 BB1          0.0000
    11 C11        2.0005   -15.7256    12.4044 C.3        1 BB1          0.0000
    12 C12        2.1012   -16.8806    13.4049 C.3        1 BB1          0.0000
    13 C13        0.9381   -16.7930    14.3954 C.3        1 BB1          0.0000
    14 N14       -0.3348   -16.8819    13.6699 N.am       1 BB1          0.0000
    15 C15       -0.4705   -15.7380    12.7602 C.3        1 BB1          0.0000
    16 H16       -3.8004   -10.1250    10.2979 H          1 BB1          0.0000
    17 H17       -2.2613    -9.3037     9.9439 H          1 BB1          0.0000
    18 H18       -3.0926   -10.2251     8.6678 H          1 BB1          0.0000
    19 H19       -1.2247   -13.5899    11.5961 H          1 BB1          0.0000
    20 H20        0.5613   -16.7109    11.1371 H          1 BB1          0.0000
    21 H21        2.7941   -15.8156    11.6627 H          1 BB1          0.0000
    22 H22        2.0988   -14.7768    12.9319 H          1 BB1          0.0000
    23 H23        2.0541   -17.8297    12.8712 H          1 BB1          0.0000
    24 H24        3.0454   -16.8127    13.9454 H          1 BB1          0.0000
    25 H25        1.0069   -17.6138    15.1093 H          1 BB1          0.0000
    26 H26        0.9862   -15.8437    14.9289 H          1 BB1          0.0000
    27 H27       -0.3923   -14.8111    13.3284 H          1 BB1          0.0000
    28 H28       -1.4415   -15.7798    12.2669 H          1 BB1          0.0000
    29 O1        -1.1676   -19.0126    14.1046 O.2        2 BB2          0.0000
    30 C2        -0.1559   -19.4933    14.5861 C.2        2 BB2          0.0000
    31 C4         1.0999   -19.5483    13.7818 C.3        2 BB2          0.0000
    32 C5         1.0415   -20.0240    12.3400 C.3        2 BB2          0.0000
    33 C6        -0.2701   -20.4042    11.7132 C.3        2 BB2          0.0000
    34 C7        -0.4011   -21.9687    11.6579 C.3        2 BB2          0.0000
    35 C8        -1.4547   -22.1878    12.8011 C.3        2 BB2          0.0000
    36 C9        -0.9692   -22.3961    14.2165 C.3        2 BB2          0.0000
    37 C10        0.4310   -22.4336    14.7210 C.3        2 BB2          0.0000
    38 C11        1.4628   -22.2440    13.6284 C.3        2 BB2          0.0000
    39 C12        1.8206   -20.8016    13.3704 C.3        2 BB2          0.0000
    40 H13        1.7433   -18.6515    13.9527 H          2 BB2          0.0000
    41 H14        1.6659   -19.4138    11.6209 H          2 BB2          0.0000
    42 H15       -1.1249   -19.9924    12.2384 H          2 BB2          0.0000
    43 H16       -0.3045   -20.0425    10.6735 H          2 BB2          0.0000
    44 H17       -0.9234   -22.2038    10.7041 H          2 BB2          0.0000
    45 H18        0.4895   -22.4899    11.6906 H          2 BB2          0.0000
    46 H19       -2.1408   -21.3358    12.7711 H          2 BB2          0.0000
    47 H20       -2.0453   -23.0664    12.4995 H          2 BB2          0.0000
    48 H21       -1.5501   -21.6966    14.8607 H          2 BB2          0.0000
    49 H22       -1.4280   -23.3767    14.5310 H          2 BB2          0.0000
    50 H23        0.5909   -21.7263    15.5536 H          2 BB2          0.0000
    51 H24        0.6086   -23.4301    15.2064 H          2 BB2          0.0000
    52 H25        2.4235   -22.7128    14.0640 H          2 BB2          0.0000
    53 H26        1.3636   -22.9161    12.7901 H          2 BB2          0.0000
    54 H27        2.9640   -20.6740    13.3270 H          2 BB2          0.0000
@<TRIPOS>BOND
     1      1      2 1
     2      1     16 1
     3      1     17 1
     4      1     18 1
     5      2      3 1
     6      3      4 2
     7      3      5 1
     8      5      6 2
     9      5      9 1
    10      6      7 1
    11      6     19 1
    12      7      8 1
    13      7     10 1
    14      8      9 2
    15     10     11 1
    16     10     15 1
    17     10     20 1
    18     11     12 1
    19     11     21 1
    20     11     22 1
    21     12     13 1
    22     12     23 1
    23     12     24 1
    24     13     14 1
    25     13     25 1
    26     13     26 1
    27     14     15 1
    28     15     27 1
    29     15     28 1
    30     29     30 2
    31     30     31 1
    32     31     32 1
    33     31     39 1
    34     31     40 1
    35     32     33 1
    36     32     39 1
    37     32     41 1
    38     33     34 1
    39     33     42 1
    40     33     43 1
    41     34     35 1
    42     34     44 1
    43     34     45 1
    44     35     36 1
    45     35     46 1
    46     35     47 1
    47     36     37 1
    48     36     48 1
    49     36     49 1
    50     37     38 1
    51     37     50 1
    52     37     51 1
    53     38     39 1
    54     38     52 1
    55     38     53 1
    56     39     54 1
    57     14     30 am
@<TRIPOS>SUBSTRUCTURE
     1 BB1          14
     2 BB2          30
@<TRIPOS>MOLECULE
EN300-136798_i002_EN300-223795_i001_10_6_1
  41   43   2   0   0
SMALL
USER_CHARGES
@<TRIPOS>ATOM
     1 C1        -2.8695   -10.1837     9.7339 C.3        1 BB1          0.0000
     2 O2        -2.1423   -11.3787    10.1231 O.3        1 BB1          0.0000
     3 C3        -0.9609   -11.6015     9.5144 C.2        1 BB1          0.0000
     4 O4        -0.5356   -10.8032     8.7029 O.2        1 BB1          0.0000
     5 C5        -0.1848   -12.8132     9.8329 C.2        1 BB1          0.0000
     6 C6        -0.4325   -13.6720    10.8667 C.2        1 BB1          0.0000
     7 N7         0.5022   -14.6409    10.8018 N.pl3      1 BB1          0.0000
     8 N8         1.3195   -14.3435     9.7020 N.2        1 BB1          0.0000
     9 N9         0.8832   -13.2641     9.1521 N.2        1 BB1          0.0000
    10 C10        0.6385   -15.7849    11.7068 C.3        1 BB1          0.0000
    11 C11        2.0005   -15.7256    12.4044 C.3        1 BB1          0.0000
    12 C12        2.1012   -16.8806    13.4049 C.3        1 BB1          0.0000
    13 C13        0.9381   -16.7930    14.3954 C.3        1 BB1          0.0000
    14 N14       -0.3348   -16.8819    13.6699 N.am       1 BB1          0.0000
    15 C15       -0.4705   -15.7380    12.7602 C.3        1 BB1          0.0000
    16 H16       -3.8004   -10.1250    10.2979 H          1 BB1          0.0000
    17 H17       -2.2613    -9.3037     9.9439 H          1 BB1          0.0000
    18 H18       -3.0926   -10.2251     8.6678 H          1 BB1          0.0000
    19 H19       -1.2247   -13.5899    11.5961 H          1 BB1          0.0000
    20 H20        0.5613   -16.7109    11.1371 H          1 BB1          0.0000
    21 H21        2.7941   -15.8156    11.6627 H          1 BB1          0.0000
    22 H22        2.0988   -14.7768    12.9319 H          1 BB1          0.0000
    23 H23        2.0541   -17.8297    12.8712 H          1 BB1          0.0000
    24 H24        3.0454   -16.8127    13.9454 H          1 BB1          0.0000
    25 H25        1.0069   -17.6138    15.1093 H          1 BB1          0.0000
    26 H26        0.9862   -15.8437    14.9289 H          1 BB1          0.0000
    27 H27       -0.3923   -14.8111    13.3284 H          1 BB1          0.0000
    28 H28       -1.4415   -15.7798    12.2669 H          1 BB1          0.0000
    29 O1        -1.0523   -17.8834    11.8907 O.2        2 BB2          0.0000
    30 C2        -0.1310   -18.6893    11.8889 C.2        2 BB2          0.0000
    31 C4         0.5803   -18.9932    13.1358 C.2        2 BB2          0.0000
    32 C5         1.2511   -17.9935    13.9358 C.2        2 BB2          0.0000
    33 C6         1.8272   -18.4953    15.0204 C.2        2 BB2          0.0000
    34 S7         1.5717   -20.2292    15.1109 S.3        2 BB2          0.0000
    35 C8         0.6724   -20.2468    13.6631 C.2        2 BB2          0.0000
    36 C9         0.0684   -21.4816    13.0457 C.3        2 BB2          0.0000
    37 F10       -1.3262   -21.3709    13.0504 F          2 BB2          0.0000
    38 F11        0.5213   -21.6137    11.7286 F          2 BB2          0.0000
    39 F12        0.4494   -22.6066    13.7848 F          2 BB2          0.0000
    40 H13        1.2806   -16.9454    13.6770 H          2 BB2          0.0000
    41 H14        2.3776   -17.9166    15.7474 H          2 BB2          0.0000
@<TRIPOS>BOND
     1      1      2 1
     2      1     16 1
     3      1     17 1
     4      1     18 1
     5      2      3 1
     6      3      4 2
     7      3      5 1
     8      5      6 2
     9      5      9 1
    10      6      7 1
    11      6     19 1
    12      7      8 1
    13      7     10 1
    14      8      9 2
    15     10     11 1
    16     10     15 1
    17     10     20 1
    18     11     12 1
    19     11     21 1
    20     11     22 1
    21     12     13 1
    22     12     23 1
    23     12     24 1
    24     13     14 1
    25     13     25 1
    26     13     26 1
    27     14     15 1
    28     15     27 1
    29     15     28 1
    30     29     30 2
    31     30     31 1
    32     31     32 1
    33     31     35 2
    34     32     33 2
    35     32     40 1
    36     33     34 1
    37     33     41 1
    38     34     35 1
    39     35     36 1
    40     36     37 1
    41     36     38 1
    42     36     39 1
    43     14     30 am
@<TRIPOS>SUBSTRUCTURE
     1 BB1          14
     2 BB2          30
@<TRIPOS>MOLECULE
EN300-136798_i002_EN300-344045_i001_10_19_1
  57   60   2   0   0
SMALL
USER_CHARGES
@<TRIPOS>ATOM
     1 C1        -2.8695   -10.1837     9.7339 C.3        1 BB1          0.0000
     2 O2        -2.1423   -11.3787    10.1231 O.3        1 BB1          0.0000
     3 C3        -0.9609   -11.6015     9.5144 C.2        1 BB1          0.0000
     4 O4        -0.5356   -10.8032     8.7029 O.2        1 BB1          0.0000
     5 C5        -0.1848   -12.8132     9.8329 C.2        1 BB1          0.0000
     6 C6        -0.4325   -13.6720    10.8667 C.2        1 BB1          0.0000
     7 N7         0.5022   -14.6409    10.8018 N.pl3      1 BB1          0.0000
     8 N8         1.3195   -14.3435     9.7020 N.2        1 BB1          0.0000
     9 N9         0.8832   -13.2641     9.1521 N.2        1 BB1          0.0000
    10 C10        0.6385   -15.7849    11.7068 C.3        1 BB1          0.0000
    11 C11        2.0005   -15.7256    12.4044 C.3        1 BB1          0.0000
    12 C12        2.1012   -16.8806    13.4049 C.3        1 BB1          0.0000
    13 C13        0.9381   -16.7930    14.3954 C.3        1 BB1          0.0000
    14 N14       -0.3348   -16.8819    13.6699 N.am       1 BB1          0.0000
    15 C15       -0.4705   -15.7380    12.7602 C.3        1 BB1          0.0000
    16 H16       -3.8004   -10.1250    10.2979 H          1 BB1          0.0000
    17 H17       -2.2613    -9.3037     9.9439 H          1 BB1          0.0000
    18 H18       -3.0926   -10.2251     8.6678 H          1 BB1          0.0000
    19 H19       -1.2247   -13.5899    11.5961 H          1 BB1          0.0000
    20 H20        0.5613   -16.7109    11.1371 H          1 BB1          0.0000
    21 H21        2.7941   -15.8156    11.6627 H          1 BB1          0.0000
    22 H22        2.0988   -14.7768    12.9319 H          1 BB1          0.0000
    23 H23        2.0541   -17.8297    12.8712 H          1 BB1          0.0000
    24 H24        3.0454   -16.8127    13.9454 H          1 BB1          0.0000
    25 H25        1.0069   -17.6138    15.1093 H          1 BB1          0.0000
    26 H26        0.9862   -15.8437    14.9289 H          1 BB1          0.0000
    27 H27       -0.3923   -14.8111    13.3284 H          1 BB1          0.0000
    28 H28       -1.4415   -15.7798    12.2669 H          1 BB1          0.0000
    29 C2         0.0841   -18.4694    14.9231 C.2        2 BB2          0.0000
    30 O3        -0.8268   -17.6615    14.9870 O.2        2 BB2          0.0000
    31 C4        -0.1235   -19.8794    15.4130 C.3        2 BB2          0.0000
    32 C5        -0.1066   -20.8405    14.2228 C.3        2 BB2          0.0000
    33 C6        -1.2264   -20.4700    13.2284 C.3        2 BB2          0.0000
    34 C7        -0.5199   -19.5817    12.1745 C.3        2 BB2          0.0000
    35 C8         0.8631   -20.2629    12.0251 C.3        2 BB2          0.0000
    36 C9         1.2218   -20.7089    13.4577 C.3        2 BB2          0.0000
    37 C10       -0.2896   -22.2578    14.7015 C.ar       2 BB2          0.0000
    38 C11       -0.5323   -22.5096    16.0388 C.ar       2 BB2          0.0000
    39 C12       -0.7001   -23.8096    16.4779 C.ar       2 BB2          0.0000
    40 C13       -0.6258   -24.8576    15.5795 C.ar       2 BB2          0.0000
    41 C14       -0.3840   -24.6056    14.2421 C.ar       2 BB2          0.0000
    42 C15       -0.2206   -23.3053    13.8022 C.ar       2 BB2          0.0000
    43 H16        0.6753   -20.1447    16.1057 H          2 BB2          0.0000
    44 H17       -1.0845   -19.9491    15.9228 H          2 BB2          0.0000
    45 H18       -1.6333   -21.3665    12.7607 H          2 BB2          0.0000
    46 H19       -2.0145   -19.9104    13.7324 H          2 BB2          0.0000
    47 H20       -1.0626   -19.5978    11.2293 H          2 BB2          0.0000
    48 H21       -0.4101   -18.5609    12.5407 H          2 BB2          0.0000
    49 H22        0.7938   -21.1260    11.3630 H          2 BB2          0.0000
    50 H23        1.6001   -19.5522    11.6510 H          2 BB2          0.0000
    51 H24        1.8546   -19.9602    13.9343 H          2 BB2          0.0000
    52 H25        1.7348   -21.6703    13.4321 H          2 BB2          0.0000
    53 H26       -0.5903   -21.6909    16.7407 H          2 BB2          0.0000
    54 H27       -0.8889   -24.0065    17.5229 H          2 BB2          0.0000
    55 H28       -0.7562   -25.8733    15.9227 H          2 BB2          0.0000
    56 H29       -0.3257   -25.4244    13.5402 H          2 BB2          0.0000
    57 H30       -0.0317   -23.1084    12.7572 H          2 BB2          0.0000
@<TRIPOS>BOND
     1      1      2 1
     2      1     16 1
     3      1     17 1
     4      1     18 1
     5      2      3 1
     6      3      4 2
     7      3      5 1
     8      5      6 2
     9      5      9 1
    10      6      7 1
    11      6     19 1
    12      7      8 1
    13      7     10 1
    14      8      9 2
    15     10     11 1
    16     10     15 1
    17     10     20 1
    18     11     12 1
    19     11     21 1
    20     11     22 1
    21     12     13 1
    22     12     23 1
    23     12     24 1
    24     13     14 1
    25     13     25 1
    26     13     26 1
    27     14     15 1
    28     15     27 1
    29     15     28 1
    30     29     30 2
    31     29     31 1
    32     31     32 1
    33     31     43 1
    34     31     44 1
    35     32     33 1
    36     32     36 1
    37     32     37 1
    38     33     34 1
    39     33     45 1
    40     33     46 1
    41     34     35 1
    42     34     47 1
    43     34     48 1
    44     35     36 1
    45     35     49 1
    46     35     50 1
    47     36     51 1
    48     36     52 1
    49     37     38 ar
    50     37     42 ar
    51     38     39 ar
    52     38     53 1
    53     39     40 ar
    54     39     54 1
    55     40     41 ar
    56     40     55 1
    57     41     42 ar
    58     41     56 1
    59     42     57 1
    60     14     29 am
@<TRIPOS>SUBSTRUCTURE
     1 BB1          14
     2 BB2          29
@<TRIPOS>MOLECULE
EN300-136798_i002_EN300-1087079_i001_14_2_1
  54   56   2   0   0
SMALL
USER_CHARGES
@<TRIPOS>ATOM
     1 C1        -0.1497   -24.5429    14.6944 C.3        1 BB1          0.0000
     2 O2        -0.1678   -23.3353    13.8885 O.3        1 BB1          0.0000
     3 C3        -0.7296   -22.2410    14.4386 C.2        1 BB1          0.0000
     4 O4        -1.2035   -22.2980    15.5562 O.2        1 BB1          0.0000
     5 C5        -0.7694   -20.9750    13.6850 C.2        1 BB1          0.0000
     6 C6        -0.2674   -20.7764    12.4295 C.2        1 BB1          0.0000
     7 N7        -0.5092   -19.4891    12.1116 N.pl3      1 BB1          0.0000
     8 N8        -1.1699   -18.9173    13.2082 N.2        1 BB1          0.0000
     9 N9        -1.3108   -19.8216    14.1139 N.2        1 BB1          0.0000
    10 C10       -0.1502   -18.8163    10.8608 C.3        1 BB1          0.0000
    11 C11       -1.0129   -19.3637     9.7199 C.3        1 BB1          0.0000
    12 C12       -0.6853   -18.5999     8.4337 C.3        1 BB1          0.0000
    13 C13       -0.9099   -17.1039     8.6640 C.3        1 BB1          0.0000
    14 N14       -0.0380   -16.6359     9.7482 N.am       1 BB1          0.0000
    15 C15       -0.3946   -17.3122    11.0012 C.3        1 BB1          0.0000
    16 H16        0.3292   -25.3462    14.1344 H          1 BB1          0.0000
    17 H17        0.4071   -24.3583    15.6131 H          1 BB1          0.0000
    18 H18       -1.1717   -24.8309    14.9405 H          1 BB1          0.0000
    19 H19        0.2284   -21.5098    11.8110 H          1 BB1          0.0000
    20 H20        0.9019   -18.9957    10.6398 H          1 BB1          0.0000
    21 H21       -0.8007   -20.4234     9.5786 H          1 BB1          0.0000
    22 H22       -2.0669   -19.2312     9.9641 H          1 BB1          0.0000
    23 H23        0.3558   -18.7741     8.1619 H          1 BB1          0.0000
    24 H24       -1.3348   -18.9458     7.6294 H          1 BB1          0.0000
    25 H25       -0.6777   -16.5571     7.7501 H          1 BB1          0.0000
    26 H26       -1.9512   -16.9307     8.9354 H          1 BB1          0.0000
    27 H27       -1.4469   -17.1347    11.2227 H          1 BB1          0.0000
    28 H28        0.2179   -16.9194    11.8126 H          1 BB1          0.0000
    29 C1        -0.0553   -16.2205    11.6213 C.3        2 BB2          0.0000
    30 C2         0.2729   -15.8021    10.1867 C.3        2 BB2          0.0000
    31 C3         0.7391   -14.3448    10.1746 C.3        2 BB2          0.0000
    32 C4        -0.4129   -13.3963    10.5994 C.3        2 BB2          0.0000
    33 C5        -0.0071   -12.0786     9.8932 C.3        2 BB2          0.0000
    34 N6         0.5674   -12.5028     8.6036 N.am       2 BB2          0.0000
    35 C7         1.0534   -13.8842     8.7356 C.3        2 BB2          0.0000
    36 C8         0.3450   -14.7734     7.7465 C.2        2 BB2          0.0000
    37 O9         0.7948   -15.8765     7.4872 O.2        2 BB2          0.0000
    38 C11        0.6352   -11.7495     7.4881 C.2        2 BB2          0.0000
    39 O12        0.2003   -10.6174     7.4936 O.2        2 BB2          0.0000
    40 C13        1.2514   -12.3138     6.2340 C.3        2 BB2          0.0000
    41 H14       -0.3875   -17.2586    11.6300 H          2 BB2          0.0000
    42 H15        0.8348   -16.1186    12.2422 H          2 BB2          0.0000
    43 H16       -0.8471   -15.5825    12.0138 H          2 BB2          0.0000
    44 H17        1.0646   -16.4401     9.7943 H          2 BB2          0.0000
    45 H18       -0.6171   -15.9039     9.5658 H          2 BB2          0.0000
    46 H19        1.6057   -14.2132    10.8224 H          2 BB2          0.0000
    47 H20       -1.3727   -13.7578    10.2303 H          2 BB2          0.0000
    48 H21       -0.4351   -13.2689    11.6817 H          2 BB2          0.0000
    49 H22       -0.8829   -11.4504     9.7301 H          2 BB2          0.0000
    50 H23        0.7383   -11.5458    10.4837 H          2 BB2          0.0000
    51 H24        2.1291   -13.9168     8.5626 H          2 BB2          0.0000
    52 H25        1.5830   -13.3355     6.4200 H          2 BB2          0.0000
    53 H26        0.5119   -12.3120     5.4332 H          2 BB2          0.0000
    54 H27        2.1051   -11.7023     5.9417 H          2 BB2          0.0000
@<TRIPOS>BOND
     1      1      2 1
     2      1     16 1
     3      1     17 1
     4      1     18 1
     5      2      3 1
     6      3      4 2
     7      3      5 1
     8      5      6 2
     9      5      9 1
    10      6      7 1
    11      6     19 1
    12      7      8 1
    13      7     10 1
    14      8      9 2
    15     10     11 1
    16     10     15 1
    17     10     20 1
    18     11     12 1
    19     11     21 1
    20     11     22 1
    21     12     13 1
    22     12     23 1
    23     12     24 1
    24     13     14 1
    25     13     25 1
    26     13     26 1
    27     14     15 1
    28     15     27 1
    29     15     28 1
    30     29     30 1
    31     29     41 1
    32     29     42 1
    33     29     43 1
    34     30     31 1
    35     30     44 1
    36     30     45 1
    37     31     32 1
    38     31     35 1
    39     31     46 1
    40     32     33 1
    41     32     47 1
    42     32     48 1
    43     33     34 1
    44     33     49 1
    45     33     50 1
    46     34     35 1
    47     34     38 am
    48     35     36 1
    49     35     51 1
    50     36     37 2
    51     38     39 2
    52     38     40 1
    53     40     52 1
    54     40     53 1
    55     40     54 1
    56     14     36 am
@<TRIPOS>SUBSTRUCTURE
     1 BB1          14
     2 BB2          36
@<TRIPOS>MOLECULE
EN300-136798_i002_EN300-1087079_i001_14_4_1
  54   56   2   0   0
SMALL
USER_CHARGES
@<TRIPOS>ATOM
     1 C1        -0.1497   -24.5429    14.6944 C.3        1 BB1          0.0000
     2 O2        -0.1678   -23.3353    13.8885 O.3        1 BB1          0.0000
     3 C3        -0.7296   -22.2410    14.4386 C.2        1 BB1          0.0000
     4 O4        -1.2035   -22.2980    15.5562 O.2        1 BB1          0.0000
     5 C5        -0.7694   -20.9750    13.6850 C.2        1 BB1          0.0000
     6 C6        -0.2674   -20.7764    12.4295 C.2        1 BB1          0.0000
     7 N7        -0.5092   -19.4891    12.1116 N.pl3      1 BB1          0.0000
     8 N8        -1.1699   -18.9173    13.2082 N.2        1 BB1          0.0000
     9 N9        -1.3108   -19.8216    14.1139 N.2        1 BB1          0.0000
    10 C10       -0.1502   -18.8163    10.8608 C.3        1 BB1          0.0000
    11 C11       -1.0129   -19.3637     9.7199 C.3        1 BB1          0.0000
    12 C12       -0.6853   -18.5999     8.4337 C.3        1 BB1          0.0000
    13 C13       -0.9099   -17.1039     8.6640 C.3        1 BB1          0.0000
    14 N14       -0.0380   -16.6359     9.7482 N.am       1 BB1          0.0000
    15 C15       -0.3946   -17.3122    11.0012 C.3        1 BB1          0.0000
    16 H16        0.3292   -25.3462    14.1344 H          1 BB1          0.0000
    17 H17        0.4071   -24.3583    15.6131 H          1 BB1          0.0000
    18 H18       -1.1717   -24.8309    14.9405 H          1 BB1          0.0000
    19 H19        0.2284   -21.5098    11.8110 H          1 BB1          0.0000
    20 H20        0.9019   -18.9957    10.6398 H          1 BB1          0.0000
    21 H21       -0.8007   -20.4234     9.5786 H          1 BB1          0.0000
    22 H22       -2.0669   -19.2312     9.9641 H          1 BB1          0.0000
    23 H23        0.3558   -18.7741     8.1619 H          1 BB1          0.0000
    24 H24       -1.3348   -18.9458     7.6294 H          1 BB1          0.0000
    25 H25       -0.6777   -16.5571     7.7501 H          1 BB1          0.0000
    26 H26       -1.9512   -16.9307     8.9354 H          1 BB1          0.0000
    27 H27       -1.4469   -17.1347    11.2227 H          1 BB1          0.0000
    28 H28        0.2179   -16.9194    11.8126 H          1 BB1          0.0000
    29 C1         0.5107   -16.0504     7.4434 C.3        2 BB2          0.0000
    30 C2         1.1905   -14.6798     7.4534 C.3        2 BB2          0.0000
    31 C3         0.1492   -13.5961     7.7405 C.3        2 BB2          0.0000
    32 C4         0.8083   -12.1917     7.7560 C.3        2 BB2          0.0000
    33 C5        -0.1535   -11.4070     8.6827 C.3        2 BB2          0.0000
    34 N6        -0.5565   -12.3771     9.7170 N.am       2 BB2          0.0000
    35 C7        -0.4021   -13.7352     9.1752 C.3        2 BB2          0.0000
    36 C8         0.5670   -14.5181    10.0231 C.2        2 BB2          0.0000
    37 O10        0.1863   -15.5037    10.6315 O.2        2 BB2          0.0000
    38 C11       -0.9933   -12.0700    10.9545 C.2        2 BB2          0.0000
    39 O12       -1.2986   -12.9542    11.7265 O.2        2 BB2          0.0000
    40 C13       -1.1025   -10.6282    11.3788 C.3        2 BB2          0.0000
    41 H14        1.2525   -16.8223     7.2388 H          2 BB2          0.0000
    42 H15        0.0520   -16.2355     8.4147 H          2 BB2          0.0000
    43 H16       -0.2567   -16.0697     6.6695 H          2 BB2          0.0000
    44 H17        1.9579   -14.6604     8.2271 H          2 BB2          0.0000
    45 H18        1.6492   -14.4945     6.4821 H          2 BB2          0.0000
    46 H19       -0.6578   -13.6353     7.0089 H          2 BB2          0.0000
    47 H20        1.8112   -12.2354     8.1810 H          2 BB2          0.0000
    48 H21        0.8280   -11.7582     6.7561 H          2 BB2          0.0000
    49 H22        0.3629   -10.5611     9.1366 H          2 BB2          0.0000
    50 H23       -1.0244   -11.0651     8.1234 H          2 BB2          0.0000
    51 H24       -1.3690   -14.2378     9.1537 H          2 BB2          0.0000
    52 H25       -0.7871    -9.9832    10.5586 H          2 BB2          0.0000
    53 H26       -2.1365   -10.4037    11.6406 H          2 BB2          0.0000
    54 H27       -0.4627   -10.4547    12.2442 H          2 BB2          0.0000
@<TRIPOS>BOND
     1      1      2 1
     2      1     16 1
     3      1     17 1
     4      1     18 1
     5      2      3 1
     6      3      4 2
     7      3      5 1
     8      5      6 2
     9      5      9 1
    10      6      7 1
    11      6     19 1
    12      7      8 1
    13      7     10 1
    14      8      9 2
    15     10     11 1
    16     10     15 1
    17     10     20 1
    18     11     12 1
    19     11     21 1
    20     11     22 1
    21     12     13 1
    22     12     23 1
    23     12     24 1
    24     13     14 1
    25     13     25 1
    26     13     26 1
    27     14     15 1
    28     15     27 1
    29     15     28 1
    30     29     30 1
    31     29     41 1
    32     29     42 1
    33     29     43 1
    34     30     31 1
    35     30     44 1
    36     30     45 1
    37     31     32 1
    38     31     35 1
    39     31     46 1
    40     32     33 1
    41     32     47 1
    42     32     48 1
    43     33     34 1
    44     33     49 1
    45     33     50 1
    46     34     35 1
    47     34     38 am
    48     35     36 1
    49     35     51 1
    50     36     37 2
    51     38     39 2
    52     38     40 1
    53     40     52 1
    54     40     53 1
    55     40     54 1
    56     14     36 am
@<TRIPOS>SUBSTRUCTURE
     1 BB1          14
     2 BB2          36
@<TRIPOS>MOLECULE
EN300-136798_i002_EN300-1198129_i001_14_19_1
  52   54   2   0   0
SMALL
USER_CHARGES
@<TRIPOS>ATOM
     1 C1        -0.1497   -24.5429    14.6944 C.3        1 BB1          0.0000
     2 O2        -0.1678   -23.3353    13.8885 O.3        1 BB1          0.0000
     3 C3        -0.7296   -22.2410    14.4386 C.2        1 BB1          0.0000
     4 O4        -1.2035   -22.2980    15.5562 O.2        1 BB1          0.0000
     5 C5        -0.7694   -20.9750    13.6850 C.2        1 BB1          0.0000
     6 C6        -0.2674   -20.7764    12.4295 C.2        1 BB1          0.0000
     7 N7        -0.5092   -19.4891    12.1116 N.pl3      1 BB1          0.0000
     8 N8        -1.1699   -18.9173    13.2082 N.2        1 BB1          0.0000
     9 N9        -1.3108   -19.8216    14.1139 N.2        1 BB1          0.0000
    10 C10       -0.1502   -18.8163    10.8608 C.3        1 BB1          0.0000
    11 C11       -1.0129   -19.3637     9.7199 C.3        1 BB1          0.0000
    12 C12       -0.6853   -18.5999     8.4337 C.3        1 BB1          0.0000
    13 C13       -0.9099   -17.1039     8.6640 C.3        1 BB1          0.0000
    14 N14       -0.0380   -16.6359     9.7482 N.am       1 BB1          0.0000
    15 C15       -0.3946   -17.3122    11.0012 C.3        1 BB1          0.0000
    16 H16        0.3292   -25.3462    14.1344 H          1 BB1          0.0000
    17 H17        0.4071   -24.3583    15.6131 H          1 BB1          0.0000
    18 H18       -1.1717   -24.8309    14.9405 H          1 BB1          0.0000
    19 H19        0.2284   -21.5098    11.8110 H          1 BB1          0.0000
    20 H20        0.9019   -18.9957    10.6398 H          1 BB1          0.0000
    21 H21       -0.8007   -20.4234     9.5786 H          1 BB1          0.0000
    22 H22       -2.0669   -19.2312     9.9641 H          1 BB1          0.0000
    23 H23        0.3558   -18.7741     8.1619 H          1 BB1          0.0000
    24 H24       -1.3348   -18.9458     7.6294 H          1 BB1          0.0000
    25 H25       -0.6777   -16.5571     7.7501 H          1 BB1          0.0000
    26 H26       -1.9512   -16.9307     8.9354 H          1 BB1          0.0000
    27 H27       -1.4469   -17.1347    11.2227 H          1 BB1          0.0000
    28 H28        0.2179   -16.9194    11.8126 H          1 BB1          0.0000
    29 O1        -0.3046   -17.2320    10.9820 O.2        2 BB2          0.0000
    30 C2        -0.0992   -16.0437    11.1864 C.2        2 BB2          0.0000
    31 C4        -0.0979   -15.0920    10.0614 C.ar       2 BB2          0.0000
    32 C5        -0.0950   -13.7157    10.3052 C.ar       2 BB2          0.0000
    33 C6        -0.0937   -12.8313     9.2479 C.ar       2 BB2          0.0000
    34 C7        -0.0957   -13.3016     7.9456 C.ar       2 BB2          0.0000
    35 C8        -0.0987   -14.6609     7.6932 C.ar       2 BB2          0.0000
    36 C9        -0.0936   -15.5616     8.7423 C.ar       2 BB2          0.0000
    37 F10       -0.0964   -16.8898     8.4955 F          2 BB2          0.0000
    38 S11       -0.0901   -11.0963     9.5546 S.o2       2 BB2          0.0000
    39 O12        1.2590   -10.8027     9.8907 O.2        2 BB2          0.0000
    40 O13       -0.6960   -10.5347     8.3985 O.2        2 BB2          0.0000
    41 C14       -1.1656   -10.8901    11.0008 C.3        2 BB2          0.0000
    42 C15       -2.3179    -9.9470    10.6491 C.3        2 BB2          0.0000
    43 C16       -3.4317   -10.7237    10.0809 C.1        2 BB2          0.0000
    44 C17       -4.3201   -11.3431     9.6277 C.1        2 BB2          0.0000
    45 H18       -0.0940   -13.3459    11.3199 H          2 BB2          0.0000
    46 H19       -0.0955   -12.6026     7.1222 H          2 BB2          0.0000
    47 H20       -0.1002   -15.0199     6.6747 H          2 BB2          0.0000
    48 H21       -1.5669   -11.8595    11.2963 H          2 BB2          0.0000
    49 H22       -0.5898   -10.4688    11.8248 H          2 BB2          0.0000
    50 H23       -2.6551    -9.4338    11.5497 H          2 BB2          0.0000
    51 H24       -1.9769    -9.2132     9.9188 H          2 BB2          0.0000
    52 H25       -5.1147   -11.8971     9.2224 H          2 BB2          0.0000
@<TRIPOS>BOND
     1      1      2 1
     2      1     16 1
     3      1     17 1
     4      1     18 1
     5      2      3 1
     6      3      4 2
     7      3      5 1
     8      5      6 2
     9      5      9 1
    10      6      7 1
    11      6     19 1
    12      7      8 1
    13      7     10 1
    14      8      9 2
    15     10     11 1
    16     10     15 1
    17     10     20 1
    18     11     12 1
    19     11     21 1
    20     11     22 1
    21     12     13 1
    22     12     23 1
    23     12     24 1
    24     13     14 1
    25     13     25 1
    26     13     26 1
    27     14     15 1
    28     15     27 1
    29     15     28 1
    30     29     30 2
    31     30     31 1
    32     31     32 ar
    33     31     36 ar
    34     32     33 ar
    35     32     45 1
    36     33     34 ar
    37     33     38 1
    38     34     35 ar
    39     34     46 1
    40     35     36 ar
    41     35     47 1
    42     36     37 1
    43     38     39 2
    44     38     40 2
    45     38     41 1
    46     41     42 1
    47     41     48 1
    48     41     49 1
    49     42     43 1
    50     42     50 1
    51     42     51 1
    52     43     44 3
    53     44     52 1
    54     14     30 am
@<TRIPOS>SUBSTRUCTURE
     1 BB1          14
     2 BB2          30
@<TRIPOS>MOLECULE
EN300-136798_i002_EN300-4287209_i001_14_19_1
  43   45   2   0   0
SMALL
USER_CHARGES
@<TRIPOS>ATOM
     1 C1        -0.1497   -24.5429    14.6944 C.3        1 BB1          0.0000
     2 O2        -0.1678   -23.3353    13.8885 O.3        1 BB1          0.0000
     3 C3        -0.7296   -22.2410    14.4386 C.2        1 BB1          0.0000
     4 O4        -1.2035   -22.2980    15.5562 O.2        1 BB1          0.0000
     5 C5        -0.7694   -20.9750    13.6850 C.2        1 BB1          0.0000
     6 C6        -0.2674   -20.7764    12.4295 C.2        1 BB1          0.0000
     7 N7        -0.5092   -19.4891    12.1116 N.pl3      1 BB1          0.0000
     8 N8        -1.1699   -18.9173    13.2082 N.2        1 BB1          0.0000
     9 N9        -1.3108   -19.8216    14.1139 N.2        1 BB1          0.0000
    10 C10       -0.1502   -18.8163    10.8608 C.3        1 BB1          0.0000
    11 C11       -1.0129   -19.3637     9.7199 C.3        1 BB1          0.0000
    12 C12       -0.6853   -18.5999     8.4337 C.3        1 BB1          0.0000
    13 C13       -0.9099   -17.1039     8.6640 C.3        1 BB1          0.0000
    14 N14       -0.0380   -16.6359     9.7482 N.am       1 BB1          0.0000
    15 C15       -0.3946   -17.3122    11.0012 C.3        1 BB1          0.0000
    16 H16        0.3292   -25.3462    14.1344 H          1 BB1          0.0000
    17 H17        0.4071   -24.3583    15.6131 H          1 BB1          0.0000
    18 H18       -1.1717   -24.8309    14.9405 H          1 BB1          0.0000
    19 H19        0.2284   -21.5098    11.8110 H          1 BB1          0.0000
    20 H20        0.9019   -18.9957    10.6398 H          1 BB1          0.0000
    21 H21       -0.8007   -20.4234     9.5786 H          1 BB1          0.0000
    22 H22       -2.0669   -19.2312     9.9641 H          1 BB1          0.0000
    23 H23        0.3558   -18.7741     8.1619 H          1 BB1          0.0000
    24 H24       -1.3348   -18.9458     7.6294 H          1 BB1          0.0000
    25 H25       -0.6777   -16.5571     7.7501 H          1 BB1          0.0000
    26 H26       -1.9512   -16.9307     8.9354 H          1 BB1          0.0000
    27 H27       -1.4469   -17.1347    11.2227 H          1 BB1          0.0000
    28 H28        0.2179   -16.9194    11.8126 H          1 BB1          0.0000
    29 O1         0.8790   -15.4749     8.7555 O.2        2 BB2          0.0000
    30 C2         0.4092   -14.3881     8.4488 C.2        2 BB2          0.0000
    31 C4        -0.3178   -13.5892     9.4529 C.ar       2 BB2          0.0000
    32 C5        -1.0338   -12.4577     9.0618 C.ar       2 BB2          0.0000
    33 C6        -1.7175   -11.7097    10.0165 C.ar       2 BB2          0.0000
    34 C7        -2.4553   -10.5472     9.6230 C.1        2 BB2          0.0000
    35 C8        -3.0603    -9.5942     9.3004 C.1        2 BB2          0.0000
    36 C9        -1.6834   -12.0952    11.3586 C.ar       2 BB2          0.0000
    37 C10       -0.9732   -13.2154    11.7416 C.ar       2 BB2          0.0000
    38 C11       -0.2963   -13.9673    10.8002 C.ar       2 BB2          0.0000
    39 Cl12       0.5940   -15.3743    11.2916 Cl         2 BB2          0.0000
    40 H13       -1.0574   -12.1629     8.0230 H          2 BB2          0.0000
    41 H14       -3.6012    -8.7418     9.0118 H          2 BB2          0.0000
    42 H15       -2.2138   -11.5149    12.0990 H          2 BB2          0.0000
    43 H16       -0.9504   -13.5081    12.7809 H          2 BB2          0.0000
@<TRIPOS>BOND
     1      1      2 1
     2      1     16 1
     3      1     17 1
     4      1     18 1
     5      2      3 1
     6      3      4 2
     7      3      5 1
     8      5      6 2
     9      5      9 1
    10      6      7 1
    11      6     19 1
    12      7      8 1
    13      7     10 1
    14      8      9 2
    15     10     11 1
    16     10     15 1
    17     10     20 1
    18     11     12 1
    19     11     21 1
    20     11     22 1
    21     12     13 1
    22     12     23 1
    23     12     24 1
    24     13     14 1
    25     13     25 1
    26     13     26 1
    27     14     15 1
    28     15     27 1
    29     15     28 1
    30     29     30 2
    31     30     31 1
    32     31     32 ar
    33     31     38 ar
    34     32     33 ar
    35     32     40 1
    36     33     34 1
    37     33     36 ar
    38     34     35 3
    39     35     41 1
    40     36     37 ar
    41     36     42 1
    42     37     38 ar
    43     37     43 1
    44     38     39 1
    45     14     30 am
@<TRIPOS>SUBSTRUCTURE
     1 BB1          14
     2 BB2          30
@<TRIPOS>MOLECULE
EN300-136798_i002_EN300-4287209_i001_14_3_1
  43   45   2   0   0
SMALL
USER_CHARGES
@<TRIPOS>ATOM
     1 C1        -0.1497   -24.5429    14.6944 C.3        1 BB1          0.0000
     2 O2        -0.1678   -23.3353    13.8885 O.3        1 BB1          0.0000
     3 C3        -0.7296   -22.2410    14.4386 C.2        1 BB1          0.0000
     4 O4        -1.2035   -22.2980    15.5562 O.2        1 BB1          0.0000
     5 C5        -0.7694   -20.9750    13.6850 C.2        1 BB1          0.0000
     6 C6        -0.2674   -20.7764    12.4295 C.2        1 BB1          0.0000
     7 N7        -0.5092   -19.4891    12.1116 N.pl3      1 BB1          0.0000
     8 N8        -1.1699   -18.9173    13.2082 N.2        1 BB1          0.0000
     9 N9        -1.3108   -19.8216    14.1139 N.2        1 BB1          0.0000
    10 C10       -0.1502   -18.8163    10.8608 C.3        1 BB1          0.0000
    11 C11       -1.0129   -19.3637     9.7199 C.3        1 BB1          0.0000
    12 C12       -0.6853   -18.5999     8.4337 C.3        1 BB1          0.0000
    13 C13       -0.9099   -17.1039     8.6640 C.3        1 BB1          0.0000
    14 N14       -0.0380   -16.6359     9.7482 N.am       1 BB1          0.0000
    15 C15       -0.3946   -17.3122    11.0012 C.3        1 BB1          0.0000
    16 H16        0.3292   -25.3462    14.1344 H          1 BB1          0.0000
    17 H17        0.4071   -24.3583    15.6131 H          1 BB1          0.0000
    18 H18       -1.1717   -24.8309    14.9405 H          1 BB1          0.0000
    19 H19        0.2284   -21.5098    11.8110 H          1 BB1          0.0000
    20 H20        0.9019   -18.9957    10.6398 H          1 BB1          0.0000
    21 H21       -0.8007   -20.4234     9.5786 H          1 BB1          0.0000
    22 H22       -2.0669   -19.2312     9.9641 H          1 BB1          0.0000
    23 H23        0.3558   -18.7741     8.1619 H          1 BB1          0.0000
    24 H24       -1.3348   -18.9458     7.6294 H          1 BB1          0.0000
    25 H25       -0.6777   -16.5571     7.7501 H          1 BB1          0.0000
    26 H26       -1.9512   -16.9307     8.9354 H          1 BB1          0.0000
    27 H27       -1.4469   -17.1347    11.2227 H          1 BB1          0.0000
    28 H28        0.2179   -16.9194    11.8126 H          1 BB1          0.0000
    29 O1         0.9022   -15.2848    11.2052 O.2        2 BB2          0.0000
    30 C2        -0.0043   -14.5201    11.5040 C.2        2 BB2          0.0000
    31 C4        -0.4017   -13.4480    10.5724 C.ar       2 BB2          0.0000
    32 C5        -1.5033   -12.6425    10.8617 C.ar       2 BB2          0.0000
    33 C6        -1.8709   -11.6325     9.9767 C.ar       2 BB2          0.0000
    34 C7        -3.0001   -10.8010    10.2667 C.1        2 BB2          0.0000
    35 C8        -3.9259   -10.1193    10.5044 C.1        2 BB2          0.0000
    36 C9        -1.1364   -11.4311     8.8058 C.ar       2 BB2          0.0000
    37 C10       -0.0472   -12.2308     8.5230 C.ar       2 BB2          0.0000
    38 C11        0.3287   -13.2319     9.3982 C.ar       2 BB2          0.0000
    39 Cl12       1.6998   -14.2324     9.0338 Cl         2 BB2          0.0000
    40 H13       -2.0687   -12.8018    11.7680 H          2 BB2          0.0000
    41 H14       -4.7538    -9.5095    10.7170 H          2 BB2          0.0000
    42 H15       -1.4217   -10.6476     8.1195 H          2 BB2          0.0000
    43 H16        0.5164   -12.0702     7.6158 H          2 BB2          0.0000
@<TRIPOS>BOND
     1      1      2 1
     2      1     16 1
     3      1     17 1
     4      1     18 1
     5      2      3 1
     6      3      4 2
     7      3      5 1
     8      5      6 2
     9      5      9 1
    10      6      7 1
    11      6     19 1
    12      7      8 1
    13      7     10 1
    14      8      9 2
    15     10     11 1
    16     10     15 1
    17     10     20 1
    18     11     12 1
    19     11     21 1
    20     11     22 1
    21     12     13 1
    22     12     23 1
    23     12     24 1
    24     13     14 1
    25     13     25 1
    26     13     26 1
    27     14     15 1
    28     15     27 1
    29     15     28 1
    30     29     30 2
    31     30     31 1
    32     31     32 ar
    33     31     38 ar
    34     32     33 ar
    35     32     40 1
    36     33     34 1
    37     33     36 ar
    38     34     35 3
    39     35     41 1
    40     36     37 ar
    41     36     42 1
    42     37     38 ar
    43     37     43 1
    44     38     39 1
    45     14     30 am
@<TRIPOS>SUBSTRUCTURE
     1 BB1          14
     2 BB2          30
@<TRIPOS>MOLECULE
EN300-136798_i002_EN300-19857_i001_14_19_1
  41   43   2   0   0
SMALL
USER_CHARGES
@<TRIPOS>ATOM
     1 C1        -0.1497   -24.5429    14.6944 C.3        1 BB1          0.0000
     2 O2        -0.1678   -23.3353    13.8885 O.3        1 BB1          0.0000
     3 C3        -0.7296   -22.2410    14.4386 C.2        1 BB1          0.0000
     4 O4        -1.2035   -22.2980    15.5562 O.2        1 BB1          0.0000
     5 C5        -0.7694   -20.9750    13.6850 C.2        1 BB1          0.0000
     6 C6        -0.2674   -20.7764    12.4295 C.2        1 BB1          0.0000
     7 N7        -0.5092   -19.4891    12.1116 N.pl3      1 BB1          0.0000
     8 N8        -1.1699   -18.9173    13.2082 N.2        1 BB1          0.0000
     9 N9        -1.3108   -19.8216    14.1139 N.2        1 BB1          0.0000
    10 C10       -0.1502   -18.8163    10.8608 C.3        1 BB1          0.0000
    11 C11       -1.0129   -19.3637     9.7199 C.3        1 BB1          0.0000
    12 C12       -0.6853   -18.5999     8.4337 C.3        1 BB1          0.0000
    13 C13       -0.9099   -17.1039     8.6640 C.3        1 BB1          0.0000
    14 N14       -0.0380   -16.6359     9.7482 N.am       1 BB1          0.0000
    15 C15       -0.3946   -17.3122    11.0012 C.3        1 BB1          0.0000
    16 H16        0.3292   -25.3462    14.1344 H          1 BB1          0.0000
    17 H17        0.4071   -24.3583    15.6131 H          1 BB1          0.0000
    18 H18       -1.1717   -24.8309    14.9405 H          1 BB1          0.0000
    19 H19        0.2284   -21.5098    11.8110 H          1 BB1          0.0000
    20 H20        0.9019   -18.9957    10.6398 H          1 BB1          0.0000
    21 H21       -0.8007   -20.4234     9.5786 H          1 BB1          0.0000
    22 H22       -2.0669   -19.2312     9.9641 H          1 BB1          0.0000
    23 H23        0.3558   -18.7741     8.1619 H          1 BB1          0.0000
    24 H24       -1.3348   -18.9458     7.6294 H          1 BB1          0.0000
    25 H25       -0.6777   -16.5571     7.7501 H          1 BB1          0.0000
    26 H26       -1.9512   -16.9307     8.9354 H          1 BB1          0.0000
    27 H27       -1.4469   -17.1347    11.2227 H          1 BB1          0.0000
    28 H28        0.2179   -16.9194    11.8126 H          1 BB1          0.0000
    29 O1         0.4960   -16.3601    11.6857 O.2        2 BB2          0.0000
    30 C2         0.1084   -15.2492    12.0190 C.2        2 BB2          0.0000
    31 C4        -0.1003   -14.2039    10.9989 C.ar       2 BB2          0.0000
    32 C5         0.6067   -14.2472     9.7949 C.ar       2 BB2          0.0000
    33 C6         0.4070   -13.2666     8.8454 C.ar       2 BB2          0.0000
    34 C7        -0.4913   -12.2416     9.0830 C.ar       2 BB2          0.0000
    35 C8        -1.1956   -12.1914    10.2743 C.ar       2 BB2          0.0000
    36 Br9       -2.4207   -10.7854    10.5877 Br         2 BB2          0.0000
    37 C10       -1.0103   -13.1691    11.2304 C.ar       2 BB2          0.0000
    38 H11        1.3085   -15.0465     9.6080 H          2 BB2          0.0000
    39 H12        0.9533   -13.2990     7.9144 H          2 BB2          0.0000
    40 H13       -0.6436   -11.4766     8.3360 H          2 BB2          0.0000
    41 H14       -1.5600   -13.1293    12.1592 H          2 BB2          0.0000
@<TRIPOS>BOND
     1      1      2 1
     2      1     16 1
     3      1     17 1
     4      1     18 1
     5      2      3 1
     6      3      4 2
     7      3      5 1
     8      5      6 2
     9      5      9 1
    10      6      7 1
    11      6     19 1
    12      7      8 1
    13      7     10 1
    14      8      9 2
    15     10     11 1
    16     10     15 1
    17     10     20 1
    18     11     12 1
    19     11     21 1
    20     11     22 1
    21     12     13 1
    22     12     23 1
    23     12     24 1
    24     13     14 1
    25     13     25 1
    26     13     26 1
    27     14     15 1
    28     15     27 1
    29     15     28 1
    30     29     30 2
    31     30     31 1
    32     31     32 ar
    33     31     37 ar
    34     32     33 ar
    35     32     38 1
    36     33     34 ar
    37     33     39 1
    38     34     35 ar
    39     34     40 1
    40     35     36 1
    41     35     37 ar
    42     37     41 1
    43     14     30 am
@<TRIPOS>SUBSTRUCTURE
     1 BB1          14
     2 BB2          30
@<TRIPOS>MOLECULE
EN300-136798_i002_EN300-19857_i001_14_20_1
  41   43   2   0   0
SMALL
USER_CHARGES
@<TRIPOS>ATOM
     1 C1        -0.1497   -24.5429    14.6944 C.3        1 BB1          0.0000
     2 O2        -0.1678   -23.3353    13.8885 O.3        1 BB1          0.0000
     3 C3        -0.7296   -22.2410    14.4386 C.2        1 BB1          0.0000
     4 O4        -1.2035   -22.2980    15.5562 O.2        1 BB1          0.0000
     5 C5        -0.7694   -20.9750    13.6850 C.2        1 BB1          0.0000
     6 C6        -0.2674   -20.7764    12.4295 C.2        1 BB1          0.0000
     7 N7        -0.5092   -19.4891    12.1116 N.pl3      1 BB1          0.0000
     8 N8        -1.1699   -18.9173    13.2082 N.2        1 BB1          0.0000
     9 N9        -1.3108   -19.8216    14.1139 N.2        1 BB1          0.0000
    10 C10       -0.1502   -18.8163    10.8608 C.3        1 BB1          0.0000
    11 C11       -1.0129   -19.3637     9.7199 C.3        1 BB1          0.0000
    12 C12       -0.6853   -18.5999     8.4337 C.3        1 BB1          0.0000
    13 C13       -0.9099   -17.1039     8.6640 C.3        1 BB1          0.0000
    14 N14       -0.0380   -16.6359     9.7482 N.am       1 BB1          0.0000
    15 C15       -0.3946   -17.3122    11.0012 C.3        1 BB1          0.0000
    16 H16        0.3292   -25.3462    14.1344 H          1 BB1          0.0000
    17 H17        0.4071   -24.3583    15.6131 H          1 BB1          0.0000
    18 H18       -1.1717   -24.8309    14.9405 H          1 BB1          0.0000
    19 H19        0.2284   -21.5098    11.8110 H          1 BB1          0.0000
    20 H20        0.9019   -18.9957    10.6398 H          1 BB1          0.0000
    21 H21       -0.8007   -20.4234     9.5786 H          1 BB1          0.0000
    22 H22       -2.0669   -19.2312     9.9641 H          1 BB1          0.0000
    23 H23        0.3558   -18.7741     8.1619 H          1 BB1          0.0000
    24 H24       -1.3348   -18.9458     7.6294 H          1 BB1          0.0000
    25 H25       -0.6777   -16.5571     7.7501 H          1 BB1          0.0000
    26 H26       -1.9512   -16.9307     8.9354 H          1 BB1          0.0000
    27 H27       -1.4469   -17.1347    11.2227 H          1 BB1          0.0000
    28 H28        0.2179   -16.9194    11.8126 H          1 BB1          0.0000
    29 C2        -0.0612   -14.3703    11.2846 C.2        2 BB2          0.0000
    30 O3         0.9101   -15.0078    10.9027 O.2        2 BB2          0.0000
    31 C4        -0.4899   -13.1665    10.5471 C.ar       2 BB2          0.0000
    32 C5         0.2870   -12.6738     9.4958 C.ar       2 BB2          0.0000
    33 C6        -0.1195   -11.5478     8.8104 C.ar       2 BB2          0.0000
    34 C7        -1.2938   -10.9062     9.1618 C.ar       2 BB2          0.0000
    35 C8        -2.0692   -11.3882    10.2031 C.ar       2 BB2          0.0000
    36 Br9       -3.6723   -10.5028    10.6742 Br         2 BB2          0.0000
    37 C10       -1.6778   -12.5173    10.8933 C.ar       2 BB2          0.0000
    38 H11        1.2041   -13.1732     9.2205 H          2 BB2          0.0000
    39 H12        0.4805   -11.1659     7.9978 H          2 BB2          0.0000
    40 H13       -1.6071   -10.0250     8.6216 H          2 BB2          0.0000
    41 H14       -2.2830   -12.8926    11.7053 H          2 BB2          0.0000
@<TRIPOS>BOND
     1      1      2 1
     2      1     16 1
     3      1     17 1
     4      1     18 1
     5      2      3 1
     6      3      4 2
     7      3      5 1
     8      5      6 2
     9      5      9 1
    10      6      7 1
    11      6     19 1
    12      7      8 1
    13      7     10 1
    14      8      9 2
    15     10     11 1
    16     10     15 1
    17     10     20 1
    18     11     12 1
    19     11     21 1
    20     11     22 1
    21     12     13 1
    22     12     23 1
    23     12     24 1
    24     13     14 1
    25     13     25 1
    26     13     26 1
    27     14     15 1
    28     15     27 1
    29     15     28 1
    30     29     30 2
    31     29     31 1
    32     31     32 ar
    33     31     37 ar
    34     32     33 ar
    35     32     38 1
    36     33     34 ar
    37     33     39 1
    38     34     35 ar
    39     34     40 1
    40     35     36 1
    41     35     37 ar
    42     37     41 1
    43     14     29 am
@<TRIPOS>SUBSTRUCTURE
     1 BB1          14
     2 BB2          29
@<TRIPOS>MOLECULE
EN300-136798_i002_EN300-18555_i001_14_7_1
  58   61   2   0   0
SMALL
USER_CHARGES
@<TRIPOS>ATOM
     1 C1        -0.1497   -24.5429    14.6944 C.3        1 BB1          0.0000
     2 O2        -0.1678   -23.3353    13.8885 O.3        1 BB1          0.0000
     3 C3        -0.7296   -22.2410    14.4386 C.2        1 BB1          0.0000
     4 O4        -1.2035   -22.2980    15.5562 O.2        1 BB1          0.0000
     5 C5        -0.7694   -20.9750    13.6850 C.2        1 BB1          0.0000
     6 C6        -0.2674   -20.7764    12.4295 C.2        1 BB1          0.0000
     7 N7        -0.5092   -19.4891    12.1116 N.pl3      1 BB1          0.0000
     8 N8        -1.1699   -18.9173    13.2082 N.2        1 BB1          0.0000
     9 N9        -1.3108   -19.8216    14.1139 N.2        1 BB1          0.0000
    10 C10       -0.1502   -18.8163    10.8608 C.3        1 BB1          0.0000
    11 C11       -1.0129   -19.3637     9.7199 C.3        1 BB1          0.0000
    12 C12       -0.6853   -18.5999     8.4337 C.3        1 BB1          0.0000
    13 C13       -0.9099   -17.1039     8.6640 C.3        1 BB1          0.0000
    14 N14       -0.0380   -16.6359     9.7482 N.am       1 BB1          0.0000
    15 C15       -0.3946   -17.3122    11.0012 C.3        1 BB1          0.0000
    16 H16        0.3292   -25.3462    14.1344 H          1 BB1          0.0000
    17 H17        0.4071   -24.3583    15.6131 H          1 BB1          0.0000
    18 H18       -1.1717   -24.8309    14.9405 H          1 BB1          0.0000
    19 H19        0.2284   -21.5098    11.8110 H          1 BB1          0.0000
    20 H20        0.9019   -18.9957    10.6398 H          1 BB1          0.0000
    21 H21       -0.8007   -20.4234     9.5786 H          1 BB1          0.0000
    22 H22       -2.0669   -19.2312     9.9641 H          1 BB1          0.0000
    23 H23        0.3558   -18.7741     8.1619 H          1 BB1          0.0000
    24 H24       -1.3348   -18.9458     7.6294 H          1 BB1          0.0000
    25 H25       -0.6777   -16.5571     7.7501 H          1 BB1          0.0000
    26 H26       -1.9512   -16.9307     8.9354 H          1 BB1          0.0000
    27 H27       -1.4469   -17.1347    11.2227 H          1 BB1          0.0000
    28 H28        0.2179   -16.9194    11.8126 H          1 BB1          0.0000
    29 C1         2.0217   -18.3056    14.9987 C.3        2 BB2          0.0000
    30 C2         1.5678   -17.8633    13.6315 C.2        2 BB2          0.0000
    31 O3         1.8024   -18.5532    12.6621 O.2        2 BB2          0.0000
    32 N4         0.9011   -16.7010    13.4861 N.am       2 BB2          0.0000
    33 C5         0.4598   -16.2710    12.1570 C.3        2 BB2          0.0000
    34 C6        -0.2432   -14.9165    12.2666 C.3        2 BB2          0.0000
    35 C7        -0.1132   -14.1760    10.9606 C.2        2 BB2          0.0000
    36 C8         0.5642   -14.5833     9.8756 C.2        2 BB2          0.0000
    37 N9         0.4568   -13.6499     8.8809 N.pl3      2 BB2          0.0000
    38 C10       -0.3119   -12.5922     9.3124 C.ar       2 BB2          0.0000
    39 C11       -0.7275   -11.4052     8.7183 C.ar       2 BB2          0.0000
    40 C12       -1.5141   -10.5238     9.4275 C.ar       2 BB2          0.0000
    41 C13       -1.8970   -10.8077    10.7309 C.ar       2 BB2          0.0000
    42 C14       -1.4995   -11.9677    11.3342 C.ar       2 BB2          0.0000
    43 C15       -0.7075   -12.8779    10.6320 C.ar       2 BB2          0.0000
    44 C16       -0.4966   -17.2891    11.5915 C.2        2 BB2          0.0000
    45 O18       -0.4024   -17.6321    10.4253 O.2        2 BB2          0.0000
    46 H19        2.5394   -19.2615    14.9181 H          2 BB2          0.0000
    47 H20        2.6986   -17.5600    15.4158 H          2 BB2          0.0000
    48 H21        1.1556   -18.4155    15.6513 H          2 BB2          0.0000
    49 H22        1.3240   -16.1796    11.4992 H          2 BB2          0.0000
    50 H23       -1.2981   -15.0719    12.4928 H          2 BB2          0.0000
    51 H24        0.2168   -14.3317    13.0631 H          2 BB2          0.0000
    52 H25        1.1129   -15.5103     9.7992 H          2 BB2          0.0000
    53 H26       -0.4345   -11.1752     7.7045 H          2 BB2          0.0000
    54 H27       -1.8356    -9.6025     8.9645 H          2 BB2          0.0000
    55 H28       -2.5137   -10.1061    11.2729 H          2 BB2          0.0000
    56 H29       -1.8010   -12.1817    12.3489 H          2 BB2          0.0000
    57 H30        0.7135   -16.1492    14.2616 H          2 BB2          0.0000
    58 H31        0.8620   -13.7225     8.0025 H          2 BB2          0.0000
@<TRIPOS>BOND
     1      1      2 1
     2      1     16 1
     3      1     17 1
     4      1     18 1
     5      2      3 1
     6      3      4 2
     7      3      5 1
     8      5      6 2
     9      5      9 1
    10      6      7 1
    11      6     19 1
    12      7      8 1
    13      7     10 1
    14      8      9 2
    15     10     11 1
    16     10     15 1
    17     10     20 1
    18     11     12 1
    19     11     21 1
    20     11     22 1
    21     12     13 1
    22     12     23 1
    23     12     24 1
    24     13     14 1
    25     13     25 1
    26     13     26 1
    27     14     15 1
    28     15     27 1
    29     15     28 1
    30     29     30 1
    31     29     46 1
    32     29     47 1
    33     29     48 1
    34     30     31 2
    35     30     32 am
    36     32     33 1
    37     32     57 1
    38     33     34 1
    39     33     44 1
    40     33     49 1
    41     34     35 1
    42     34     50 1
    43     34     51 1
    44     35     36 2
    45     35     43 1
    46     36     37 1
    47     36     52 1
    48     37     38 1
    49     37     58 1
    50     38     39 ar
    51     38     43 ar
    52     39     40 ar
    53     39     53 1
    54     40     41 ar
    55     40     54 1
    56     41     42 ar
    57     41     55 1
    58     42     43 ar
    59     42     56 1
    60     44     45 2
    61     14     44 am
@<TRIPOS>SUBSTRUCTURE
     1 BB1          14
     2 BB2          44
@<TRIPOS>MOLECULE
EN300-136798_i002_EN300-1165841_i001_14_7_1
  56   58   2   0   0
SMALL
USER_CHARGES
@<TRIPOS>ATOM
     1 C1        -0.1497   -24.5429    14.6944 C.3        1 BB1          0.0000
     2 O2        -0.1678   -23.3353    13.8885 O.3        1 BB1          0.0000
     3 C3        -0.7296   -22.2410    14.4386 C.2        1 BB1          0.0000
     4 O4        -1.2035   -22.2980    15.5562 O.2        1 BB1          0.0000
     5 C5        -0.7694   -20.9750    13.6850 C.2        1 BB1          0.0000
     6 C6        -0.2674   -20.7764    12.4295 C.2        1 BB1          0.0000
     7 N7        -0.5092   -19.4891    12.1116 N.pl3      1 BB1          0.0000
     8 N8        -1.1699   -18.9173    13.2082 N.2        1 BB1          0.0000
     9 N9        -1.3108   -19.8216    14.1139 N.2        1 BB1          0.0000
    10 C10       -0.1502   -18.8163    10.8608 C.3        1 BB1          0.0000
    11 C11       -1.0129   -19.3637     9.7199 C.3        1 BB1          0.0000
    12 C12       -0.6853   -18.5999     8.4337 C.3        1 BB1          0.0000
    13 C13       -0.9099   -17.1039     8.6640 C.3        1 BB1          0.0000
    14 N14       -0.0380   -16.6359     9.7482 N.am       1 BB1          0.0000
    15 C15       -0.3946   -17.3122    11.0012 C.3        1 BB1          0.0000
    16 H16        0.3292   -25.3462    14.1344 H          1 BB1          0.0000
    17 H17        0.4071   -24.3583    15.6131 H          1 BB1          0.0000
    18 H18       -1.1717   -24.8309    14.9405 H          1 BB1          0.0000
    19 H19        0.2284   -21.5098    11.8110 H          1 BB1          0.0000
    20 H20        0.9019   -18.9957    10.6398 H          1 BB1          0.0000
    21 H21       -0.8007   -20.4234     9.5786 H          1 BB1          0.0000
    22 H22       -2.0669   -19.2312     9.9641 H          1 BB1          0.0000
    23 H23        0.3558   -18.7741     8.1619 H          1 BB1          0.0000
    24 H24       -1.3348   -18.9458     7.6294 H          1 BB1          0.0000
    25 H25       -0.6777   -16.5571     7.7501 H          1 BB1          0.0000
    26 H26       -1.9512   -16.9307     8.9354 H          1 BB1          0.0000
    27 H27       -1.4469   -17.1347    11.2227 H          1 BB1          0.0000
    28 H28        0.2179   -16.9194    11.8126 H          1 BB1          0.0000
    29 C1         0.9292   -14.9156    10.6732 C.3        2 BB2          0.0000
    30 C2         0.8430   -13.8618     9.5673 C.3        2 BB2          0.0000
    31 N3        -0.4583   -13.1839     9.6372 N.4        2 BB2          1.0000
    32 C4        -0.4627   -12.0402     8.7171 C.3        2 BB2          0.0000
    33 C5        -1.8425   -11.3789     8.7258 C.3        2 BB2          0.0000
    34 C6        -2.1625   -10.8966    10.1436 C.3        2 BB2          0.0000
    35 O7        -1.2160    -9.8999    10.5342 O.3        2 BB2          0.0000
    36 C8        -2.0822   -12.0845    11.1067 C.3        2 BB2          0.0000
    37 C9        -0.6933   -12.7197    11.0097 C.3        2 BB2          0.0000
    38 C10       -3.5192   -10.3263    10.1750 C.1        2 BB2          0.0000
    39 C11       -4.6012    -9.8715    10.2000 C.1        2 BB2          0.0000
    40 C12        0.9900   -14.5297     8.2244 C.2        2 BB2          0.0000
    41 O13        0.3991   -15.5709     7.9935 O.2        2 BB2          0.0000
    42 H15        0.1312   -15.6464    10.5416 H          2 BB2          0.0000
    43 H16        1.8947   -15.4187    10.6213 H          2 BB2          0.0000
    44 H17        0.8228   -14.4325    11.6445 H          2 BB2          0.0000
    45 H18        1.6410   -13.1310     9.6988 H          2 BB2          0.0000
    46 H19        0.2885   -11.3167     9.0339 H          2 BB2          0.0000
    47 H20       -0.2316   -12.3847     7.7091 H          2 BB2          0.0000
    48 H21       -1.8431   -10.5290     8.0434 H          2 BB2          0.0000
    49 H22       -2.5945   -12.1017     8.4088 H          2 BB2          0.0000
    50 H23       -2.2540   -11.7390    12.1260 H          2 BB2          0.0000
    51 H24       -2.8391   -12.8218    10.8391 H          2 BB2          0.0000
    52 H25       -0.6326   -13.5657    11.6943 H          2 BB2          0.0000
    53 H26        0.0627   -11.9817    11.2778 H          2 BB2          0.0000
    54 H27       -5.5689    -9.4646    10.2224 H          2 BB2          0.0000
    55 H28       -1.5775    -9.0034    10.5617 H          2 BB2          0.0000
    56 H29       -1.1874   -13.8294     9.3732 H          2 BB2          0.0000
@<TRIPOS>BOND
     1      1      2 1
     2      1     16 1
     3      1     17 1
     4      1     18 1
     5      2      3 1
     6      3      4 2
     7      3      5 1
     8      5      6 2
     9      5      9 1
    10      6      7 1
    11      6     19 1
    12      7      8 1
    13      7     10 1
    14      8      9 2
    15     10     11 1
    16     10     15 1
    17     10     20 1
    18     11     12 1
    19     11     21 1
    20     11     22 1
    21     12     13 1
    22     12     23 1
    23     12     24 1
    24     13     14 1
    25     13     25 1
    26     13     26 1
    27     14     15 1
    28     15     27 1
    29     15     28 1
    30     29     30 1
    31     29     42 1
    32     29     43 1
    33     29     44 1
    34     30     31 1
    35     30     40 1
    36     30     45 1
    37     31     32 1
    38     31     37 1
    39     31     56 1
    40     32     33 1
    41     32     46 1
    42     32     47 1
    43     33     34 1
    44     33     48 1
    45     33     49 1
    46     34     35 1
    47     34     36 1
    48     34     38 1
    49     35     55 1
    50     36     37 1
    51     36     50 1
    52     36     51 1
    53     37     52 1
    54     37     53 1
    55     38     39 3
    56     39     54 1
    57     40     41 2
    58     14     40 am
@<TRIPOS>SUBSTRUCTURE
     1 BB1          14
     2 BB2          40
@<TRIPOS>MOLECULE
EN300-136798_i002_EN300-97777_i001_14_8_1
  56   57   2   0   0
SMALL
USER_CHARGES
@<TRIPOS>ATOM
     1 C1        -0.1497   -24.5429    14.6944 C.3        1 BB1          0.0000
     2 O2        -0.1678   -23.3353    13.8885 O.3        1 BB1          0.0000
     3 C3        -0.7296   -22.2410    14.4386 C.2        1 BB1          0.0000
     4 O4        -1.2035   -22.2980    15.5562 O.2        1 BB1          0.0000
     5 C5        -0.7694   -20.9750    13.6850 C.2        1 BB1          0.0000
     6 C6        -0.2674   -20.7764    12.4295 C.2        1 BB1          0.0000
     7 N7        -0.5092   -19.4891    12.1116 N.pl3      1 BB1          0.0000
     8 N8        -1.1699   -18.9173    13.2082 N.2        1 BB1          0.0000
     9 N9        -1.3108   -19.8216    14.1139 N.2        1 BB1          0.0000
    10 C10       -0.1502   -18.8163    10.8608 C.3        1 BB1          0.0000
    11 C11       -1.0129   -19.3637     9.7199 C.3        1 BB1          0.0000
    12 C12       -0.6853   -18.5999     8.4337 C.3        1 BB1          0.0000
    13 C13       -0.9099   -17.1039     8.6640 C.3        1 BB1          0.0000
    14 N14       -0.0380   -16.6359     9.7482 N.am       1 BB1          0.0000
    15 C15       -0.3946   -17.3122    11.0012 C.3        1 BB1          0.0000
    16 H16        0.3292   -25.3462    14.1344 H          1 BB1          0.0000
    17 H17        0.4071   -24.3583    15.6131 H          1 BB1          0.0000
    18 H18       -1.1717   -24.8309    14.9405 H          1 BB1          0.0000
    19 H19        0.2284   -21.5098    11.8110 H          1 BB1          0.0000
    20 H20        0.9019   -18.9957    10.6398 H          1 BB1          0.0000
    21 H21       -0.8007   -20.4234     9.5786 H          1 BB1          0.0000
    22 H22       -2.0669   -19.2312     9.9641 H          1 BB1          0.0000
    23 H23        0.3558   -18.7741     8.1619 H          1 BB1          0.0000
    24 H24       -1.3348   -18.9458     7.6294 H          1 BB1          0.0000
    25 H25       -0.6777   -16.5571     7.7501 H          1 BB1          0.0000
    26 H26       -1.9512   -16.9307     8.9354 H          1 BB1          0.0000
    27 H27       -1.4469   -17.1347    11.2227 H          1 BB1          0.0000
    28 H28        0.2179   -16.9194    11.8126 H          1 BB1          0.0000
    29 C1        -1.8238   -10.7306     9.0157 C.3        2 BB2          0.0000
    30 C2        -1.8143   -10.8225    10.5429 C.3        2 BB2          0.0000
    31 C3        -0.6982    -9.9367    11.1002 C.3        2 BB2          0.0000
    32 C4        -3.1623   -10.3495    11.0907 C.3        2 BB2          0.0000
    33 O5        -1.5852   -12.1992    10.9435 O.3        2 BB2          0.0000
    34 C6        -0.4439   -12.7765    10.5227 C.2        2 BB2          0.0000
    35 O7         0.3377   -12.1479     9.8369 O.2        2 BB2          0.0000
    36 N8        -0.1686   -14.0514    10.8621 N.am       2 BB2          0.0000
    37 C9         1.0732   -14.6795    10.4043 C.3        2 BB2          0.0000
    38 C10        1.1107   -14.6769     8.9327 C.1        2 BB2          0.0000
    39 C11        1.1408   -14.6748     7.7592 C.1        2 BB2          0.0000
    40 C12       -1.1112   -14.8091    11.6891 C.3        2 BB2          0.0000
    41 C13       -0.3637   -15.8619    12.4662 C.2        2 BB2          0.0000
    42 O14       -0.8290   -16.9834    12.5766 O.2        2 BB2          0.0000
    43 H16       -0.8635   -11.0675     8.6255 H          2 BB2          0.0000
    44 H17       -2.6190   -11.3616     8.6187 H          2 BB2          0.0000
    45 H18       -1.9957    -9.6971     8.7149 H          2 BB2          0.0000
    46 H19       -0.8702    -8.9032    10.7994 H          2 BB2          0.0000
    47 H20       -0.6914   -10.0022    12.1882 H          2 BB2          0.0000
    48 H21        0.2622   -10.2736    10.7099 H          2 BB2          0.0000
    49 H22       -3.9575   -10.9806    10.6936 H          2 BB2          0.0000
    50 H23       -3.1556   -10.4150    12.1787 H          2 BB2          0.0000
    51 H24       -3.3342    -9.3160    10.7899 H          2 BB2          0.0000
    52 H25        1.9262   -14.1218    10.7905 H          2 BB2          0.0000
    53 H26        1.1161   -15.7064    10.7669 H          2 BB2          0.0000
    54 H27        1.1676   -14.6729     6.7094 H          2 BB2          0.0000
    55 H28       -1.6115   -14.1327    12.3822 H          2 BB2          0.0000
    56 H29       -1.8526   -15.2876    11.0493 H          2 BB2          0.0000
@<TRIPOS>BOND
     1      1      2 1
     2      1     16 1
     3      1     17 1
     4      1     18 1
     5      2      3 1
     6      3      4 2
     7      3      5 1
     8      5      6 2
     9      5      9 1
    10      6      7 1
    11      6     19 1
    12      7      8 1
    13      7     10 1
    14      8      9 2
    15     10     11 1
    16     10     15 1
    17     10     20 1
    18     11     12 1
    19     11     21 1
    20     11     22 1
    21     12     13 1
    22     12     23 1
    23     12     24 1
    24     13     14 1
    25     13     25 1
    26     13     26 1
    27     14     15 1
    28     15     27 1
    29     15     28 1
    30     29     30 1
    31     29     43 1
    32     29     44 1
    33     29     45 1
    34     30     31 1
    35     30     32 1
    36     30     33 1
    37     31     46 1
    38     31     47 1
    39     31     48 1
    40     32     49 1
    41     32     50 1
    42     32     51 1
    43     33     34 1
    44     34     35 2
    45     34     36 am
    46     36     37 1
    47     36     40 1
    48     37     38 1
    49     37     52 1
    50     37     53 1
    51     38     39 3
    52     39     54 1
    53     40     41 1
    54     40     55 1
    55     40     56 1
    56     41     42 2
    57     14     41 am
@<TRIPOS>SUBSTRUCTURE
     1 BB1          14
     2 BB2          41
@<TRIPOS>MOLECULE
EN300-136798_i002_EN300-29801_i001_14_20_1
  61   62   2   0   0
SMALL
USER_CHARGES
@<TRIPOS>ATOM
     1 C1        -0.1497   -24.5429    14.6944 C.3        1 BB1          0.0000
     2 O2        -0.1678   -23.3353    13.8885 O.3        1 BB1          0.0000
     3 C3        -0.7296   -22.2410    14.4386 C.2        1 BB1          0.0000
     4 O4        -1.2035   -22.2980    15.5562 O.2        1 BB1          0.0000
     5 C5        -0.7694   -20.9750    13.6850 C.2        1 BB1          0.0000
     6 C6        -0.2674   -20.7764    12.4295 C.2        1 BB1          0.0000
     7 N7        -0.5092   -19.4891    12.1116 N.pl3      1 BB1          0.0000
     8 N8        -1.1699   -18.9173    13.2082 N.2        1 BB1          0.0000
     9 N9        -1.3108   -19.8216    14.1139 N.2        1 BB1          0.0000
    10 C10       -0.1502   -18.8163    10.8608 C.3        1 BB1          0.0000
    11 C11       -1.0129   -19.3637     9.7199 C.3        1 BB1          0.0000
    12 C12       -0.6853   -18.5999     8.4337 C.3        1 BB1          0.0000
    13 C13       -0.9099   -17.1039     8.6640 C.3        1 BB1          0.0000
    14 N14       -0.0380   -16.6359     9.7482 N.am       1 BB1          0.0000
    15 C15       -0.3946   -17.3122    11.0012 C.3        1 BB1          0.0000
    16 H16        0.3292   -25.3462    14.1344 H          1 BB1          0.0000
    17 H17        0.4071   -24.3583    15.6131 H          1 BB1          0.0000
    18 H18       -1.1717   -24.8309    14.9405 H          1 BB1          0.0000
    19 H19        0.2284   -21.5098    11.8110 H          1 BB1          0.0000
    20 H20        0.9019   -18.9957    10.6398 H          1 BB1          0.0000
    21 H21       -0.8007   -20.4234     9.5786 H          1 BB1          0.0000
    22 H22       -2.0669   -19.2312     9.9641 H          1 BB1          0.0000
    23 H23        0.3558   -18.7741     8.1619 H          1 BB1          0.0000
    24 H24       -1.3348   -18.9458     7.6294 H          1 BB1          0.0000
    25 H25       -0.6777   -16.5571     7.7501 H          1 BB1          0.0000
    26 H26       -1.9512   -16.9307     8.9354 H          1 BB1          0.0000
    27 H27       -1.4469   -17.1347    11.2227 H          1 BB1          0.0000
    28 H28        0.2179   -16.9194    11.8126 H          1 BB1          0.0000
    29 C1         2.2804   -16.8052    14.2059 C.3        2 BB2          0.0000
    30 S2         0.4678   -16.7449    14.2472 S.3        2 BB2          0.0000
    31 C3         0.0818   -15.3371    13.1704 C.3        2 BB2          0.0000
    32 C4         0.5021   -15.6620    11.7356 C.3        2 BB2          0.0000
    33 C5         0.5268   -14.3757    10.9076 C.3        2 BB2          0.0000
    34 N6        -0.7701   -13.7023    11.0128 N.am       2 BB2          0.0000
    35 C7        -0.9517   -12.4963    10.4391 C.2        2 BB2          0.0000
    36 O8        -0.0398   -11.9676     9.8345 O.2        2 BB2          0.0000
    37 O9        -2.1435   -11.8775    10.5357 O.3        2 BB2          0.0000
    38 C10       -2.1817   -10.4649    10.2021 C.3        2 BB2          0.0000
    39 C11       -1.1186    -9.7205    11.0125 C.3        2 BB2          0.0000
    40 C12       -1.9023   -10.2859     8.7085 C.3        2 BB2          0.0000
    41 C13       -3.5642    -9.8997    10.5337 C.3        2 BB2          0.0000
    42 C14        0.8024   -14.7122     9.4648 C.2        2 BB2          0.0000
    43 O16        0.0440   -15.4464     8.8544 O.2        2 BB2          0.0000
    44 H17        2.6156   -16.9582    13.1801 H          2 BB2          0.0000
    45 H18        2.6839   -15.8659    14.5838 H          2 BB2          0.0000
    46 H19        2.6308   -17.6280    14.8292 H          2 BB2          0.0000
    47 H20       -0.9900   -15.1408    13.1993 H          2 BB2          0.0000
    48 H21        0.6220   -14.4560    13.5166 H          2 BB2          0.0000
    49 H22        1.4959   -16.1098    11.7408 H          2 BB2          0.0000
    50 H23       -0.2097   -16.3622    11.2982 H          2 BB2          0.0000
    51 H24        1.3098   -13.7168    11.2830 H          2 BB2          0.0000
    52 H25       -0.1336   -10.1232    10.7763 H          2 BB2          0.0000
    53 H26       -1.1473    -8.6601    10.7621 H          2 BB2          0.0000
    54 H27       -1.3176    -9.8481    12.0766 H          2 BB2          0.0000
    55 H28       -2.6596   -10.8162     8.1312 H          2 BB2          0.0000
    56 H29       -1.9309    -9.2254     8.4580 H          2 BB2          0.0000
    57 H30       -0.9173   -10.6885     8.4723 H          2 BB2          0.0000
    58 H31       -3.7633   -10.0272    11.5977 H          2 BB2          0.0000
    59 H32       -3.5928    -8.8392    10.2832 H          2 BB2          0.0000
    60 H33       -4.3215   -10.4300     9.9562 H          2 BB2          0.0000
    61 H34       -1.4980   -14.1244    11.4954 H          2 BB2          0.0000
@<TRIPOS>BOND
     1      1      2 1
     2      1     16 1
     3      1     17 1
     4      1     18 1
     5      2      3 1
     6      3      4 2
     7      3      5 1
     8      5      6 2
     9      5      9 1
    10      6      7 1
    11      6     19 1
    12      7      8 1
    13      7     10 1
    14      8      9 2
    15     10     11 1
    16     10     15 1
    17     10     20 1
    18     11     12 1
    19     11     21 1
    20     11     22 1
    21     12     13 1
    22     12     23 1
    23     12     24 1
    24     13     14 1
    25     13     25 1
    26     13     26 1
    27     14     15 1
    28     15     27 1
    29     15     28 1
    30     29     30 1
    31     29     44 1
    32     29     45 1
    33     29     46 1
    34     30     31 1
    35     31     32 1
    36     31     47 1
    37     31     48 1
    38     32     33 1
    39     32     49 1
    40     32     50 1
    41     33     34 1
    42     33     42 1
    43     33     51 1
    44     34     35 am
    45     34     61 1
    46     35     36 2
    47     35     37 1
    48     37     38 1
    49     38     39 1
    50     38     40 1
    51     38     41 1
    52     39     52 1
    53     39     53 1
    54     39     54 1
    55     40     55 1
    56     40     56 1
    57     40     57 1
    58     41     58 1
    59     41     59 1
    60     41     60 1
    61     42     43 2
    62     14     42 am
@<TRIPOS>SUBSTRUCTURE
     1 BB1          14
     2 BB2          42
@<TRIPOS>MOLECULE
EN300-136798_i002_EN300-26870132_i002_14_12_1
  68   70   2   0   0
SMALL
USER_CHARGES
@<TRIPOS>ATOM
     1 C1        -0.1497   -24.5429    14.6944 C.3        1 BB1          0.0000
     2 O2        -0.1678   -23.3353    13.8885 O.3        1 BB1          0.0000
     3 C3        -0.7296   -22.2410    14.4386 C.2        1 BB1          0.0000
     4 O4        -1.2035   -22.2980    15.5562 O.2        1 BB1          0.0000
     5 C5        -0.7694   -20.9750    13.6850 C.2        1 BB1          0.0000
     6 C6        -0.2674   -20.7764    12.4295 C.2        1 BB1          0.0000
     7 N7        -0.5092   -19.4891    12.1116 N.pl3      1 BB1          0.0000
     8 N8        -1.1699   -18.9173    13.2082 N.2        1 BB1          0.0000
     9 N9        -1.3108   -19.8216    14.1139 N.2        1 BB1          0.0000
    10 C10       -0.1502   -18.8163    10.8608 C.3        1 BB1          0.0000
    11 C11       -1.0129   -19.3637     9.7199 C.3        1 BB1          0.0000
    12 C12       -0.6853   -18.5999     8.4337 C.3        1 BB1          0.0000
    13 C13       -0.9099   -17.1039     8.6640 C.3        1 BB1          0.0000
    14 N14       -0.0380   -16.6359     9.7482 N.am       1 BB1          0.0000
    15 C15       -0.3946   -17.3122    11.0012 C.3        1 BB1          0.0000
    16 H16        0.3292   -25.3462    14.1344 H          1 BB1          0.0000
    17 H17        0.4071   -24.3583    15.6131 H          1 BB1          0.0000
    18 H18       -1.1717   -24.8309    14.9405 H          1 BB1          0.0000
    19 H19        0.2284   -21.5098    11.8110 H          1 BB1          0.0000
    20 H20        0.9019   -18.9957    10.6398 H          1 BB1          0.0000
    21 H21       -0.8007   -20.4234     9.5786 H          1 BB1          0.0000
    22 H22       -2.0669   -19.2312     9.9641 H          1 BB1          0.0000
    23 H23        0.3558   -18.7741     8.1619 H          1 BB1          0.0000
    24 H24       -1.3348   -18.9458     7.6294 H          1 BB1          0.0000
    25 H25       -0.6777   -16.5571     7.7501 H          1 BB1          0.0000
    26 H26       -1.9512   -16.9307     8.9354 H          1 BB1          0.0000
    27 H27       -1.4469   -17.1347    11.2227 H          1 BB1          0.0000
    28 H28        0.2179   -16.9194    11.8126 H          1 BB1          0.0000
    29 C1         1.7065   -18.0724    12.8541 C.3        2 BB2          0.0000
    30 C2         0.9805   -16.9795    13.6411 C.3        2 BB2          0.0000
    31 C3        -0.0259   -17.6226    14.5973 C.3        2 BB2          0.0000
    32 C4         1.9987   -16.1668    14.4433 C.3        2 BB2          0.0000
    33 O5         0.2803   -16.1031    12.7190 O.3        2 BB2          0.0000
    34 C6         1.0053   -15.5586    11.7236 C.2        2 BB2          0.0000
    35 O7         2.2190   -15.6011    11.7625 O.2        2 BB2          0.0000
    36 N8         0.3847   -14.9664    10.6841 N.am       2 BB2          0.0000
    37 C9         1.1734   -14.3739     9.6011 C.3        2 BB2          0.0000
    38 C10        1.0257   -12.8514     9.6364 C.3        2 BB2          0.0000
    39 C11       -0.4404   -12.4759     9.4119 C.3        2 BB2          0.0000
    40 C12       -1.1544   -12.3842    10.7628 C.3        2 BB2          0.0000
    41 C13       -2.5307   -11.7453    10.5412 C.3        2 BB2          0.0000
    42 C14       -2.3324   -10.2867    10.1272 C.3        2 BB2          0.0000
    43 N15       -1.3822   -10.1936     9.0259 N.am       2 BB2          0.0000
    44 C16       -0.5138   -11.1533     8.7043 C.2        2 BB2          0.0000
    45 O17        0.2580   -10.9469     7.7920 O.2        2 BB2          0.0000
    46 C18        0.6795   -14.8958     8.2764 C.2        2 BB2          0.0000
    47 O20       -0.1901   -15.7498     8.2435 O.2        2 BB2          0.0000
    48 H21        0.9811   -18.6513    12.2825 H          2 BB2          0.0000
    49 H22        2.4235   -17.6142    12.1728 H          2 BB2          0.0000
    50 H23        2.2321   -18.7303    13.5462 H          2 BB2          0.0000
    51 H24        0.4997   -18.2805    15.2894 H          2 BB2          0.0000
    52 H25       -0.5431   -16.8439    15.1579 H          2 BB2          0.0000
    53 H26       -0.7514   -18.2015    14.0257 H          2 BB2          0.0000
    54 H27        2.7158   -15.7086    13.7621 H          2 BB2          0.0000
    55 H28        1.4815   -15.3882    15.0040 H          2 BB2          0.0000
    56 H29        2.5244   -16.8247    15.1355 H          2 BB2          0.0000
    57 H30        2.2228   -14.6402     9.7281 H          2 BB2          0.0000
    58 H31        1.3522   -12.4771    10.6067 H          2 BB2          0.0000
    59 H32        1.6385   -12.4087     8.8511 H          2 BB2          0.0000
    60 H33       -0.9202   -13.2397     8.7999 H          2 BB2          0.0000
    61 H34       -1.2766   -13.3830    11.1818 H          2 BB2          0.0000
    62 H35       -0.5696   -11.7683    11.4459 H          2 BB2          0.0000
    63 H36       -3.0597   -12.2807     9.7528 H          2 BB2          0.0000
    64 H37       -3.1068   -11.7880    11.4655 H          2 BB2          0.0000
    65 H38       -3.2888    -9.8679     9.8140 H          2 BB2          0.0000
    66 H39       -1.9550    -9.7188    10.9776 H          2 BB2          0.0000
    67 H40       -0.5842   -14.9324    10.6531 H          2 BB2          0.0000
    68 H41       -1.3813    -9.3828     8.4936 H          2 BB2          0.0000
@<TRIPOS>BOND
     1      1      2 1
     2      1     16 1
     3      1     17 1
     4      1     18 1
     5      2      3 1
     6      3      4 2
     7      3      5 1
     8      5      6 2
     9      5      9 1
    10      6      7 1
    11      6     19 1
    12      7      8 1
    13      7     10 1
    14      8      9 2
    15     10     11 1
    16     10     15 1
    17     10     20 1
    18     11     12 1
    19     11     21 1
    20     11     22 1
    21     12     13 1
    22     12     23 1
    23     12     24 1
    24     13     14 1
    25     13     25 1
    26     13     26 1
    27     14     15 1
    28     15     27 1
    29     15     28 1
    30     29     30 1
    31     29     48 1
    32     29     49 1
    33     29     50 1
    34     30     31 1
    35     30     32 1
    36     30     33 1
    37     31     51 1
    38     31     52 1
    39     31     53 1
    40     32     54 1
    41     32     55 1
    42     32     56 1
    43     33     34 1
    44     34     35 2
    45     34     36 am
    46     36     37 1
    47     36     67 1
    48     37     38 1
    49     37     46 1
    50     37     57 1
    51     38     39 1
    52     38     58 1
    53     38     59 1
    54     39     40 1
    55     39     44 1
    56     39     60 1
    57     40     41 1
    58     40     61 1
    59     40     62 1
    60     41     42 1
    61     41     63 1
    62     41     64 1
    63     42     43 1
    64     42     65 1
    65     42     66 1
    66     43     44 am
    67     43     68 1
    68     44     45 2
    69     46     47 2
    70     14     46 am
@<TRIPOS>SUBSTRUCTURE
     1 BB1          14
     2 BB2          46
@<TRIPOS>MOLECULE
EN300-136798_i002_EN300-222254_i002_14_4_1
  51   54   2   0   0
SMALL
USER_CHARGES
@<TRIPOS>ATOM
     1 C1        -0.1497   -24.5429    14.6944 C.3        1 BB1          0.0000
     2 O2        -0.1678   -23.3353    13.8885 O.3        1 BB1          0.0000
     3 C3        -0.7296   -22.2410    14.4386 C.2        1 BB1          0.0000
     4 O4        -1.2035   -22.2980    15.5562 O.2        1 BB1          0.0000
     5 C5        -0.7694   -20.9750    13.6850 C.2        1 BB1          0.0000
     6 C6        -0.2674   -20.7764    12.4295 C.2        1 BB1          0.0000
     7 N7        -0.5092   -19.4891    12.1116 N.pl3      1 BB1          0.0000
     8 N8        -1.1699   -18.9173    13.2082 N.2        1 BB1          0.0000
     9 N9        -1.3108   -19.8216    14.1139 N.2        1 BB1          0.0000
    10 C10       -0.1502   -18.8163    10.8608 C.3        1 BB1          0.0000
    11 C11       -1.0129   -19.3637     9.7199 C.3        1 BB1          0.0000
    12 C12       -0.6853   -18.5999     8.4337 C.3        1 BB1          0.0000
    13 C13       -0.9099   -17.1039     8.6640 C.3        1 BB1          0.0000
    14 N14       -0.0380   -16.6359     9.7482 N.am       1 BB1          0.0000
    15 C15       -0.3946   -17.3122    11.0012 C.3        1 BB1          0.0000
    16 H16        0.3292   -25.3462    14.1344 H          1 BB1          0.0000
    17 H17        0.4071   -24.3583    15.6131 H          1 BB1          0.0000
    18 H18       -1.1717   -24.8309    14.9405 H          1 BB1          0.0000
    19 H19        0.2284   -21.5098    11.8110 H          1 BB1          0.0000
    20 H20        0.9019   -18.9957    10.6398 H          1 BB1          0.0000
    21 H21       -0.8007   -20.4234     9.5786 H          1 BB1          0.0000
    22 H22       -2.0669   -19.2312     9.9641 H          1 BB1          0.0000
    23 H23        0.3558   -18.7741     8.1619 H          1 BB1          0.0000
    24 H24       -1.3348   -18.9458     7.6294 H          1 BB1          0.0000
    25 H25       -0.6777   -16.5571     7.7501 H          1 BB1          0.0000
    26 H26       -1.9512   -16.9307     8.9354 H          1 BB1          0.0000
    27 H27       -1.4469   -17.1347    11.2227 H          1 BB1          0.0000
    28 H28        0.2179   -16.9194    11.8126 H          1 BB1          0.0000
    29 C2         0.8004   -14.8911    10.7774 C.2        2 BB2          0.0000
    30 O3         0.0117   -15.5813    11.4007 O.2        2 BB2          0.0000
    31 C4         0.3644   -14.2102     9.5059 C.3        2 BB2          0.0000
    32 C5         1.4242   -14.2481     8.3921 C.3        2 BB2          0.0000
    33 C6         1.0198   -12.8008     8.0660 C.3        2 BB2          0.0000
    34 C7         0.5555   -12.6843     9.5274 C.3        2 BB2          0.0000
    35 C8        -0.7309   -11.9171     9.6928 C.ar       2 BB2          0.0000
    36 C9        -1.9103   -12.4281     9.1855 C.ar       2 BB2          0.0000
    37 C10       -3.0908   -11.7247     9.3363 C.ar       2 BB2          0.0000
    38 C11       -3.0929   -10.5086     9.9959 C.ar       2 BB2          0.0000
    39 Cl12      -4.5761    -9.6265    10.1853 Cl         2 BB2          0.0000
    40 C13       -1.9132    -9.9958    10.5049 C.ar       2 BB2          0.0000
    41 C14       -0.7321   -10.7026    10.3583 C.ar       2 BB2          0.0000
    42 F15        0.4206   -10.2031    10.8554 F          2 BB2          0.0000
    43 H16       -0.6264   -14.5228     9.1765 H          2 BB2          0.0000
    44 H17        2.4446   -14.3433     8.7634 H          2 BB2          0.0000
    45 H18        1.1950   -14.9556     7.5952 H          2 BB2          0.0000
    46 H19        1.8642   -12.1556     7.8234 H          2 BB2          0.0000
    47 H20        0.2078   -12.7268     7.3427 H          2 BB2          0.0000
    48 H21        1.3384   -12.3520    10.2091 H          2 BB2          0.0000
    49 H22       -1.9097   -13.3774     8.6703 H          2 BB2          0.0000
    50 H23       -4.0119   -12.1247     8.9388 H          2 BB2          0.0000
    51 H24       -1.9145    -9.0466    11.0198 H          2 BB2          0.0000
@<TRIPOS>BOND
     1      1      2 1
     2      1     16 1
     3      1     17 1
     4      1     18 1
     5      2      3 1
     6      3      4 2
     7      3      5 1
     8      5      6 2
     9      5      9 1
    10      6      7 1
    11      6     19 1
    12      7      8 1
    13      7     10 1
    14      8      9 2
    15     10     11 1
    16     10     15 1
    17     10     20 1
    18     11     12 1
    19     11     21 1
    20     11     22 1
    21     12     13 1
    22     12     23 1
    23     12     24 1
    24     13     14 1
    25     13     25 1
    26     13     26 1
    27     14     15 1
    28     15     27 1
    29     15     28 1
    30     29     30 2
    31     29     31 1
    32     31     32 1
    33     31     34 1
    34     31     43 1
    35     32     33 1
    36     32     44 1
    37     32     45 1
    38     33     34 1
    39     33     46 1
    40     33     47 1
    41     34     35 1
    42     34     48 1
    43     35     36 ar
    44     35     41 ar
    45     36     37 ar
    46     36     49 1
    47     37     38 ar
    48     37     50 1
    49     38     39 1
    50     38     40 ar
    51     40     41 ar
    52     40     51 1
    53     41     42 1
    54     14     29 am
@<TRIPOS>SUBSTRUCTURE
     1 BB1          14
     2 BB2          29
@<TRIPOS>MOLECULE
EN300-136798_i002_EN300-306118_i001_14_2_1
  50   53   2   0   0
SMALL
USER_CHARGES
@<TRIPOS>ATOM
     1 C1        -0.1497   -24.5429    14.6944 C.3        1 BB1          0.0000
     2 O2        -0.1678   -23.3353    13.8885 O.3        1 BB1          0.0000
     3 C3        -0.7296   -22.2410    14.4386 C.2        1 BB1          0.0000
     4 O4        -1.2035   -22.2980    15.5562 O.2        1 BB1          0.0000
     5 C5        -0.7694   -20.9750    13.6850 C.2        1 BB1          0.0000
     6 C6        -0.2674   -20.7764    12.4295 C.2        1 BB1          0.0000
     7 N7        -0.5092   -19.4891    12.1116 N.pl3      1 BB1          0.0000
     8 N8        -1.1699   -18.9173    13.2082 N.2        1 BB1          0.0000
     9 N9        -1.3108   -19.8216    14.1139 N.2        1 BB1          0.0000
    10 C10       -0.1502   -18.8163    10.8608 C.3        1 BB1          0.0000
    11 C11       -1.0129   -19.3637     9.7199 C.3        1 BB1          0.0000
    12 C12       -0.6853   -18.5999     8.4337 C.3        1 BB1          0.0000
    13 C13       -0.9099   -17.1039     8.6640 C.3        1 BB1          0.0000
    14 N14       -0.0380   -16.6359     9.7482 N.am       1 BB1          0.0000
    15 C15       -0.3946   -17.3122    11.0012 C.3        1 BB1          0.0000
    16 H16        0.3292   -25.3462    14.1344 H          1 BB1          0.0000
    17 H17        0.4071   -24.3583    15.6131 H          1 BB1          0.0000
    18 H18       -1.1717   -24.8309    14.9405 H          1 BB1          0.0000
    19 H19        0.2284   -21.5098    11.8110 H          1 BB1          0.0000
    20 H20        0.9019   -18.9957    10.6398 H          1 BB1          0.0000
    21 H21       -0.8007   -20.4234     9.5786 H          1 BB1          0.0000
    22 H22       -2.0669   -19.2312     9.9641 H          1 BB1          0.0000
    23 H23        0.3558   -18.7741     8.1619 H          1 BB1          0.0000
    24 H24       -1.3348   -18.9458     7.6294 H          1 BB1          0.0000
    25 H25       -0.6777   -16.5571     7.7501 H          1 BB1          0.0000
    26 H26       -1.9512   -16.9307     8.9354 H          1 BB1          0.0000
    27 H27       -1.4469   -17.1347    11.2227 H          1 BB1          0.0000
    28 H28        0.2179   -16.9194    11.8126 H          1 BB1          0.0000
    29 O1        -0.3996   -15.0968    11.7939 O.2        2 BB2          0.0000
    30 C2         0.6326   -14.8679    11.1794 C.2        2 BB2          0.0000
    31 C4         0.5817   -14.1401     9.8971 C.ar       2 BB2          0.0000
    32 C5         1.3893   -14.5408     8.8300 C.ar       2 BB2          0.0000
    33 C6         1.3364   -13.8555     7.6340 C.ar       2 BB2          0.0000
    34 C7         0.4864   -12.7733     7.4900 C.ar       2 BB2          0.0000
    35 C8        -0.3166   -12.3706     8.5429 C.ar       2 BB2          0.0000
    36 C9        -0.2789   -13.0501     9.7423 C.ar       2 BB2          0.0000
    37 C10       -1.1546   -12.6104    10.8873 C.3        2 BB2          0.0000
    38 N11       -2.0673   -11.5601    10.4288 N.pl3      2 BB2          0.0000
    39 C12       -1.7295   -10.2775    10.1613 C.2        2 BB2          0.0000
    40 C13       -2.8693    -9.6610     9.7705 C.2        2 BB2          0.0000
    41 N14       -3.8360   -10.5845     9.8175 N.2        2 BB2          0.0000
    42 N15       -3.3272   -11.7003    10.2060 N.2        2 BB2          0.0000
    43 H16        2.0538   -15.3849     8.9414 H          2 BB2          0.0000
    44 H17        1.9603   -14.1641     6.8083 H          2 BB2          0.0000
    45 H18        0.4497   -12.2400     6.5515 H          2 BB2          0.0000
    46 H19       -0.9775   -11.5248     8.4234 H          2 BB2          0.0000
    47 H20       -1.7320   -13.4605    11.2504 H          2 BB2          0.0000
    48 H21       -0.5313   -12.2235    11.6935 H          2 BB2          0.0000
    49 H22       -0.7479    -9.8347    10.2433 H          2 BB2          0.0000
    50 H23       -2.9773    -8.6269     9.4786 H          2 BB2          0.0000
@<TRIPOS>BOND
     1      1      2 1
     2      1     16 1
     3      1     17 1
     4      1     18 1
     5      2      3 1
     6      3      4 2
     7      3      5 1
     8      5      6 2
     9      5      9 1
    10      6      7 1
    11      6     19 1
    12      7      8 1
    13      7     10 1
    14      8      9 2
    15     10     11 1
    16     10     15 1
    17     10     20 1
    18     11     12 1
    19     11     21 1
    20     11     22 1
    21     12     13 1
    22     12     23 1
    23     12     24 1
    24     13     14 1
    25     13     25 1
    26     13     26 1
    27     14     15 1
    28     15     27 1
    29     15     28 1
    30     29     30 2
    31     30     31 1
    32     31     32 ar
    33     31     36 ar
    34     32     33 ar
    35     32     43 1
    36     33     34 ar
    37     33     44 1
    38     34     35 ar
    39     34     45 1
    40     35     36 ar
    41     35     46 1
    42     36     37 1
    43     37     38 1
    44     37     47 1
    45     37     48 1
    46     38     39 1
    47     38     42 1
    48     39     40 2
    49     39     49 1
    50     40     41 1
    51     40     50 1
    52     41     42 2
    53     14     30 am
@<TRIPOS>SUBSTRUCTURE
     1 BB1          14
     2 BB2          30
@<TRIPOS>MOLECULE
EN300-136798_i002_EN300-306118_i001_14_4_1
  50   53   2   0   0
SMALL
USER_CHARGES
@<TRIPOS>ATOM
     1 C1        -0.1497   -24.5429    14.6944 C.3        1 BB1          0.0000
     2 O2        -0.1678   -23.3353    13.8885 O.3        1 BB1          0.0000
     3 C3        -0.7296   -22.2410    14.4386 C.2        1 BB1          0.0000
     4 O4        -1.2035   -22.2980    15.5562 O.2        1 BB1          0.0000
     5 C5        -0.7694   -20.9750    13.6850 C.2        1 BB1          0.0000
     6 C6        -0.2674   -20.7764    12.4295 C.2        1 BB1          0.0000
     7 N7        -0.5092   -19.4891    12.1116 N.pl3      1 BB1          0.0000
     8 N8        -1.1699   -18.9173    13.2082 N.2        1 BB1          0.0000
     9 N9        -1.3108   -19.8216    14.1139 N.2        1 BB1          0.0000
    10 C10       -0.1502   -18.8163    10.8608 C.3        1 BB1          0.0000
    11 C11       -1.0129   -19.3637     9.7199 C.3        1 BB1          0.0000
    12 C12       -0.6853   -18.5999     8.4337 C.3        1 BB1          0.0000
    13 C13       -0.9099   -17.1039     8.6640 C.3        1 BB1          0.0000
    14 N14       -0.0380   -16.6359     9.7482 N.am       1 BB1          0.0000
    15 C15       -0.3946   -17.3122    11.0012 C.3        1 BB1          0.0000
    16 H16        0.3292   -25.3462    14.1344 H          1 BB1          0.0000
    17 H17        0.4071   -24.3583    15.6131 H          1 BB1          0.0000
    18 H18       -1.1717   -24.8309    14.9405 H          1 BB1          0.0000
    19 H19        0.2284   -21.5098    11.8110 H          1 BB1          0.0000
    20 H20        0.9019   -18.9957    10.6398 H          1 BB1          0.0000
    21 H21       -0.8007   -20.4234     9.5786 H          1 BB1          0.0000
    22 H22       -2.0669   -19.2312     9.9641 H          1 BB1          0.0000
    23 H23        0.3558   -18.7741     8.1619 H          1 BB1          0.0000
    24 H24       -1.3348   -18.9458     7.6294 H          1 BB1          0.0000
    25 H25       -0.6777   -16.5571     7.7501 H          1 BB1          0.0000
    26 H26       -1.9512   -16.9307     8.9354 H          1 BB1          0.0000
    27 H27       -1.4469   -17.1347    11.2227 H          1 BB1          0.0000
    28 H28        0.2179   -16.9194    11.8126 H          1 BB1          0.0000
    29 C2         0.0232   -14.5029    10.8440 C.2        2 BB2          0.0000
    30 O3         0.5964   -15.4713    11.3227 O.2        2 BB2          0.0000
    31 C4         0.1943   -14.1761     9.4156 C.ar       2 BB2          0.0000
    32 C5         0.2000   -15.1937     8.4585 C.ar       2 BB2          0.0000
    33 C6         0.3606   -14.8807     7.1247 C.ar       2 BB2          0.0000
    34 C7         0.5162   -13.5625     6.7340 C.ar       2 BB2          0.0000
    35 C8         0.5116   -12.5491     7.6766 C.ar       2 BB2          0.0000
    36 C9         0.3458   -12.8466     9.0128 C.ar       2 BB2          0.0000
    37 C10        0.3405   -11.7416    10.0376 C.3        2 BB2          0.0000
    38 N11       -0.8775   -10.9417     9.8869 N.pl3      2 BB2          0.0000
    39 C12       -1.9601   -10.9853    10.6975 C.2        2 BB2          0.0000
    40 C13       -2.8435   -10.0913    10.1954 C.2        2 BB2          0.0000
    41 N14       -2.2659    -9.5516     9.1162 N.2        2 BB2          0.0000
    42 N15       -1.0997   -10.0726     8.9638 N.2        2 BB2          0.0000
    43 H16        0.0794   -16.2231     8.7623 H          2 BB2          0.0000
    44 H17        0.3653   -15.6663     6.3837 H          2 BB2          0.0000
    45 H18        0.6423   -13.3234     5.6883 H          2 BB2          0.0000
    46 H19        0.6339   -11.5225     7.3644 H          2 BB2          0.0000
    47 H20        0.3700   -12.1736    11.0379 H          2 BB2          0.0000
    48 H21        1.2134   -11.1056     9.8906 H          2 BB2          0.0000
    49 H22       -2.0926   -11.6083    11.5697 H          2 BB2          0.0000
    50 H23       -3.8224    -9.8595    10.5883 H          2 BB2          0.0000
@<TRIPOS>BOND
     1      1      2 1
     2      1     16 1
     3      1     17 1
     4      1     18 1
     5      2      3 1
     6      3      4 2
     7      3      5 1
     8      5      6 2
     9      5      9 1
    10      6      7 1
    11      6     19 1
    12      7      8 1
    13      7     10 1
    14      8      9 2
    15     10     11 1
    16     10     15 1
    17     10     20 1
    18     11     12 1
    19     11     21 1
    20     11     22 1
    21     12     13 1
    22     12     23 1
    23     12     24 1
    24     13     14 1
    25     13     25 1
    26     13     26 1
    27     14     15 1
    28     15     27 1
    29     15     28 1
    30     29     30 2
    31     29     31 1
    32     31     32 ar
    33     31     36 ar
    34     32     33 ar
    35     32     43 1
    36     33     34 ar
    37     33     44 1
    38     34     35 ar
    39     34     45 1
    40     35     36 ar
    41     35     46 1
    42     36     37 1
    43     37     38 1
    44     37     47 1
    45     37     48 1
    46     38     39 1
    47     38     42 1
    48     39     40 2
    49     39     49 1
    50     40     41 1
    51     40     50 1
    52     41     42 2
    53     14     29 am
@<TRIPOS>SUBSTRUCTURE
     1 BB1          14
     2 BB2          29
@<TRIPOS>MOLECULE
EN300-136798_i002_EN300-306118_i001_14_7_1
  50   53   2   0   0
SMALL
USER_CHARGES
@<TRIPOS>ATOM
     1 C1        -0.1497   -24.5429    14.6944 C.3        1 BB1          0.0000
     2 O2        -0.1678   -23.3353    13.8885 O.3        1 BB1          0.0000
     3 C3        -0.7296   -22.2410    14.4386 C.2        1 BB1          0.0000
     4 O4        -1.2035   -22.2980    15.5562 O.2        1 BB1          0.0000
     5 C5        -0.7694   -20.9750    13.6850 C.2        1 BB1          0.0000
     6 C6        -0.2674   -20.7764    12.4295 C.2        1 BB1          0.0000
     7 N7        -0.5092   -19.4891    12.1116 N.pl3      1 BB1          0.0000
     8 N8        -1.1699   -18.9173    13.2082 N.2        1 BB1          0.0000
     9 N9        -1.3108   -19.8216    14.1139 N.2        1 BB1          0.0000
    10 C10       -0.1502   -18.8163    10.8608 C.3        1 BB1          0.0000
    11 C11       -1.0129   -19.3637     9.7199 C.3        1 BB1          0.0000
    12 C12       -0.6853   -18.5999     8.4337 C.3        1 BB1          0.0000
    13 C13       -0.9099   -17.1039     8.6640 C.3        1 BB1          0.0000
    14 N14       -0.0380   -16.6359     9.7482 N.am       1 BB1          0.0000
    15 C15       -0.3946   -17.3122    11.0012 C.3        1 BB1          0.0000
    16 H16        0.3292   -25.3462    14.1344 H          1 BB1          0.0000
    17 H17        0.4071   -24.3583    15.6131 H          1 BB1          0.0000
    18 H18       -1.1717   -24.8309    14.9405 H          1 BB1          0.0000
    19 H19        0.2284   -21.5098    11.8110 H          1 BB1          0.0000
    20 H20        0.9019   -18.9957    10.6398 H          1 BB1          0.0000
    21 H21       -0.8007   -20.4234     9.5786 H          1 BB1          0.0000
    22 H22       -2.0669   -19.2312     9.9641 H          1 BB1          0.0000
    23 H23        0.3558   -18.7741     8.1619 H          1 BB1          0.0000
    24 H24       -1.3348   -18.9458     7.6294 H          1 BB1          0.0000
    25 H25       -0.6777   -16.5571     7.7501 H          1 BB1          0.0000
    26 H26       -1.9512   -16.9307     8.9354 H          1 BB1          0.0000
    27 H27       -1.4469   -17.1347    11.2227 H          1 BB1          0.0000
    28 H28        0.2179   -16.9194    11.8126 H          1 BB1          0.0000
    29 C2         0.3107   -14.7692    11.2595 C.2        2 BB2          0.0000
    30 O3         1.3333   -15.2930    11.6783 O.2        2 BB2          0.0000
    31 C4         0.2910   -14.1590     9.9165 C.ar       2 BB2          0.0000
    32 C5         0.9400   -14.7869     8.8506 C.ar       2 BB2          0.0000
    33 C6         0.9175   -14.2104     7.5976 C.ar       2 BB2          0.0000
    34 C7         0.2545   -13.0130     7.3953 C.ar       2 BB2          0.0000
    35 C8        -0.3907   -12.3851     8.4465 C.ar       2 BB2          0.0000
    36 C9        -0.3818   -12.9530     9.7032 C.ar       2 BB2          0.0000
    37 C10       -1.0854   -12.2680    10.8464 C.3        2 BB2          0.0000
    38 N11       -1.9001   -11.1660    10.3286 N.pl3      2 BB2          0.0000
    39 C12       -3.2480   -11.0736    10.4030 C.2        2 BB2          0.0000
    40 C13       -3.5794    -9.9055     9.8051 C.2        2 BB2          0.0000
    41 N14       -2.4331    -9.3478     9.3992 N.2        2 BB2          0.0000
    42 N15       -1.4563   -10.1169     9.7294 N.2        2 BB2          0.0000
    43 H16        1.4585   -15.7213     9.0074 H          2 BB2          0.0000
    44 H17        1.4188   -14.6947     6.7727 H          2 BB2          0.0000
    45 H18        0.2408   -12.5658     6.4122 H          2 BB2          0.0000
    46 H19       -0.9059   -11.4505     8.2813 H          2 BB2          0.0000
    47 H20       -1.7270   -12.9843    11.3596 H          2 BB2          0.0000
    48 H21       -0.3465   -11.8763    11.5454 H          2 BB2          0.0000
    49 H22       -3.9235   -11.7882    10.8496 H          2 BB2          0.0000
    50 H23       -4.5737    -9.5029     9.6797 H          2 BB2          0.0000
@<TRIPOS>BOND
     1      1      2 1
     2      1     16 1
     3      1     17 1
     4      1     18 1
     5      2      3 1
     6      3      4 2
     7      3      5 1
     8      5      6 2
     9      5      9 1
    10      6      7 1
    11      6     19 1
    12      7      8 1
    13      7     10 1
    14      8      9 2
    15     10     11 1
    16     10     15 1
    17     10     20 1
    18     11     12 1
    19     11     21 1
    20     11     22 1
    21     12     13 1
    22     12     23 1
    23     12     24 1
    24     13     14 1
    25     13     25 1
    26     13     26 1
    27     14     15 1
    28     15     27 1
    29     15     28 1
    30     29     30 2
    31     29     31 1
    32     31     32 ar
    33     31     36 ar
    34     32     33 ar
    35     32     43 1
    36     33     34 ar
    37     33     44 1
    38     34     35 ar
    39     34     45 1
    40     35     36 ar
    41     35     46 1
    42     36     37 1
    43     37     38 1
    44     37     47 1
    45     37     48 1
    46     38     39 1
    47     38     42 1
    48     39     40 2
    49     39     49 1
    50     40     41 1
    51     40     50 1
    52     41     42 2
    53     14     29 am
@<TRIPOS>SUBSTRUCTURE
     1 BB1          14
     2 BB2          29
@<TRIPOS>MOLECULE
EN300-136798_i002_EN300-34862_i002_14_19_1
  40   42   2   0   0
SMALL
USER_CHARGES
@<TRIPOS>ATOM
     1 C1        -0.1497   -24.5429    14.6944 C.3        1 BB1          0.0000
     2 O2        -0.1678   -23.3353    13.8885 O.3        1 BB1          0.0000
     3 C3        -0.7296   -22.2410    14.4386 C.2        1 BB1          0.0000
     4 O4        -1.2035   -22.2980    15.5562 O.2        1 BB1          0.0000
     5 C5        -0.7694   -20.9750    13.6850 C.2        1 BB1          0.0000
     6 C6        -0.2674   -20.7764    12.4295 C.2        1 BB1          0.0000
     7 N7        -0.5092   -19.4891    12.1116 N.pl3      1 BB1          0.0000
     8 N8        -1.1699   -18.9173    13.2082 N.2        1 BB1          0.0000
     9 N9        -1.3108   -19.8216    14.1139 N.2        1 BB1          0.0000
    10 C10       -0.1502   -18.8163    10.8608 C.3        1 BB1          0.0000
    11 C11       -1.0129   -19.3637     9.7199 C.3        1 BB1          0.0000
    12 C12       -0.6853   -18.5999     8.4337 C.3        1 BB1          0.0000
    13 C13       -0.9099   -17.1039     8.6640 C.3        1 BB1          0.0000
    14 N14       -0.0380   -16.6359     9.7482 N.am       1 BB1          0.0000
    15 C15       -0.3946   -17.3122    11.0012 C.3        1 BB1          0.0000
    16 H16        0.3292   -25.3462    14.1344 H          1 BB1          0.0000
    17 H17        0.4071   -24.3583    15.6131 H          1 BB1          0.0000
    18 H18       -1.1717   -24.8309    14.9405 H          1 BB1          0.0000
    19 H19        0.2284   -21.5098    11.8110 H          1 BB1          0.0000
    20 H20        0.9019   -18.9957    10.6398 H          1 BB1          0.0000
    21 H21       -0.8007   -20.4234     9.5786 H          1 BB1          0.0000
    22 H22       -2.0669   -19.2312     9.9641 H          1 BB1          0.0000
    23 H23        0.3558   -18.7741     8.1619 H          1 BB1          0.0000
    24 H24       -1.3348   -18.9458     7.6294 H          1 BB1          0.0000
    25 H25       -0.6777   -16.5571     7.7501 H          1 BB1          0.0000
    26 H26       -1.9512   -16.9307     8.9354 H          1 BB1          0.0000
    27 H27       -1.4469   -17.1347    11.2227 H          1 BB1          0.0000
    28 H28        0.2179   -16.9194    11.8126 H          1 BB1          0.0000
    29 O1         1.0908   -15.6777     7.0299 O.2        2 BB2          0.0000
    30 C2         0.4547   -14.7572     7.5138 C.2        2 BB2          0.0000
    31 C4         0.9573   -14.0635     8.7537 C.3        2 BB2          0.0000
    32 C5         0.0333   -12.8818     9.0756 C.3        2 BB2          0.0000
    33 S6        -0.5907   -13.2552    10.7447 S.3        2 BB2          0.0000
    34 C7         0.2873   -14.7770    10.9333 C.2        2 BB2          0.0000
    35 O8         0.2410   -15.4963    11.9128 O.2        2 BB2          0.0000
    36 N9         1.0060   -15.0158     9.8399 N.am       2 BB2          0.0000
    37 H10        1.9634   -13.6877     8.5672 H          2 BB2          0.0000
    38 H11        0.5943   -11.9472     9.0772 H          2 BB2          0.0000
    39 H12       -0.7890   -12.8339     8.3617 H          2 BB2          0.0000
    40 H13        1.5523   -15.8144     9.7726 H          2 BB2          0.0000
@<TRIPOS>BOND
     1      1      2 1
     2      1     16 1
     3      1     17 1
     4      1     18 1
     5      2      3 1
     6      3      4 2
     7      3      5 1
     8      5      6 2
     9      5      9 1
    10      6      7 1
    11      6     19 1
    12      7      8 1
    13      7     10 1
    14      8      9 2
    15     10     11 1
    16     10     15 1
    17     10     20 1
    18     11     12 1
    19     11     21 1
    20     11     22 1
    21     12     13 1
    22     12     23 1
    23     12     24 1
    24     13     14 1
    25     13     25 1
    26     13     26 1
    27     14     15 1
    28     15     27 1
    29     15     28 1
    30     29     30 2
    31     30     31 1
    32     31     32 1
    33     31     36 1
    34     31     37 1
    35     32     33 1
    36     32     38 1
    37     32     39 1
    38     33     34 1
    39     34     35 2
    40     34     36 am
    41     36     40 1
    42     14     30 am
@<TRIPOS>SUBSTRUCTURE
     1 BB1          14
     2 BB2          30
@<TRIPOS>MOLECULE
EN300-136798_i002_EN300-223795_i001_14_13_1
  41   43   2   0   0
SMALL
USER_CHARGES
@<TRIPOS>ATOM
     1 C1        -0.1497   -24.5429    14.6944 C.3        1 BB1          0.0000
     2 O2        -0.1678   -23.3353    13.8885 O.3        1 BB1          0.0000
     3 C3        -0.7296   -22.2410    14.4386 C.2        1 BB1          0.0000
     4 O4        -1.2035   -22.2980    15.5562 O.2        1 BB1          0.0000
     5 C5        -0.7694   -20.9750    13.6850 C.2        1 BB1          0.0000
     6 C6        -0.2674   -20.7764    12.4295 C.2        1 BB1          0.0000
     7 N7        -0.5092   -19.4891    12.1116 N.pl3      1 BB1          0.0000
     8 N8        -1.1699   -18.9173    13.2082 N.2        1 BB1          0.0000
     9 N9        -1.3108   -19.8216    14.1139 N.2        1 BB1          0.0000
    10 C10       -0.1502   -18.8163    10.8608 C.3        1 BB1          0.0000
    11 C11       -1.0129   -19.3637     9.7199 C.3        1 BB1          0.0000
    12 C12       -0.6853   -18.5999     8.4337 C.3        1 BB1          0.0000
    13 C13       -0.9099   -17.1039     8.6640 C.3        1 BB1          0.0000
    14 N14       -0.0380   -16.6359     9.7482 N.am       1 BB1          0.0000
    15 C15       -0.3946   -17.3122    11.0012 C.3        1 BB1          0.0000
    16 H16        0.3292   -25.3462    14.1344 H          1 BB1          0.0000
    17 H17        0.4071   -24.3583    15.6131 H          1 BB1          0.0000
    18 H18       -1.1717   -24.8309    14.9405 H          1 BB1          0.0000
    19 H19        0.2284   -21.5098    11.8110 H          1 BB1          0.0000
    20 H20        0.9019   -18.9957    10.6398 H          1 BB1          0.0000
    21 H21       -0.8007   -20.4234     9.5786 H          1 BB1          0.0000
    22 H22       -2.0669   -19.2312     9.9641 H          1 BB1          0.0000
    23 H23        0.3558   -18.7741     8.1619 H          1 BB1          0.0000
    24 H24       -1.3348   -18.9458     7.6294 H          1 BB1          0.0000
    25 H25       -0.6777   -16.5571     7.7501 H          1 BB1          0.0000
    26 H26       -1.9512   -16.9307     8.9354 H          1 BB1          0.0000
    27 H27       -1.4469   -17.1347    11.2227 H          1 BB1          0.0000
    28 H28        0.2179   -16.9194    11.8126 H          1 BB1          0.0000
    29 O1         0.1998   -15.5767    10.2835 O.2        2 BB2          0.0000
    30 C2        -0.1214   -14.6741    11.0454 C.2        2 BB2          0.0000
    31 C4        -0.5198   -13.3679    10.5087 C.2        2 BB2          0.0000
    32 C5        -1.2337   -12.3734    11.2774 C.2        2 BB2          0.0000
    33 C6        -1.4890   -11.2682    10.5893 C.2        2 BB2          0.0000
    34 S7        -0.8614   -11.3974     8.9556 S.3        2 BB2          0.0000
    35 C8        -0.2501   -12.9637     9.2351 C.2        2 BB2          0.0000
    36 C9         0.4817   -13.7924     8.2110 C.3        2 BB2          0.0000
    37 F10        0.6752   -13.0353     7.0506 F          2 BB2          0.0000
    38 F11        1.7227   -14.1815     8.7264 F          2 BB2          0.0000
    39 F12       -0.2737   -14.9296     7.9053 F          2 BB2          0.0000
    40 H13       -1.5292   -12.5156    12.3063 H          2 BB2          0.0000
    41 H14       -2.0113   -10.4077    10.9806 H          2 BB2          0.0000
@<TRIPOS>BOND
     1      1      2 1
     2      1     16 1
     3      1     17 1
     4      1     18 1
     5      2      3 1
     6      3      4 2
     7      3      5 1
     8      5      6 2
     9      5      9 1
    10      6      7 1
    11      6     19 1
    12      7      8 1
    13      7     10 1
    14      8      9 2
    15     10     11 1
    16     10     15 1
    17     10     20 1
    18     11     12 1
    19     11     21 1
    20     11     22 1
    21     12     13 1
    22     12     23 1
    23     12     24 1
    24     13     14 1
    25     13     25 1
    26     13     26 1
    27     14     15 1
    28     15     27 1
    29     15     28 1
    30     29     30 2
    31     30     31 1
    32     31     32 1
    33     31     35 2
    34     32     33 2
    35     32     40 1
    36     33     34 1
    37     33     41 1
    38     34     35 1
    39     35     36 1
    40     36     37 1
    41     36     38 1
    42     36     39 1
    43     14     30 am
@<TRIPOS>SUBSTRUCTURE
     1 BB1          14
     2 BB2          30
@<TRIPOS>MOLECULE
EN300-136798_i002_EN300-344045_i001_14_2_1
  57   60   2   0   0
SMALL
USER_CHARGES
@<TRIPOS>ATOM
     1 C1        -0.1497   -24.5429    14.6944 C.3        1 BB1          0.0000
     2 O2        -0.1678   -23.3353    13.8885 O.3        1 BB1          0.0000
     3 C3        -0.7296   -22.2410    14.4386 C.2        1 BB1          0.0000
     4 O4        -1.2035   -22.2980    15.5562 O.2        1 BB1          0.0000
     5 C5        -0.7694   -20.9750    13.6850 C.2        1 BB1          0.0000
     6 C6        -0.2674   -20.7764    12.4295 C.2        1 BB1          0.0000
     7 N7        -0.5092   -19.4891    12.1116 N.pl3      1 BB1          0.0000
     8 N8        -1.1699   -18.9173    13.2082 N.2        1 BB1          0.0000
     9 N9        -1.3108   -19.8216    14.1139 N.2        1 BB1          0.0000
    10 C10       -0.1502   -18.8163    10.8608 C.3        1 BB1          0.0000
    11 C11       -1.0129   -19.3637     9.7199 C.3        1 BB1          0.0000
    12 C12       -0.6853   -18.5999     8.4337 C.3        1 BB1          0.0000
    13 C13       -0.9099   -17.1039     8.6640 C.3        1 BB1          0.0000
    14 N14       -0.0380   -16.6359     9.7482 N.am       1 BB1          0.0000
    15 C15       -0.3946   -17.3122    11.0012 C.3        1 BB1          0.0000
    16 H16        0.3292   -25.3462    14.1344 H          1 BB1          0.0000
    17 H17        0.4071   -24.3583    15.6131 H          1 BB1          0.0000
    18 H18       -1.1717   -24.8309    14.9405 H          1 BB1          0.0000
    19 H19        0.2284   -21.5098    11.8110 H          1 BB1          0.0000
    20 H20        0.9019   -18.9957    10.6398 H          1 BB1          0.0000
    21 H21       -0.8007   -20.4234     9.5786 H          1 BB1          0.0000
    22 H22       -2.0669   -19.2312     9.9641 H          1 BB1          0.0000
    23 H23        0.3558   -18.7741     8.1619 H          1 BB1          0.0000
    24 H24       -1.3348   -18.9458     7.6294 H          1 BB1          0.0000
    25 H25       -0.6777   -16.5571     7.7501 H          1 BB1          0.0000
    26 H26       -1.9512   -16.9307     8.9354 H          1 BB1          0.0000
    27 H27       -1.4469   -17.1347    11.2227 H          1 BB1          0.0000
    28 H28        0.2179   -16.9194    11.8126 H          1 BB1          0.0000
    29 O1         0.5661   -15.7707    10.9576 O.2        2 BB2          0.0000
    30 C2         0.2489   -14.5943    11.0019 C.2        2 BB2          0.0000
    31 C4         0.9922   -13.5817    10.1694 C.3        2 BB2          0.0000
    32 C5         0.0568   -13.0163     9.0988 C.3        2 BB2          0.0000
    33 C6         0.8768   -12.3025     8.0042 C.3        2 BB2          0.0000
    34 C7         1.0511   -13.3749     6.9002 C.3        2 BB2          0.0000
    35 C8        -0.3163   -14.1023     6.9114 C.3        2 BB2          0.0000
    36 C9        -0.7017   -14.1605     8.4040 C.3        2 BB2          0.0000
    37 C10       -0.9194   -12.0528     9.7233 C.ar       2 BB2          0.0000
    38 C11       -0.7018   -11.5818    11.0046 C.ar       2 BB2          0.0000
    39 C12       -1.5972   -10.6981    11.5774 C.ar       2 BB2          0.0000
    40 C13       -2.7099   -10.2850    10.8687 C.ar       2 BB2          0.0000
    41 C14       -2.9270   -10.7553     9.5871 C.ar       2 BB2          0.0000
    42 C15       -2.0292   -11.6357     9.0126 C.ar       2 BB2          0.0000
    43 H16        1.3431   -12.7722    10.8096 H          2 BB2          0.0000
    44 H17        1.8455   -14.0614     9.6898 H          2 BB2          0.0000
    45 H18        0.3298   -11.4425     7.6177 H          2 BB2          0.0000
    46 H19        1.8472   -11.9949     8.3939 H          2 BB2          0.0000
    47 H20        1.2319   -12.9071     5.9324 H          2 BB2          0.0000
    48 H21        1.8570   -14.0634     7.1543 H          2 BB2          0.0000
    49 H22       -1.0559   -13.5330     6.3483 H          2 BB2          0.0000
    50 H23       -0.2166   -15.1082     6.5036 H          2 BB2          0.0000
    51 H24       -0.4034   -15.1187     8.8294 H          2 BB2          0.0000
    52 H25       -1.7765   -14.0194     8.5179 H          2 BB2          0.0000
    53 H26        0.1674   -11.9045    11.5583 H          2 BB2          0.0000
    54 H27       -1.4278   -10.3307    12.5787 H          2 BB2          0.0000
    55 H28       -3.4099    -9.5951    11.3165 H          2 BB2          0.0000
    56 H29       -3.7964   -10.4328     9.0334 H          2 BB2          0.0000
    57 H30       -2.1987   -12.0032     8.0113 H          2 BB2          0.0000
@<TRIPOS>BOND
     1      1      2 1
     2      1     16 1
     3      1     17 1
     4      1     18 1
     5      2      3 1
     6      3      4 2
     7      3      5 1
     8      5      6 2
     9      5      9 1
    10      6      7 1
    11      6     19 1
    12      7      8 1
    13      7     10 1
    14      8      9 2
    15     10     11 1
    16     10     15 1
    17     10     20 1
    18     11     12 1
    19     11     21 1
    20     11     22 1
    21     12     13 1
    22     12     23 1
    23     12     24 1
    24     13     14 1
    25     13     25 1
    26     13     26 1
    27     14     15 1
    28     15     27 1
    29     15     28 1
    30     29     30 2
    31     30     31 1
    32     31     32 1
    33     31     43 1
    34     31     44 1
    35     32     33 1
    36     32     36 1
    37     32     37 1
    38     33     34 1
    39     33     45 1
    40     33     46 1
    41     34     35 1
    42     34     47 1
    43     34     48 1
    44     35     36 1
    45     35     49 1
    46     35     50 1
    47     36     51 1
    48     36     52 1
    49     37     38 ar
    50     37     42 ar
    51     38     39 ar
    52     38     53 1
    53     39     40 ar
    54     39     54 1
    55     40     41 ar
    56     40     55 1
    57     41     42 ar
    58     41     56 1
    59     42     57 1
    60     14     30 am
@<TRIPOS>SUBSTRUCTURE
     1 BB1          14
     2 BB2          30
@<TRIPOS>MOLECULE
EN300-136798_i002_EN300-34862_i002_16_10_1
  40   42   2   0   0
SMALL
USER_CHARGES
@<TRIPOS>ATOM
     1 C1        -4.0600   -10.2502    10.1804 C.3        1 BB1          0.0000
     2 O2        -3.1788   -11.3744     9.9197 O.3        1 BB1          0.0000
     3 C3        -2.0504   -11.4501    10.6523 C.2        1 BB1          0.0000
     4 O4        -1.8403   -10.6364    11.5301 O.2        1 BB1          0.0000
     5 C5        -1.0710   -12.5195    10.3891 C.2        1 BB1          0.0000
     6 C6        -0.7293   -13.5207    11.2543 C.2        1 BB1          0.0000
     7 N7         0.1919   -14.2800    10.6285 N.pl3      1 BB1          0.0000
     8 N8         0.3961   -13.7103     9.3637 N.2        1 BB1          0.0000
     9 N9        -0.3670   -12.6789     9.2549 N.2        1 BB1          0.0000
    10 C10        0.8530   -15.4714    11.1665 C.3        1 BB1          0.0000
    11 C11        1.2620   -15.2168    12.6201 C.3        1 BB1          0.0000
    12 C12        1.8810   -16.4932    13.1970 C.3        1 BB1          0.0000
    13 C13        0.8786   -17.6423    13.0695 C.3        1 BB1          0.0000
    14 N14        0.5480   -17.8532    11.6550 N.am       1 BB1          0.0000
    15 C15       -0.1113   -16.6584    11.1141 C.3        1 BB1          0.0000
    16 H16       -4.9285   -10.3097     9.5245 H          1 BB1          0.0000
    17 H17       -4.3870   -10.2784    11.2199 H          1 BB1          0.0000
    18 H18       -3.5259    -9.3188     9.9926 H          1 BB1          0.0000
    19 H19       -1.1214   -13.6738    12.2488 H          1 BB1          0.0000
    20 H20        1.7394   -15.6952    10.5728 H          1 BB1          0.0000
    21 H21        1.9925   -14.4086    12.6570 H          1 BB1          0.0000
    22 H22        0.3831   -14.9421    13.2033 H          1 BB1          0.0000
    23 H23        2.7886   -16.7390    12.6458 H          1 BB1          0.0000
    24 H24        2.1239   -16.3371    14.2482 H          1 BB1          0.0000
    25 H25        1.3160   -18.5526    13.4795 H          1 BB1          0.0000
    26 H26       -0.0284   -17.3957    13.6213 H          1 BB1          0.0000
    27 H27       -0.9972   -16.4327    11.7077 H          1 BB1          0.0000
    28 H28       -0.4046   -16.8423    10.0807 H          1 BB1          0.0000
    29 C2        -0.3489   -19.7996    11.8809 C.2        2 BB2          0.0000
    30 O3         0.1780   -19.5632    10.8072 O.2        2 BB2          0.0000
    31 C4        -0.1440   -21.1381    12.5424 C.3        2 BB2          0.0000
    32 C5        -0.9105   -21.1624    13.8712 C.3        2 BB2          0.0000
    33 S6        -2.0718   -22.5518    13.6823 S.3        2 BB2          0.0000
    34 C7        -1.5627   -22.9965    12.0496 C.2        2 BB2          0.0000
    35 O8        -2.0284   -23.9088    11.3941 O.2        2 BB2          0.0000
    36 N9        -0.5927   -22.1803    11.6470 N.am       2 BB2          0.0000
    37 H10        0.9186   -21.2765    12.7422 H          2 BB2          0.0000
    38 H11       -0.2290   -21.3438    14.7024 H          2 BB2          0.0000
    39 H12       -1.4526   -20.2281    14.0170 H          2 BB2          0.0000
    40 H13       -0.1942   -22.2823    10.7686 H          2 BB2          0.0000
@<TRIPOS>BOND
     1      1      2 1
     2      1     16 1
     3      1     17 1
     4      1     18 1
     5      2      3 1
     6      3      4 2
     7      3      5 1
     8      5      6 2
     9      5      9 1
    10      6      7 1
    11      6     19 1
    12      7      8 1
    13      7     10 1
    14      8      9 2
    15     10     11 1
    16     10     15 1
    17     10     20 1
    18     11     12 1
    19     11     21 1
    20     11     22 1
    21     12     13 1
    22     12     23 1
    23     12     24 1
    24     13     14 1
    25     13     25 1
    26     13     26 1
    27     14     15 1
    28     15     27 1
    29     15     28 1
    30     29     30 2
    31     29     31 1
    32     31     32 1
    33     31     36 1
    34     31     37 1
    35     32     33 1
    36     32     38 1
    37     32     39 1
    38     33     34 1
    39     34     35 2
    40     34     36 am
    41     36     40 1
    42     14     29 am
@<TRIPOS>SUBSTRUCTURE
     1 BB1          14
     2 BB2          29
@<TRIPOS>MOLECULE
EN300-136798_i002_EN300-223795_i001_16_6_1
  41   43   2   0   0
SMALL
USER_CHARGES
@<TRIPOS>ATOM
     1 C1        -4.0600   -10.2502    10.1804 C.3        1 BB1          0.0000
     2 O2        -3.1788   -11.3744     9.9197 O.3        1 BB1          0.0000
     3 C3        -2.0504   -11.4501    10.6523 C.2        1 BB1          0.0000
     4 O4        -1.8403   -10.6364    11.5301 O.2        1 BB1          0.0000
     5 C5        -1.0710   -12.5195    10.3891 C.2        1 BB1          0.0000
     6 C6        -0.7293   -13.5207    11.2543 C.2        1 BB1          0.0000
     7 N7         0.1919   -14.2800    10.6285 N.pl3      1 BB1          0.0000
     8 N8         0.3961   -13.7103     9.3637 N.2        1 BB1          0.0000
     9 N9        -0.3670   -12.6789     9.2549 N.2        1 BB1          0.0000
    10 C10        0.8530   -15.4714    11.1665 C.3        1 BB1          0.0000
    11 C11        1.2620   -15.2168    12.6201 C.3        1 BB1          0.0000
    12 C12        1.8810   -16.4932    13.1970 C.3        1 BB1          0.0000
    13 C13        0.8786   -17.6423    13.0695 C.3        1 BB1          0.0000
    14 N14        0.5480   -17.8532    11.6550 N.am       1 BB1          0.0000
    15 C15       -0.1113   -16.6584    11.1141 C.3        1 BB1          0.0000
    16 H16       -4.9285   -10.3097     9.5245 H          1 BB1          0.0000
    17 H17       -4.3870   -10.2784    11.2199 H          1 BB1          0.0000
    18 H18       -3.5259    -9.3188     9.9926 H          1 BB1          0.0000
    19 H19       -1.1214   -13.6738    12.2488 H          1 BB1          0.0000
    20 H20        1.7394   -15.6952    10.5728 H          1 BB1          0.0000
    21 H21        1.9925   -14.4086    12.6570 H          1 BB1          0.0000
    22 H22        0.3831   -14.9421    13.2033 H          1 BB1          0.0000
    23 H23        2.7886   -16.7390    12.6458 H          1 BB1          0.0000
    24 H24        2.1239   -16.3371    14.2482 H          1 BB1          0.0000
    25 H25        1.3160   -18.5526    13.4795 H          1 BB1          0.0000
    26 H26       -0.0284   -17.3957    13.6213 H          1 BB1          0.0000
    27 H27       -0.9972   -16.4327    11.7077 H          1 BB1          0.0000
    28 H28       -0.4046   -16.8423    10.0807 H          1 BB1          0.0000
    29 O1        -1.0523   -17.8834    11.8907 O.2        2 BB2          0.0000
    30 C2        -0.1310   -18.6893    11.8889 C.2        2 BB2          0.0000
    31 C4         0.5803   -18.9932    13.1358 C.2        2 BB2          0.0000
    32 C5         1.2511   -17.9935    13.9358 C.2        2 BB2          0.0000
    33 C6         1.8272   -18.4953    15.0204 C.2        2 BB2          0.0000
    34 S7         1.5717   -20.2292    15.1109 S.3        2 BB2          0.0000
    35 C8         0.6724   -20.2468    13.6631 C.2        2 BB2          0.0000
    36 C9         0.0684   -21.4816    13.0457 C.3        2 BB2          0.0000
    37 F10       -1.3262   -21.3709    13.0504 F          2 BB2          0.0000
    38 F11        0.5213   -21.6137    11.7286 F          2 BB2          0.0000
    39 F12        0.4494   -22.6066    13.7848 F          2 BB2          0.0000
    40 H13        1.2806   -16.9454    13.6770 H          2 BB2          0.0000
    41 H14        2.3776   -17.9166    15.7474 H          2 BB2          0.0000
@<TRIPOS>BOND
     1      1      2 1
     2      1     16 1
     3      1     17 1
     4      1     18 1
     5      2      3 1
     6      3      4 2
     7      3      5 1
     8      5      6 2
     9      5      9 1
    10      6      7 1
    11      6     19 1
    12      7      8 1
    13      7     10 1
    14      8      9 2
    15     10     11 1
    16     10     15 1
    17     10     20 1
    18     11     12 1
    19     11     21 1
    20     11     22 1
    21     12     13 1
    22     12     23 1
    23     12     24 1
    24     13     14 1
    25     13     25 1
    26     13     26 1
    27     14     15 1
    28     15     27 1
    29     15     28 1
    30     29     30 2
    31     30     31 1
    32     31     32 1
    33     31     35 2
    34     32     33 2
    35     32     40 1
    36     33     34 1
    37     33     41 1
    38     34     35 1
    39     35     36 1
    40     36     37 1
    41     36     38 1
    42     36     39 1
    43     14     30 am
@<TRIPOS>SUBSTRUCTURE
     1 BB1          14
     2 BB2          30
@<TRIPOS>MOLECULE
EN300-136798_i002_EN300-1165841_i001_18_9_1
  56   58   2   0   0
SMALL
USER_CHARGES
@<TRIPOS>ATOM
     1 C1        -0.8126   -24.9036    15.5623 C.3        1 BB1          0.0000
     2 O2        -1.0089   -23.4951    15.2692 O.3        1 BB1          0.0000
     3 C3        -0.0643   -22.8877    14.5244 C.2        1 BB1          0.0000
     4 O4         0.8948   -23.5191    14.1268 O.2        1 BB1          0.0000
     5 C5        -0.1945   -21.4578    14.1921 C.2        1 BB1          0.0000
     6 C6         0.6390   -20.7486    13.3735 C.2        1 BB1          0.0000
     7 N7         0.1691   -19.4859    13.3373 N.pl3      1 BB1          0.0000
     8 N8        -0.9692   -19.4527    14.1552 N.2        1 BB1          0.0000
     9 N9        -1.1567   -20.6316    14.6380 N.2        1 BB1          0.0000
    10 C10        0.7385   -18.3634    12.5876 C.3        1 BB1          0.0000
    11 C11       -0.0938   -17.1035    12.8428 C.3        1 BB1          0.0000
    12 C12        0.5543   -15.9201    12.1182 C.3        1 BB1          0.0000
    13 C13        2.0000   -15.7665    12.5956 C.3        1 BB1          0.0000
    14 N14        2.7496   -16.9933    12.2996 N.am       1 BB1          0.0000
    15 C15        2.1775   -18.1193    13.0476 C.3        1 BB1          0.0000
    16 H16       -1.6428   -25.2679    16.1675 H          1 BB1          0.0000
    17 H17       -0.7685   -25.4661    14.6296 H          1 BB1          0.0000
    18 H18        0.1208   -25.0342    16.1098 H          1 BB1          0.0000
    19 H19        1.5078   -21.1271    12.8556 H          1 BB1          0.0000
    20 H20        0.7305   -18.5955    11.5227 H          1 BB1          0.0000
    21 H21       -1.1054   -17.2523    12.4653 H          1 BB1          0.0000
    22 H22       -0.1291   -16.9005    13.9131 H          1 BB1          0.0000
    23 H23        0.5431   -16.1010    11.0434 H          1 BB1          0.0000
    24 H24       -0.0011   -15.0089    12.3404 H          1 BB1          0.0000
    25 H25        2.4643   -14.9248    12.0818 H          1 BB1          0.0000
    26 H26        2.0101   -15.5854    13.6703 H          1 BB1          0.0000
    27 H27        2.1837   -17.8881    14.1127 H          1 BB1          0.0000
    28 H28        2.7727   -19.0144    12.8675 H          1 BB1          0.0000
    29 C1        -0.4775   -18.1700    10.2903 C.3        2 BB2          0.0000
    30 C2        -0.3453   -16.7630    10.8767 C.3        2 BB2          0.0000
    31 N3         0.3038   -15.8828     9.8960 N.4        2 BB2          1.0000
    32 C4         0.2669   -14.4986    10.3832 C.3        2 BB2          0.0000
    33 C5         1.0128   -13.5892     9.4043 C.3        2 BB2          0.0000
    34 C6         0.3403   -13.6667     8.0306 C.3        2 BB2          0.0000
    35 O7        -0.9980   -13.1748     8.1253 O.3        2 BB2          0.0000
    36 C8         0.3180   -15.1256     7.5655 C.3        2 BB2          0.0000
    37 C9        -0.4021   -15.9780     8.6126 C.3        2 BB2          0.0000
    38 C10        1.0969   -12.8523     7.0656 C.1        2 BB2          0.0000
    39 C11        1.7003   -12.2027     6.2959 C.1        2 BB2          0.0000
    40 C12        0.4877   -16.8178    12.1313 C.2        2 BB2          0.0000
    41 O13        0.9510   -17.8803    12.5095 O.2        2 BB2          0.0000
    42 H15        0.5126   -18.5589    10.0524 H          2 BB2          0.0000
    43 H16       -0.9591   -18.8231    11.0180 H          2 BB2          0.0000
    44 H17       -1.0800   -18.1303     9.3829 H          2 BB2          0.0000
    45 H18       -1.3354   -16.3740    11.1147 H          2 BB2          0.0000
    46 H19       -0.7692   -14.1705    10.4658 H          2 BB2          0.0000
    47 H20        0.7430   -14.4457    11.3623 H          2 BB2          0.0000
    48 H21        0.9827   -12.5618     9.7668 H          2 BB2          0.0000
    49 H22        2.0492   -13.9164     9.3211 H          2 BB2          0.0000
    50 H23       -0.2086   -15.1963     6.6138 H          2 BB2          0.0000
    51 H24        1.3401   -15.4846     7.4442 H          2 BB2          0.0000
    52 H25       -0.4200   -17.0173     8.2846 H          2 BB2          0.0000
    53 H26       -1.4240   -15.6184     8.7329 H          2 BB2          0.0000
    54 H27        2.2399   -11.6219     5.6077 H          2 BB2          0.0000
    55 H28       -1.1530   -12.6008     8.8879 H          2 BB2          0.0000
    56 H29        1.2633   -16.1691     9.7718 H          2 BB2          0.0000
@<TRIPOS>BOND
     1      1      2 1
     2      1     16 1
     3      1     17 1
     4      1     18 1
     5      2      3 1
     6      3      4 2
     7      3      5 1
     8      5      6 2
     9      5      9 1
    10      6      7 1
    11      6     19 1
    12      7      8 1
    13      7     10 1
    14      8      9 2
    15     10     11 1
    16     10     15 1
    17     10     20 1
    18     11     12 1
    19     11     21 1
    20     11     22 1
    21     12     13 1
    22     12     23 1
    23     12     24 1
    24     13     14 1
    25     13     25 1
    26     13     26 1
    27     14     15 1
    28     15     27 1
    29     15     28 1
    30     29     30 1
    31     29     42 1
    32     29     43 1
    33     29     44 1
    34     30     31 1
    35     30     40 1
    36     30     45 1
    37     31     32 1
    38     31     37 1
    39     31     56 1
    40     32     33 1
    41     32     46 1
    42     32     47 1
    43     33     34 1
    44     33     48 1
    45     33     49 1
    46     34     35 1
    47     34     36 1
    48     34     38 1
    49     35     55 1
    50     36     37 1
    51     36     50 1
    52     36     51 1
    53     37     52 1
    54     37     53 1
    55     38     39 3
    56     39     54 1
    57     40     41 2
    58     14     40 am
@<TRIPOS>SUBSTRUCTURE
     1 BB1          14
     2 BB2          40
@<TRIPOS>MOLECULE
EN300-136798_i002_EN300-34862_i002_19_10_1
  40   42   2   0   0
SMALL
USER_CHARGES
@<TRIPOS>ATOM
     1 C1        -2.5377    -9.7177     9.4076 C.3        1 BB1          0.0000
     2 O2        -2.1519   -10.7721    10.3284 O.3        1 BB1          0.0000
     3 C3        -1.2562   -11.6752     9.8837 C.2        1 BB1          0.0000
     4 O4        -0.7749   -11.5580     8.7741 O.2        1 BB1          0.0000
     5 C5        -0.8603   -12.8052    10.7431 C.2        1 BB1          0.0000
     6 C6         0.0052   -13.8055    10.3995 C.2        1 BB1          0.0000
     7 N7         0.0915   -14.6295    11.4626 N.pl3      1 BB1          0.0000
     8 N8        -0.7444   -14.0996    12.4557 N.2        1 BB1          0.0000
     9 N9        -1.2847   -13.0233    11.9999 N.2        1 BB1          0.0000
    10 C10        0.9025   -15.8454    11.5615 C.3        1 BB1          0.0000
    11 C11        1.8145   -15.7534    12.7883 C.3        1 BB1          0.0000
    12 C12        2.6004   -17.0605    12.9271 C.3        1 BB1          0.0000
    13 C13        1.6197   -18.2315    13.0201 C.3        1 BB1          0.0000
    14 N14        0.7951   -18.2812    11.8068 N.am       1 BB1          0.0000
    15 C15       -0.0152   -17.0615    11.7050 C.3        1 BB1          0.0000
    16 H16       -3.2618    -9.0611     9.8899 H          1 BB1          0.0000
    17 H17       -1.6565    -9.1417     9.1250 H          1 BB1          0.0000
    18 H18       -2.9844   -10.1590     8.5166 H          1 BB1          0.0000
    19 H19        0.5206   -13.9152     9.4568 H          1 BB1          0.0000
    20 H20        1.5105   -15.9515    10.6631 H          1 BB1          0.0000
    21 H21        2.5086   -14.9221    12.6650 H          1 BB1          0.0000
    22 H22        1.2095   -15.5953    13.6811 H          1 BB1          0.0000
    23 H23        3.2436   -17.1926    12.0572 H          1 BB1          0.0000
    24 H24        3.2106   -17.0242    13.8296 H          1 BB1          0.0000
    25 H25        2.1760   -19.1636    13.1191 H          1 BB1          0.0000
    26 H26        0.9772   -18.0986    13.8904 H          1 BB1          0.0000
    27 H27       -0.6229   -16.9535    12.6034 H          1 BB1          0.0000
    28 H28       -0.6660   -17.1299    10.8334 H          1 BB1          0.0000
    29 C2        -0.3489   -19.7996    11.8809 C.2        2 BB2          0.0000
    30 O3         0.1780   -19.5632    10.8072 O.2        2 BB2          0.0000
    31 C4        -0.1440   -21.1381    12.5424 C.3        2 BB2          0.0000
    32 C5        -0.9105   -21.1624    13.8712 C.3        2 BB2          0.0000
    33 S6        -2.0718   -22.5518    13.6823 S.3        2 BB2          0.0000
    34 C7        -1.5627   -22.9965    12.0496 C.2        2 BB2          0.0000
    35 O8        -2.0284   -23.9088    11.3941 O.2        2 BB2          0.0000
    36 N9        -0.5927   -22.1803    11.6470 N.am       2 BB2          0.0000
    37 H10        0.9186   -21.2765    12.7422 H          2 BB2          0.0000
    38 H11       -0.2290   -21.3438    14.7024 H          2 BB2          0.0000
    39 H12       -1.4526   -20.2281    14.0170 H          2 BB2          0.0000
    40 H13       -0.1942   -22.2823    10.7686 H          2 BB2          0.0000
@<TRIPOS>BOND
     1      1      2 1
     2      1     16 1
     3      1     17 1
     4      1     18 1
     5      2      3 1
     6      3      4 2
     7      3      5 1
     8      5      6 2
     9      5      9 1
    10      6      7 1
    11      6     19 1
    12      7      8 1
    13      7     10 1
    14      8      9 2
    15     10     11 1
    16     10     15 1
    17     10     20 1
    18     11     12 1
    19     11     21 1
    20     11     22 1
    21     12     13 1
    22     12     23 1
    23     12     24 1
    24     13     14 1
    25     13     25 1
    26     13     26 1
    27     14     15 1
    28     15     27 1
    29     15     28 1
    30     29     30 2
    31     29     31 1
    32     31     32 1
    33     31     36 1
    34     31     37 1
    35     32     33 1
    36     32     38 1
    37     32     39 1
    38     33     34 1
    39     34     35 2
    40     34     36 am
    41     36     40 1
    42     14     29 am
@<TRIPOS>SUBSTRUCTURE
     1 BB1          14
     2 BB2          29
@<TRIPOS>MOLECULE
EN300-136798_i002_EN300-701715_i002_20_20_1
  54   56   2   0   0
SMALL
USER_CHARGES
@<TRIPOS>ATOM
     1 C1        -0.3965   -19.8472    11.8025 C.3        1 BB1          0.0000
     2 O2        -0.1909   -18.5187    11.2536 O.3        1 BB1          0.0000
     3 C3        -0.3979   -17.4759    12.0815 C.2        1 BB1          0.0000
     4 O4        -0.7348   -17.6716    13.2325 O.2        1 BB1          0.0000
     5 C5        -0.2157   -16.0981    11.5910 C.2        1 BB1          0.0000
     6 C6         0.4647   -15.7349    10.4628 C.2        1 BB1          0.0000
     7 N7         0.3920   -14.3917    10.3784 N.pl3      1 BB1          0.0000
     8 N8        -0.3500   -13.9550    11.4850 N.2        1 BB1          0.0000
     9 N9        -0.6958   -14.9861    12.1744 N.2        1 BB1          0.0000
    10 C10        0.9763   -13.5496     9.3317 C.3        1 BB1          0.0000
    11 C11        0.5379   -14.0640     7.9575 C.3        1 BB1          0.0000
    12 C12        1.0891   -13.1317     6.8748 C.3        1 BB1          0.0000
    13 C13        0.6036   -11.7054     7.1420 C.3        1 BB1          0.0000
    14 N14        1.0771   -11.2622     8.4588 N.am       1 BB1          0.0000
    15 C15        0.4950   -12.1077     9.5079 C.3        1 BB1          0.0000
    16 H16       -0.1966   -20.5931    11.0332 H          1 BB1          0.0000
    17 H17        0.2800   -20.0017    12.6430 H          1 BB1          0.0000
    18 H18       -1.4274   -19.9440    12.1431 H          1 BB1          0.0000
    19 H19        0.9653   -16.3970     9.7718 H          1 BB1          0.0000
    20 H20        2.0634   -13.5824     9.4028 H          1 BB1          0.0000
    21 H21        0.9266   -15.0707     7.8041 H          1 BB1          0.0000
    22 H22       -0.5507   -14.0803     7.9047 H          1 BB1          0.0000
    23 H23        2.1786   -13.1550     6.8945 H          1 BB1          0.0000
    24 H24        0.7350   -13.4595     5.8973 H          1 BB1          0.0000
    25 H25        0.9941   -11.0390     6.3728 H          1 BB1          0.0000
    26 H26       -0.4860   -11.6831     7.1217 H          1 BB1          0.0000
    27 H27       -0.5923   -12.0770     9.4373 H          1 BB1          0.0000
    28 H28        0.8053   -11.7386    10.4853 H          1 BB1          0.0000
    29 C1        -0.4996   -10.2091    11.6106 C.3        2 BB2          0.0000
    30 O2        -1.5141   -11.1202    11.1830 O.3        2 BB2          0.0000
    31 C3        -1.7554   -11.1021     9.7747 C.3        2 BB2          0.0000
    32 C4        -1.9053    -9.6548     9.3015 C.3        2 BB2          0.0000
    33 C5        -3.0810    -8.9996    10.0289 C.3        2 BB2          0.0000
    34 C6        -4.3654    -9.7722     9.7217 C.3        2 BB2          0.0000
    35 C7        -4.2155   -11.2195    10.1949 C.3        2 BB2          0.0000
    36 C8        -5.4998   -11.9921     9.8875 C.3        2 BB2          0.0000
    37 C9        -3.0397   -11.8747     9.4674 C.3        2 BB2          0.0000
    38 C10       -0.5973   -11.7474     9.0582 C.2        2 BB2          0.0000
    39 O12        0.0696   -11.0990     8.2699 O.2        2 BB2          0.0000
    40 H13       -0.7900    -9.1921    11.3472 H          2 BB2          0.0000
    41 H14       -0.3764   -10.2834    12.6911 H          2 BB2          0.0000
    42 H15        0.4416   -10.4568    11.1198 H          2 BB2          0.0000
    43 H16       -0.9903    -9.1043     9.5204 H          2 BB2          0.0000
    44 H17       -2.0894    -9.6410     8.2273 H          2 BB2          0.0000
    45 H18       -2.8970    -9.0135    11.1032 H          2 BB2          0.0000
    46 H19       -3.1878    -7.9686     9.6919 H          2 BB2          0.0000
    47 H20       -5.2030    -9.3055    10.2399 H          2 BB2          0.0000
    48 H21       -4.5495    -9.7584     8.6474 H          2 BB2          0.0000
    49 H22       -4.0314   -11.2333    11.2691 H          2 BB2          0.0000
    50 H23       -5.6840   -11.9783     8.8133 H          2 BB2          0.0000
    51 H24       -5.3930   -13.0232    10.2247 H          2 BB2          0.0000
    52 H25       -6.3375   -11.5253    10.4058 H          2 BB2          0.0000
    53 H26       -3.2239   -11.8609     8.3931 H          2 BB2          0.0000
    54 H27       -2.9329   -12.9058     9.8045 H          2 BB2          0.0000
@<TRIPOS>BOND
     1      1      2 1
     2      1     16 1
     3      1     17 1
     4      1     18 1
     5      2      3 1
     6      3      4 2
     7      3      5 1
     8      5      6 2
     9      5      9 1
    10      6      7 1
    11      6     19 1
    12      7      8 1
    13      7     10 1
    14      8      9 2
    15     10     11 1
    16     10     15 1
    17     10     20 1
    18     11     12 1
    19     11     21 1
    20     11     22 1
    21     12     13 1
    22     12     23 1
    23     12     24 1
    24     13     14 1
    25     13     25 1
    26     13     26 1
    27     14     15 1
    28     15     27 1
    29     15     28 1
    30     29     30 1
    31     29     40 1
    32     29     41 1
    33     29     42 1
    34     30     31 1
    35     31     32 1
    36     31     37 1
    37     31     38 1
    38     32     33 1
    39     32     43 1
    40     32     44 1
    41     33     34 1
    42     33     45 1
    43     33     46 1
    44     34     35 1
    45     34     47 1
    46     34     48 1
    47     35     36 1
    48     35     37 1
    49     35     49 1
    50     36     50 1
    51     36     51 1
    52     36     52 1
    53     37     53 1
    54     37     54 1
    55     38     39 2
    56     14     38 am
@<TRIPOS>SUBSTRUCTURE
     1 BB1          14
     2 BB2          38
@<TRIPOS>MOLECULE
EN300-136798_i002_EN300-97777_i001_5_10_1
  56   57   2   0   0
SMALL
USER_CHARGES
@<TRIPOS>ATOM
     1 C1        -4.3775   -10.0555    10.2003 C.3        1 BB1          0.0000
     2 O2        -3.3877   -11.1048    10.3667 O.3        1 BB1          0.0000
     3 C3        -2.1048   -10.7821    10.1100 C.2        1 BB1          0.0000
     4 O4        -1.8025    -9.6269     9.8845 O.2        1 BB1          0.0000
     5 C5        -1.0685   -11.8300    10.1026 C.2        1 BB1          0.0000
     6 C6        -1.1000   -12.9900    10.8245 C.2        1 BB1          0.0000
     7 N7         0.0301   -13.6632    10.5311 N.pl3      1 BB1          0.0000
     8 N8         0.7433   -12.8788     9.6135 N.2        1 BB1          0.0000
     9 N9         0.0650   -11.8094     9.3801 N.2        1 BB1          0.0000
    10 C10        0.4357   -14.9645    11.0679 C.3        1 BB1          0.0000
    11 C11        0.1734   -14.9997    12.5763 C.3        1 BB1          0.0000
    12 C12        0.5271   -16.3894    13.1137 C.3        1 BB1          0.0000
    13 C13       -0.2854   -17.4440    12.3592 C.3        1 BB1          0.0000
    14 N14        0.0295   -17.3769    10.9271 N.am       1 BB1          0.0000
    15 C15       -0.3733   -16.0720    10.3891 C.3        1 BB1          0.0000
    16 H16       -5.3662   -10.4477    10.4384 H          1 BB1          0.0000
    17 H17       -4.1445    -9.2269    10.8691 H          1 BB1          0.0000
    18 H18       -4.3647    -9.7043     9.1685 H          1 BB1          0.0000
    19 H19       -1.8803   -13.3063    11.5009 H          1 BB1          0.0000
    20 H20        1.4978   -15.1210    10.8794 H          1 BB1          0.0000
    21 H21        0.7904   -14.2497    13.0711 H          1 BB1          0.0000
    22 H22       -0.8792   -14.7917    12.7681 H          1 BB1          0.0000
    23 H23        1.5909   -16.5763    12.9677 H          1 BB1          0.0000
    24 H24        0.2906   -16.4396    14.1766 H          1 BB1          0.0000
    25 H25       -0.0361   -18.4346    12.7395 H          1 BB1          0.0000
    26 H26       -1.3490   -17.2564    12.5061 H          1 BB1          0.0000
    27 H27       -1.4350   -15.9135    10.5781 H          1 BB1          0.0000
    28 H28       -0.1890   -16.0496     9.3151 H          1 BB1          0.0000
    29 C1         0.1321   -23.5018    14.4443 C.3        2 BB2          0.0000
    30 C2        -0.4964   -22.4470    13.5314 C.3        2 BB2          0.0000
    31 C3        -1.0222   -23.1194    12.2616 C.3        2 BB2          0.0000
    32 C4        -1.6532   -21.7632    14.2629 C.3        2 BB2          0.0000
    33 O5         0.5041   -21.4566    13.1758 O.3        2 BB2          0.0000
    34 C6         0.8333   -20.5541    14.1192 C.2        2 BB2          0.0000
    35 O7         0.7474   -20.8462    15.2955 O.2        2 BB2          0.0000
    36 N8         1.2580   -19.3268    13.7587 N.am       2 BB2          0.0000
    37 C9         1.6162   -18.3449    14.7852 C.3        2 BB2          0.0000
    38 C10        1.4692   -16.9865    14.2373 C.1        2 BB2          0.0000
    39 C11        1.3521   -15.9033    13.8003 C.1        2 BB2          0.0000
    40 C12        1.3615   -18.9749    12.3404 C.3        2 BB2          0.0000
    41 C13        0.0098   -19.1129    11.6887 C.2        2 BB2          0.0000
    42 O14       -0.9768   -18.6375    12.2245 O.2        2 BB2          0.0000
    43 H16        0.9562   -23.9888    13.9231 H          2 BB2          0.0000
    44 H17        0.5067   -23.0227    15.3489 H          2 BB2          0.0000
    45 H18       -0.6190   -24.2452    14.7113 H          2 BB2          0.0000
    46 H19       -1.7733   -23.8628    12.5287 H          2 BB2          0.0000
    47 H20       -1.4699   -22.3679    11.6113 H          2 BB2          0.0000
    48 H21       -0.1981   -23.6065    11.7405 H          2 BB2          0.0000
    49 H22       -1.2785   -21.2842    15.1676 H          2 BB2          0.0000
    50 H23       -2.1009   -21.0118    13.6126 H          2 BB2          0.0000
    51 H24       -2.4042   -22.5067    14.5299 H          2 BB2          0.0000
    52 H25        0.9580   -18.4626    15.6459 H          2 BB2          0.0000
    53 H26        2.6496   -18.5023    15.0937 H          2 BB2          0.0000
    54 H27        1.2473   -14.9343    13.4095 H          2 BB2          0.0000
    55 H28        1.7070   -17.9454    12.2458 H          2 BB2          0.0000
    56 H29        2.0707   -19.6425    11.8511 H          2 BB2          0.0000
@<TRIPOS>BOND
     1      1      2 1
     2      1     16 1
     3      1     17 1
     4      1     18 1
     5      2      3 1
     6      3      4 2
     7      3      5 1
     8      5      6 2
     9      5      9 1
    10      6      7 1
    11      6     19 1
    12      7      8 1
    13      7     10 1
    14      8      9 2
    15     10     11 1
    16     10     15 1
    17     10     20 1
    18     11     12 1
    19     11     21 1
    20     11     22 1
    21     12     13 1
    22     12     23 1
    23     12     24 1
    24     13     14 1
    25     13     25 1
    26     13     26 1
    27     14     15 1
    28     15     27 1
    29     15     28 1
    30     29     30 1
    31     29     43 1
    32     29     44 1
    33     29     45 1
    34     30     31 1
    35     30     32 1
    36     30     33 1
    37     31     46 1
    38     31     47 1
    39     31     48 1
    40     32     49 1
    41     32     50 1
    42     32     51 1
    43     33     34 1
    44     34     35 2
    45     34     36 am
    46     36     37 1
    47     36     40 1
    48     37     38 1
    49     37     52 1
    50     37     53 1
    51     38     39 3
    52     39     54 1
    53     40     41 1
    54     40     55 1
    55     40     56 1
    56     41     42 2
    57     14     41 am
@<TRIPOS>SUBSTRUCTURE
     1 BB1          14
     2 BB2          41
@<TRIPOS>MOLECULE
EN300-136798_i002_EN300-1198129_i001_7_17_1
  52   54   2   0   0
SMALL
USER_CHARGES
@<TRIPOS>ATOM
     1 C1        -0.1081   -24.6016    14.8938 C.3        1 BB1          0.0000
     2 O2         0.1764   -23.1970    14.6603 O.3        1 BB1          0.0000
     3 C3        -0.5207   -22.3024    15.3880 C.2        1 BB1          0.0000
     4 O4        -1.1646   -22.6717    16.3501 O.2        1 BB1          0.0000
     5 C5        -0.5022   -20.8762    15.0169 C.2        1 BB1          0.0000
     6 C6         0.2037   -20.3287    13.9827 C.2        1 BB1          0.0000
     7 N7        -0.0556   -19.0060    13.9900 N.pl3      1 BB1          0.0000
     8 N8        -0.9362   -18.7709    15.0554 N.2        1 BB1          0.0000
     9 N9        -1.1816   -19.8943    15.6348 N.2        1 BB1          0.0000
    10 C10        0.4800   -18.0060    13.0631 C.3        1 BB1          0.0000
    11 C11       -0.1164   -16.6340    13.3905 C.3        1 BB1          0.0000
    12 C12        0.5083   -15.5835    12.4679 C.3        1 BB1          0.0000
    13 C13        2.0295   -15.6085    12.6318 C.3        1 BB1          0.0000
    14 N14        2.5413   -16.9382    12.2788 N.am       1 BB1          0.0000
    15 C15        2.0023   -17.9414    13.2048 C.3        1 BB1          0.0000
    16 H16        0.5201   -25.2122    14.2452 H          1 BB1          0.0000
    17 H17        0.0995   -24.8460    15.9356 H          1 BB1          0.0000
    18 H18       -1.1573   -24.8009    14.6759 H          1 BB1          0.0000
    19 H19        0.8465   -20.8546    13.2924 H          1 BB1          0.0000
    20 H20        0.2203   -18.2812    12.0409 H          1 BB1          0.0000
    21 H21       -1.1951   -16.6593    13.2363 H          1 BB1          0.0000
    22 H22        0.0988   -16.3815    14.4288 H          1 BB1          0.0000
    23 H23        0.2500   -15.8079    11.4331 H          1 BB1          0.0000
    24 H24        0.1300   -14.5959    12.7321 H          1 BB1          0.0000
    25 H25        2.4775   -14.8616    11.9764 H          1 BB1          0.0000
    26 H26        2.2869   -15.3836    13.6668 H          1 BB1          0.0000
    27 H27        2.2601   -17.6668    14.2277 H          1 BB1          0.0000
    28 H28        2.4300   -18.9166    12.9726 H          1 BB1          0.0000
    29 O1        -0.1424   -16.0682    13.2759 O.2        2 BB2          0.0000
    30 C2        -0.3911   -17.0613    12.6065 C.2        2 BB2          0.0000
    31 C4        -0.3958   -16.9760    11.1355 C.ar       2 BB2          0.0000
    32 C5        -0.0908   -15.7687    10.5005 C.ar       2 BB2          0.0000
    33 C6        -0.0971   -15.6964     9.1240 C.ar       2 BB2          0.0000
    34 C7        -0.4049   -16.8151     8.3684 C.ar       2 BB2          0.0000
    35 C8        -0.7081   -18.0142     8.9862 C.ar       2 BB2          0.0000
    36 C9        -0.7001   -18.1055    10.3659 C.ar       2 BB2          0.0000
    37 F10       -0.9964   -19.2773    10.9694 F          2 BB2          0.0000
    38 S11        0.2873   -14.1747     8.3232 S.o2       2 BB2          0.0000
    39 O12        1.6993   -14.0649     8.4386 O.2        2 BB2          0.0000
    40 O13       -0.3379   -14.2803     7.0515 O.2        2 BB2          0.0000
    41 C14       -0.5340   -12.9116     9.3333 C.3        2 BB2          0.0000
    42 C15       -0.3919   -11.5463     8.6574 C.3        2 BB2          0.0000
    43 C16       -1.3236   -10.5914     9.2795 C.1        2 BB2          0.0000
    44 C17       -2.0667    -9.8299     9.7757 C.1        2 BB2          0.0000
    45 H18        0.1491   -14.8943    11.0872 H          2 BB2          0.0000
    46 H19       -0.4086   -16.7505     7.2903 H          2 BB2          0.0000
    47 H20       -0.9471   -18.8823     8.3900 H          2 BB2          0.0000
    48 H21       -1.5909   -13.1582     9.4350 H          2 BB2          0.0000
    49 H22       -0.0721   -12.8783    10.3200 H          2 BB2          0.0000
    50 H23        0.6301   -11.1866     8.7764 H          2 BB2          0.0000
    51 H24       -0.6229   -11.6403     7.5963 H          2 BB2          0.0000
    52 H25       -2.7313    -9.1488    10.2194 H          2 BB2          0.0000
@<TRIPOS>BOND
     1      1      2 1
     2      1     16 1
     3      1     17 1
     4      1     18 1
     5      2      3 1
     6      3      4 2
     7      3      5 1
     8      5      6 2
     9      5      9 1
    10      6      7 1
    11      6     19 1
    12      7      8 1
    13      7     10 1
    14      8      9 2
    15     10     11 1
    16     10     15 1
    17     10     20 1
    18     11     12 1
    19     11     21 1
    20     11     22 1
    21     12     13 1
    22     12     23 1
    23     12     24 1
    24     13     14 1
    25     13     25 1
    26     13     26 1
    27     14     15 1
    28     15     27 1
    29     15     28 1
    30     29     30 2
    31     30     31 1
    32     31     32 ar
    33     31     36 ar
    34     32     33 ar
    35     32     45 1
    36     33     34 ar
    37     33     38 1
    38     34     35 ar
    39     34     46 1
    40     35     36 ar
    41     35     47 1
    42     36     37 1
    43     38     39 2
    44     38     40 2
    45     38     41 1
    46     41     42 1
    47     41     48 1
    48     41     49 1
    49     42     43 1
    50     42     50 1
    51     42     51 1
    52     43     44 3
    53     44     52 1
    54     14     30 am
@<TRIPOS>SUBSTRUCTURE
     1 BB1          14
     2 BB2          30
@<TRIPOS>MOLECULE
EN300-136798_i002_EN300-1198129_i001_7_19_1
  52   54   2   0   0
SMALL
USER_CHARGES
@<TRIPOS>ATOM
     1 C1        -0.1081   -24.6016    14.8938 C.3        1 BB1          0.0000
     2 O2         0.1764   -23.1970    14.6603 O.3        1 BB1          0.0000
     3 C3        -0.5207   -22.3024    15.3880 C.2        1 BB1          0.0000
     4 O4        -1.1646   -22.6717    16.3501 O.2        1 BB1          0.0000
     5 C5        -0.5022   -20.8762    15.0169 C.2        1 BB1          0.0000
     6 C6         0.2037   -20.3287    13.9827 C.2        1 BB1          0.0000
     7 N7        -0.0556   -19.0060    13.9900 N.pl3      1 BB1          0.0000
     8 N8        -0.9362   -18.7709    15.0554 N.2        1 BB1          0.0000
     9 N9        -1.1816   -19.8943    15.6348 N.2        1 BB1          0.0000
    10 C10        0.4800   -18.0060    13.0631 C.3        1 BB1          0.0000
    11 C11       -0.1164   -16.6340    13.3905 C.3        1 BB1          0.0000
    12 C12        0.5083   -15.5835    12.4679 C.3        1 BB1          0.0000
    13 C13        2.0295   -15.6085    12.6318 C.3        1 BB1          0.0000
    14 N14        2.5413   -16.9382    12.2788 N.am       1 BB1          0.0000
    15 C15        2.0023   -17.9414    13.2048 C.3        1 BB1          0.0000
    16 H16        0.5201   -25.2122    14.2452 H          1 BB1          0.0000
    17 H17        0.0995   -24.8460    15.9356 H          1 BB1          0.0000
    18 H18       -1.1573   -24.8009    14.6759 H          1 BB1          0.0000
    19 H19        0.8465   -20.8546    13.2924 H          1 BB1          0.0000
    20 H20        0.2203   -18.2812    12.0409 H          1 BB1          0.0000
    21 H21       -1.1951   -16.6593    13.2363 H          1 BB1          0.0000
    22 H22        0.0988   -16.3815    14.4288 H          1 BB1          0.0000
    23 H23        0.2500   -15.8079    11.4331 H          1 BB1          0.0000
    24 H24        0.1300   -14.5959    12.7321 H          1 BB1          0.0000
    25 H25        2.4775   -14.8616    11.9764 H          1 BB1          0.0000
    26 H26        2.2869   -15.3836    13.6668 H          1 BB1          0.0000
    27 H27        2.2601   -17.6668    14.2277 H          1 BB1          0.0000
    28 H28        2.4300   -18.9166    12.9726 H          1 BB1          0.0000
    29 C2        -0.0992   -16.0437    11.1864 C.2        2 BB2          0.0000
    30 O3         0.1100   -15.6461    12.3241 O.2        2 BB2          0.0000
    31 C4        -0.0979   -15.0920    10.0614 C.ar       2 BB2          0.0000
    32 C5        -0.0950   -13.7157    10.3052 C.ar       2 BB2          0.0000
    33 C6        -0.0937   -12.8313     9.2479 C.ar       2 BB2          0.0000
    34 C7        -0.0957   -13.3016     7.9456 C.ar       2 BB2          0.0000
    35 C8        -0.0987   -14.6609     7.6932 C.ar       2 BB2          0.0000
    36 C9        -0.0936   -15.5616     8.7423 C.ar       2 BB2          0.0000
    37 F10       -0.0964   -16.8898     8.4955 F          2 BB2          0.0000
    38 S11       -0.0901   -11.0963     9.5546 S.o2       2 BB2          0.0000
    39 O12        1.2590   -10.8027     9.8907 O.2        2 BB2          0.0000
    40 O13       -0.6960   -10.5347     8.3985 O.2        2 BB2          0.0000
    41 C14       -1.1656   -10.8901    11.0008 C.3        2 BB2          0.0000
    42 C15       -2.3179    -9.9470    10.6491 C.3        2 BB2          0.0000
    43 C16       -3.4317   -10.7237    10.0809 C.1        2 BB2          0.0000
    44 C17       -4.3201   -11.3431     9.6277 C.1        2 BB2          0.0000
    45 H18       -0.0940   -13.3459    11.3199 H          2 BB2          0.0000
    46 H19       -0.0955   -12.6026     7.1222 H          2 BB2          0.0000
    47 H20       -0.1002   -15.0199     6.6747 H          2 BB2          0.0000
    48 H21       -1.5669   -11.8595    11.2963 H          2 BB2          0.0000
    49 H22       -0.5898   -10.4688    11.8248 H          2 BB2          0.0000
    50 H23       -2.6551    -9.4338    11.5497 H          2 BB2          0.0000
    51 H24       -1.9769    -9.2132     9.9188 H          2 BB2          0.0000
    52 H25       -5.1147   -11.8971     9.2224 H          2 BB2          0.0000
@<TRIPOS>BOND
     1      1      2 1
     2      1     16 1
     3      1     17 1
     4      1     18 1
     5      2      3 1
     6      3      4 2
     7      3      5 1
     8      5      6 2
     9      5      9 1
    10      6      7 1
    11      6     19 1
    12      7      8 1
    13      7     10 1
    14      8      9 2
    15     10     11 1
    16     10     15 1
    17     10     20 1
    18     11     12 1
    19     11     21 1
    20     11     22 1
    21     12     13 1
    22     12     23 1
    23     12     24 1
    24     13     14 1
    25     13     25 1
    26     13     26 1
    27     14     15 1
    28     15     27 1
    29     15     28 1
    30     29     30 2
    31     29     31 1
    32     31     32 ar
    33     31     36 ar
    34     32     33 ar
    35     32     45 1
    36     33     34 ar
    37     33     38 1
    38     34     35 ar
    39     34     46 1
    40     35     36 ar
    41     35     47 1
    42     36     37 1
    43     38     39 2
    44     38     40 2
    45     38     41 1
    46     41     42 1
    47     41     48 1
    48     41     49 1
    49     42     43 1
    50     42     50 1
    51     42     51 1
    52     43     44 3
    53     44     52 1
    54     14     29 am
@<TRIPOS>SUBSTRUCTURE
     1 BB1          14
     2 BB2          29
@<TRIPOS>MOLECULE
EN300-136798_i002_EN300-1198129_i001_7_9_1
  52   54   2   0   0
SMALL
USER_CHARGES
@<TRIPOS>ATOM
     1 C1        -0.1081   -24.6016    14.8938 C.3        1 BB1          0.0000
     2 O2         0.1764   -23.1970    14.6603 O.3        1 BB1          0.0000
     3 C3        -0.5207   -22.3024    15.3880 C.2        1 BB1          0.0000
     4 O4        -1.1646   -22.6717    16.3501 O.2        1 BB1          0.0000
     5 C5        -0.5022   -20.8762    15.0169 C.2        1 BB1          0.0000
     6 C6         0.2037   -20.3287    13.9827 C.2        1 BB1          0.0000
     7 N7        -0.0556   -19.0060    13.9900 N.pl3      1 BB1          0.0000
     8 N8        -0.9362   -18.7709    15.0554 N.2        1 BB1          0.0000
     9 N9        -1.1816   -19.8943    15.6348 N.2        1 BB1          0.0000
    10 C10        0.4800   -18.0060    13.0631 C.3        1 BB1          0.0000
    11 C11       -0.1164   -16.6340    13.3905 C.3        1 BB1          0.0000
    12 C12        0.5083   -15.5835    12.4679 C.3        1 BB1          0.0000
    13 C13        2.0295   -15.6085    12.6318 C.3        1 BB1          0.0000
    14 N14        2.5413   -16.9382    12.2788 N.am       1 BB1          0.0000
    15 C15        2.0023   -17.9414    13.2048 C.3        1 BB1          0.0000
    16 H16        0.5201   -25.2122    14.2452 H          1 BB1          0.0000
    17 H17        0.0995   -24.8460    15.9356 H          1 BB1          0.0000
    18 H18       -1.1573   -24.8009    14.6759 H          1 BB1          0.0000
    19 H19        0.8465   -20.8546    13.2924 H          1 BB1          0.0000
    20 H20        0.2203   -18.2812    12.0409 H          1 BB1          0.0000
    21 H21       -1.1951   -16.6593    13.2363 H          1 BB1          0.0000
    22 H22        0.0988   -16.3815    14.4288 H          1 BB1          0.0000
    23 H23        0.2500   -15.8079    11.4331 H          1 BB1          0.0000
    24 H24        0.1300   -14.5959    12.7321 H          1 BB1          0.0000
    25 H25        2.4775   -14.8616    11.9764 H          1 BB1          0.0000
    26 H26        2.2869   -15.3836    13.6668 H          1 BB1          0.0000
    27 H27        2.2601   -17.6668    14.2277 H          1 BB1          0.0000
    28 H28        2.4300   -18.9166    12.9726 H          1 BB1          0.0000
    29 O1         0.0714   -15.4953    13.0118 O.2        2 BB2          0.0000
    30 C2        -0.3298   -16.2651    12.1501 C.2        2 BB2          0.0000
    31 C4        -0.2777   -15.8739    10.7304 C.ar       2 BB2          0.0000
    32 C5        -0.0559   -14.5399    10.3768 C.ar       2 BB2          0.0000
    33 C6        -0.0084   -14.1812     9.0467 C.ar       2 BB2          0.0000
    34 C7        -0.1800   -15.1375     8.0601 C.ar       2 BB2          0.0000
    35 C8        -0.4001   -16.4597     8.3988 C.ar       2 BB2          0.0000
    36 C9        -0.4444   -16.8374     9.7282 C.ar       2 BB2          0.0000
    37 F10       -0.6594   -18.1295    10.0590 F          2 BB2          0.0000
    38 S11        0.2712   -12.4998     8.6004 S.o2       2 BB2          0.0000
    39 O12        1.1192   -12.0014     9.6259 O.2        2 BB2          0.0000
    40 O13        0.7129   -12.5641     7.2513 O.2        2 BB2          0.0000
    41 C14       -1.3671   -11.7273     8.6976 C.3        2 BB2          0.0000
    42 C15       -1.8344   -11.7042    10.1543 C.3        2 BB2          0.0000
    43 C16       -3.1653   -11.0801    10.2329 C.1        2 BB2          0.0000
    44 C17       -4.2268   -10.5825    10.2955 C.1        2 BB2          0.0000
    45 H18        0.0778   -13.7917    11.1441 H          2 BB2          0.0000
    46 H19       -0.1423   -14.8487     7.0201 H          2 BB2          0.0000
    47 H20       -0.5331   -17.1996     7.6236 H          2 BB2          0.0000
    48 H21       -1.3110   -10.7072     8.3179 H          2 BB2          0.0000
    49 H22       -2.0750   -12.2997     8.0981 H          2 BB2          0.0000
    50 H23       -1.8885   -12.7242    10.5348 H          2 BB2          0.0000
    51 H24       -1.1279   -11.1298    10.7535 H          2 BB2          0.0000
    52 H25       -5.1762   -10.1374    10.3514 H          2 BB2          0.0000
@<TRIPOS>BOND
     1      1      2 1
     2      1     16 1
     3      1     17 1
     4      1     18 1
     5      2      3 1
     6      3      4 2
     7      3      5 1
     8      5      6 2
     9      5      9 1
    10      6      7 1
    11      6     19 1
    12      7      8 1
    13      7     10 1
    14      8      9 2
    15     10     11 1
    16     10     15 1
    17     10     20 1
    18     11     12 1
    19     11     21 1
    20     11     22 1
    21     12     13 1
    22     12     23 1
    23     12     24 1
    24     13     14 1
    25     13     25 1
    26     13     26 1
    27     14     15 1
    28     15     27 1
    29     15     28 1
    30     29     30 2
    31     30     31 1
    32     31     32 ar
    33     31     36 ar
    34     32     33 ar
    35     32     45 1
    36     33     34 ar
    37     33     38 1
    38     34     35 ar
    39     34     46 1
    40     35     36 ar
    41     35     47 1
    42     36     37 1
    43     38     39 2
    44     38     40 2
    45     38     41 1
    46     41     42 1
    47     41     48 1
    48     41     49 1
    49     42     43 1
    50     42     50 1
    51     42     51 1
    52     43     44 3
    53     44     52 1
    54     14     30 am
@<TRIPOS>SUBSTRUCTURE
     1 BB1          14
     2 BB2          30
@<TRIPOS>MOLECULE
EN300-136798_i002_EN300-4287209_i001_7_6_1
  43   45   2   0   0
SMALL
USER_CHARGES
@<TRIPOS>ATOM
     1 C1        -0.1081   -24.6016    14.8938 C.3        1 BB1          0.0000
     2 O2         0.1764   -23.1970    14.6603 O.3        1 BB1          0.0000
     3 C3        -0.5207   -22.3024    15.3880 C.2        1 BB1          0.0000
     4 O4        -1.1646   -22.6717    16.3501 O.2        1 BB1          0.0000
     5 C5        -0.5022   -20.8762    15.0169 C.2        1 BB1          0.0000
     6 C6         0.2037   -20.3287    13.9827 C.2        1 BB1          0.0000
     7 N7        -0.0556   -19.0060    13.9900 N.pl3      1 BB1          0.0000
     8 N8        -0.9362   -18.7709    15.0554 N.2        1 BB1          0.0000
     9 N9        -1.1816   -19.8943    15.6348 N.2        1 BB1          0.0000
    10 C10        0.4800   -18.0060    13.0631 C.3        1 BB1          0.0000
    11 C11       -0.1164   -16.6340    13.3905 C.3        1 BB1          0.0000
    12 C12        0.5083   -15.5835    12.4679 C.3        1 BB1          0.0000
    13 C13        2.0295   -15.6085    12.6318 C.3        1 BB1          0.0000
    14 N14        2.5413   -16.9382    12.2788 N.am       1 BB1          0.0000
    15 C15        2.0023   -17.9414    13.2048 C.3        1 BB1          0.0000
    16 H16        0.5201   -25.2122    14.2452 H          1 BB1          0.0000
    17 H17        0.0995   -24.8460    15.9356 H          1 BB1          0.0000
    18 H18       -1.1573   -24.8009    14.6759 H          1 BB1          0.0000
    19 H19        0.8465   -20.8546    13.2924 H          1 BB1          0.0000
    20 H20        0.2203   -18.2812    12.0409 H          1 BB1          0.0000
    21 H21       -1.1951   -16.6593    13.2363 H          1 BB1          0.0000
    22 H22        0.0988   -16.3815    14.4288 H          1 BB1          0.0000
    23 H23        0.2500   -15.8079    11.4331 H          1 BB1          0.0000
    24 H24        0.1300   -14.5959    12.7321 H          1 BB1          0.0000
    25 H25        2.4775   -14.8616    11.9764 H          1 BB1          0.0000
    26 H26        2.2869   -15.3836    13.6668 H          1 BB1          0.0000
    27 H27        2.2601   -17.6668    14.2277 H          1 BB1          0.0000
    28 H28        2.4300   -18.9166    12.9726 H          1 BB1          0.0000
    29 C2        -0.1536   -16.4857    12.0918 C.2        2 BB2          0.0000
    30 O3         0.3776   -15.6734    12.8360 O.2        2 BB2          0.0000
    31 C4        -0.1204   -16.2800    10.6318 C.ar       2 BB2          0.0000
    32 C5         0.2132   -15.0305    10.1087 C.ar       2 BB2          0.0000
    33 C6         0.2425   -14.8456     8.7290 C.ar       2 BB2          0.0000
    34 C7         0.5845   -13.5663     8.1842 C.1        2 BB2          0.0000
    35 C8         0.8649   -12.5175     7.7374 C.1        2 BB2          0.0000
    36 C9        -0.0616   -15.9100     7.8771 C.ar       2 BB2          0.0000
    37 C10       -0.3916   -17.1448     8.3989 C.ar       2 BB2          0.0000
    38 C11       -0.4177   -17.3393     9.7667 C.ar       2 BB2          0.0000
    39 Cl12      -0.8340   -18.8957    10.4133 Cl         2 BB2          0.0000
    40 H13        0.4473   -14.2101    10.7709 H          2 BB2          0.0000
    41 H14        1.1157   -11.5794     7.3378 H          2 BB2          0.0000
    42 H15       -0.0387   -15.7663     6.8069 H          2 BB2          0.0000
    43 H16       -0.6261   -17.9636     7.7348 H          2 BB2          0.0000
@<TRIPOS>BOND
     1      1      2 1
     2      1     16 1
     3      1     17 1
     4      1     18 1
     5      2      3 1
     6      3      4 2
     7      3      5 1
     8      5      6 2
     9      5      9 1
    10      6      7 1
    11      6     19 1
    12      7      8 1
    13      7     10 1
    14      8      9 2
    15     10     11 1
    16     10     15 1
    17     10     20 1
    18     11     12 1
    19     11     21 1
    20     11     22 1
    21     12     13 1
    22     12     23 1
    23     12     24 1
    24     13     14 1
    25     13     25 1
    26     13     26 1
    27     14     15 1
    28     15     27 1
    29     15     28 1
    30     29     30 2
    31     29     31 1
    32     31     32 ar
    33     31     38 ar
    34     32     33 ar
    35     32     40 1
    36     33     34 1
    37     33     36 ar
    38     34     35 3
    39     35     41 1
    40     36     37 ar
    41     36     42 1
    42     37     38 ar
    43     37     43 1
    44     38     39 1
    45     14     29 am
@<TRIPOS>SUBSTRUCTURE
     1 BB1          14
     2 BB2          29
@<TRIPOS>MOLECULE
EN300-136798_i002_EN300-1165841_i001_7_9_1
  56   58   2   0   0
SMALL
USER_CHARGES
@<TRIPOS>ATOM
     1 C1        -0.1081   -24.6016    14.8938 C.3        1 BB1          0.0000
     2 O2         0.1764   -23.1970    14.6603 O.3        1 BB1          0.0000
     3 C3        -0.5207   -22.3024    15.3880 C.2        1 BB1          0.0000
     4 O4        -1.1646   -22.6717    16.3501 O.2        1 BB1          0.0000
     5 C5        -0.5022   -20.8762    15.0169 C.2        1 BB1          0.0000
     6 C6         0.2037   -20.3287    13.9827 C.2        1 BB1          0.0000
     7 N7        -0.0556   -19.0060    13.9900 N.pl3      1 BB1          0.0000
     8 N8        -0.9362   -18.7709    15.0554 N.2        1 BB1          0.0000
     9 N9        -1.1816   -19.8943    15.6348 N.2        1 BB1          0.0000
    10 C10        0.4800   -18.0060    13.0631 C.3        1 BB1          0.0000
    11 C11       -0.1164   -16.6340    13.3905 C.3        1 BB1          0.0000
    12 C12        0.5083   -15.5835    12.4679 C.3        1 BB1          0.0000
    13 C13        2.0295   -15.6085    12.6318 C.3        1 BB1          0.0000
    14 N14        2.5413   -16.9382    12.2788 N.am       1 BB1          0.0000
    15 C15        2.0023   -17.9414    13.2048 C.3        1 BB1          0.0000
    16 H16        0.5201   -25.2122    14.2452 H          1 BB1          0.0000
    17 H17        0.0995   -24.8460    15.9356 H          1 BB1          0.0000
    18 H18       -1.1573   -24.8009    14.6759 H          1 BB1          0.0000
    19 H19        0.8465   -20.8546    13.2924 H          1 BB1          0.0000
    20 H20        0.2203   -18.2812    12.0409 H          1 BB1          0.0000
    21 H21       -1.1951   -16.6593    13.2363 H          1 BB1          0.0000
    22 H22        0.0988   -16.3815    14.4288 H          1 BB1          0.0000
    23 H23        0.2500   -15.8079    11.4331 H          1 BB1          0.0000
    24 H24        0.1300   -14.5959    12.7321 H          1 BB1          0.0000
    25 H25        2.4775   -14.8616    11.9764 H          1 BB1          0.0000
    26 H26        2.2869   -15.3836    13.6668 H          1 BB1          0.0000
    27 H27        2.2601   -17.6668    14.2277 H          1 BB1          0.0000
    28 H28        2.4300   -18.9166    12.9726 H          1 BB1          0.0000
    29 C1        -0.4775   -18.1700    10.2903 C.3        2 BB2          0.0000
    30 C2        -0.3453   -16.7630    10.8767 C.3        2 BB2          0.0000
    31 N3         0.3038   -15.8828     9.8960 N.4        2 BB2          1.0000
    32 C4         0.2669   -14.4986    10.3832 C.3        2 BB2          0.0000
    33 C5         1.0128   -13.5892     9.4043 C.3        2 BB2          0.0000
    34 C6         0.3403   -13.6667     8.0306 C.3        2 BB2          0.0000
    35 O7        -0.9980   -13.1748     8.1253 O.3        2 BB2          0.0000
    36 C8         0.3180   -15.1256     7.5655 C.3        2 BB2          0.0000
    37 C9        -0.4021   -15.9780     8.6126 C.3        2 BB2          0.0000
    38 C10        1.0969   -12.8523     7.0656 C.1        2 BB2          0.0000
    39 C11        1.7003   -12.2027     6.2959 C.1        2 BB2          0.0000
    40 C12        0.4877   -16.8178    12.1313 C.2        2 BB2          0.0000
    41 O13        0.9510   -17.8803    12.5095 O.2        2 BB2          0.0000
    42 H15        0.5126   -18.5589    10.0524 H          2 BB2          0.0000
    43 H16       -0.9591   -18.8231    11.0180 H          2 BB2          0.0000
    44 H17       -1.0800   -18.1303     9.3829 H          2 BB2          0.0000
    45 H18       -1.3354   -16.3740    11.1147 H          2 BB2          0.0000
    46 H19       -0.7692   -14.1705    10.4658 H          2 BB2          0.0000
    47 H20        0.7430   -14.4457    11.3623 H          2 BB2          0.0000
    48 H21        0.9827   -12.5618     9.7668 H          2 BB2          0.0000
    49 H22        2.0492   -13.9164     9.3211 H          2 BB2          0.0000
    50 H23       -0.2086   -15.1963     6.6138 H          2 BB2          0.0000
    51 H24        1.3401   -15.4846     7.4442 H          2 BB2          0.0000
    52 H25       -0.4200   -17.0173     8.2846 H          2 BB2          0.0000
    53 H26       -1.4240   -15.6184     8.7329 H          2 BB2          0.0000
    54 H27        2.2399   -11.6219     5.6077 H          2 BB2          0.0000
    55 H28       -1.1530   -12.6008     8.8879 H          2 BB2          0.0000
    56 H29        1.2633   -16.1691     9.7718 H          2 BB2          0.0000
@<TRIPOS>BOND
     1      1      2 1
     2      1     16 1
     3      1     17 1
     4      1     18 1
     5      2      3 1
     6      3      4 2
     7      3      5 1
     8      5      6 2
     9      5      9 1
    10      6      7 1
    11      6     19 1
    12      7      8 1
    13      7     10 1
    14      8      9 2
    15     10     11 1
    16     10     15 1
    17     10     20 1
    18     11     12 1
    19     11     21 1
    20     11     22 1
    21     12     13 1
    22     12     23 1
    23     12     24 1
    24     13     14 1
    25     13     25 1
    26     13     26 1
    27     14     15 1
    28     15     27 1
    29     15     28 1
    30     29     30 1
    31     29     42 1
    32     29     43 1
    33     29     44 1
    34     30     31 1
    35     30     40 1
    36     30     45 1
    37     31     32 1
    38     31     37 1
    39     31     56 1
    40     32     33 1
    41     32     46 1
    42     32     47 1
    43     33     34 1
    44     33     48 1
    45     33     49 1
    46     34     35 1
    47     34     36 1
    48     34     38 1
    49     35     55 1
    50     36     37 1
    51     36     50 1
    52     36     51 1
    53     37     52 1
    54     37     53 1
    55     38     39 3
    56     39     54 1
    57     40     41 2
    58     14     40 am
@<TRIPOS>SUBSTRUCTURE
     1 BB1          14
     2 BB2          40
@<TRIPOS>MOLECULE
EN300-136798_i002_EN300-107901_i001_8_14_1
  54   57   2   0   0
SMALL
USER_CHARGES
@<TRIPOS>ATOM
     1 C1         1.4418   -12.2956     6.3014 C.3        1 BB1          0.0000
     2 O2         1.1426   -13.1118     7.4645 O.3        1 BB1          0.0000
     3 C3         0.6598   -12.4762     8.5502 C.2        1 BB1          0.0000
     4 O4         0.5192   -11.2692     8.5351 O.2        1 BB1          0.0000
     5 C5         0.3022   -13.2447     9.7558 C.2        1 BB1          0.0000
     6 C6         0.8876   -14.4106    10.1630 C.2        1 BB1          0.0000
     7 N7         0.2713   -14.7793    11.3036 N.pl3      1 BB1          0.0000
     8 N8        -0.7005   -13.8052    11.5731 N.2        1 BB1          0.0000
     9 N9        -0.6510   -12.9146    10.6445 N.2        1 BB1          0.0000
    10 C10        0.5609   -15.9693    12.1073 C.3        1 BB1          0.0000
    11 C11        2.0242   -15.9383    12.5580 C.3        1 BB1          0.0000
    12 C12        2.2956   -17.1448    13.4613 C.3        1 BB1          0.0000
    13 C13        1.3242   -17.1188    14.6433 C.3        1 BB1          0.0000
    14 N14       -0.0563   -17.1772    14.1481 N.am       1 BB1          0.0000
    15 C15       -0.3462   -15.9869    13.3396 C.3        1 BB1          0.0000
    16 H16        1.8220   -12.9299     5.5006 H          1 BB1          0.0000
    17 H17        0.5341   -11.7931     5.9671 H          1 BB1          0.0000
    18 H18        2.1937   -11.5513     6.5635 H          1 BB1          0.0000
    19 H19        1.6896   -14.9361     9.6660 H          1 BB1          0.0000
    20 H20        0.3827   -16.8638    11.5106 H          1 BB1          0.0000
    21 H21        2.6755   -15.9828    11.6850 H          1 BB1          0.0000
    22 H22        2.2160   -15.0187    13.1108 H          1 BB1          0.0000
    23 H23        2.1532   -18.0642    12.8933 H          1 BB1          0.0000
    24 H24        3.3200   -17.0997    13.8310 H          1 BB1          0.0000
    25 H25        1.5148   -17.9764    15.2886 H          1 BB1          0.0000
    26 H26        1.4676   -16.1993    15.2108 H          1 BB1          0.0000
    27 H27       -0.1672   -15.0915    13.9347 H          1 BB1          0.0000
    28 H28       -1.3887   -16.0088    13.0223 H          1 BB1          0.0000
    29 C2        -0.2112   -19.3730    13.6728 C.2        2 BB2          0.0000
    30 O3        -0.2933   -19.2397    14.8820 O.2        2 BB2          0.0000
    31 C4         0.9797   -20.0451    13.0754 C.3        2 BB2          0.0000
    32 C5         0.7789   -21.1029    12.0033 C.3        2 BB2          0.0000
    33 C6        -0.6011   -21.4491    11.5202 C.3        2 BB2          0.0000
    34 C7        -1.0687   -22.8022    12.1671 C.3        2 BB2          0.0000
    35 C8        -2.1119   -22.2542    13.2046 C.3        2 BB2          0.0000
    36 C9        -1.6431   -21.8882    14.5934 C.3        2 BB2          0.0000
    37 C10       -0.2703   -21.9777    15.1628 C.3        2 BB2          0.0000
    38 C11        0.7467   -22.5237    14.1819 C.3        2 BB2          0.0000
    39 C12        1.4004   -21.4658    13.3283 C.3        2 BB2          0.0000
    40 H13        1.8063   -19.3226    12.8705 H          2 BB2          0.0000
    41 H14        1.4998   -21.0308    11.1347 H          2 BB2          0.0000
    42 H15       -1.3314   -20.6776    11.7382 H          2 BB2          0.0000
    43 H16       -0.5859   -21.6033    10.4298 H          2 BB2          0.0000
    44 H17       -1.6564   -23.3338    11.3862 H          2 BB2          0.0000
    45 H18       -0.3114   -23.4212    12.4973 H          2 BB2          0.0000
    46 H19       -2.5982   -21.3894    12.7428 H          2 BB2          0.0000
    47 H20       -2.8869   -23.0314    13.2890 H          2 BB2          0.0000
    48 H21       -2.0404   -20.8695    14.8077 H          2 BB2          0.0000
    49 H22       -2.2938   -22.4998    15.2815 H          2 BB2          0.0000
    50 H23        0.0623   -21.0182    15.5960 H          2 BB2          0.0000
    51 H24       -0.2987   -22.6555    16.0572 H          2 BB2          0.0000
    52 H25        1.5953   -22.9279    14.8520 H          2 BB2          0.0000
    53 H26        0.4807   -23.4678    13.7322 H          2 BB2          0.0000
    54 H27        2.5427   -21.6098    13.3168 H          2 BB2          0.0000
@<TRIPOS>BOND
     1      1      2 1
     2      1     16 1
     3      1     17 1
     4      1     18 1
     5      2      3 1
     6      3      4 2
     7      3      5 1
     8      5      6 2
     9      5      9 1
    10      6      7 1
    11      6     19 1
    12      7      8 1
    13      7     10 1
    14      8      9 2
    15     10     11 1
    16     10     15 1
    17     10     20 1
    18     11     12 1
    19     11     21 1
    20     11     22 1
    21     12     13 1
    22     12     23 1
    23     12     24 1
    24     13     14 1
    25     13     25 1
    26     13     26 1
    27     14     15 1
    28     15     27 1
    29     15     28 1
    30     29     30 2
    31     29     31 1
    32     31     32 1
    33     31     39 1
    34     31     40 1
    35     32     33 1
    36     32     39 1
    37     32     41 1
    38     33     34 1
    39     33     42 1
    40     33     43 1
    41     34     35 1
    42     34     44 1
    43     34     45 1
    44     35     36 1
    45     35     46 1
    46     35     47 1
    47     36     37 1
    48     36     48 1
    49     36     49 1
    50     37     38 1
    51     37     50 1
    52     37     51 1
    53     38     39 1
    54     38     52 1
    55     38     53 1
    56     39     54 1
    57     14     29 am
@<TRIPOS>SUBSTRUCTURE
     1 BB1          14
     2 BB2          29
@<TRIPOS>MOLECULE
EN300-136798_i002_EN300-107901_i001_8_19_1
  54   57   2   0   0
SMALL
USER_CHARGES
@<TRIPOS>ATOM
     1 C1         1.4418   -12.2956     6.3014 C.3        1 BB1          0.0000
     2 O2         1.1426   -13.1118     7.4645 O.3        1 BB1          0.0000
     3 C3         0.6598   -12.4762     8.5502 C.2        1 BB1          0.0000
     4 O4         0.5192   -11.2692     8.5351 O.2        1 BB1          0.0000
     5 C5         0.3022   -13.2447     9.7558 C.2        1 BB1          0.0000
     6 C6         0.8876   -14.4106    10.1630 C.2        1 BB1          0.0000
     7 N7         0.2713   -14.7793    11.3036 N.pl3      1 BB1          0.0000
     8 N8        -0.7005   -13.8052    11.5731 N.2        1 BB1          0.0000
     9 N9        -0.6510   -12.9146    10.6445 N.2        1 BB1          0.0000
    10 C10        0.5609   -15.9693    12.1073 C.3        1 BB1          0.0000
    11 C11        2.0242   -15.9383    12.5580 C.3        1 BB1          0.0000
    12 C12        2.2956   -17.1448    13.4613 C.3        1 BB1          0.0000
    13 C13        1.3242   -17.1188    14.6433 C.3        1 BB1          0.0000
    14 N14       -0.0563   -17.1772    14.1481 N.am       1 BB1          0.0000
    15 C15       -0.3462   -15.9869    13.3396 C.3        1 BB1          0.0000
    16 H16        1.8220   -12.9299     5.5006 H          1 BB1          0.0000
    17 H17        0.5341   -11.7931     5.9671 H          1 BB1          0.0000
    18 H18        2.1937   -11.5513     6.5635 H          1 BB1          0.0000
    19 H19        1.6896   -14.9361     9.6660 H          1 BB1          0.0000
    20 H20        0.3827   -16.8638    11.5106 H          1 BB1          0.0000
    21 H21        2.6755   -15.9828    11.6850 H          1 BB1          0.0000
    22 H22        2.2160   -15.0187    13.1108 H          1 BB1          0.0000
    23 H23        2.1532   -18.0642    12.8933 H          1 BB1          0.0000
    24 H24        3.3200   -17.0997    13.8310 H          1 BB1          0.0000
    25 H25        1.5148   -17.9764    15.2886 H          1 BB1          0.0000
    26 H26        1.4676   -16.1993    15.2108 H          1 BB1          0.0000
    27 H27       -0.1672   -15.0915    13.9347 H          1 BB1          0.0000
    28 H28       -1.3887   -16.0088    13.0223 H          1 BB1          0.0000
    29 O1        -1.1676   -19.0126    14.1046 O.2        2 BB2          0.0000
    30 C2        -0.1559   -19.4933    14.5861 C.2        2 BB2          0.0000
    31 C4         1.0999   -19.5483    13.7818 C.3        2 BB2          0.0000
    32 C5         1.0415   -20.0240    12.3400 C.3        2 BB2          0.0000
    33 C6        -0.2701   -20.4042    11.7132 C.3        2 BB2          0.0000
    34 C7        -0.4011   -21.9687    11.6579 C.3        2 BB2          0.0000
    35 C8        -1.4547   -22.1878    12.8011 C.3        2 BB2          0.0000
    36 C9        -0.9692   -22.3961    14.2165 C.3        2 BB2          0.0000
    37 C10        0.4310   -22.4336    14.7210 C.3        2 BB2          0.0000
    38 C11        1.4628   -22.2440    13.6284 C.3        2 BB2          0.0000
    39 C12        1.8206   -20.8016    13.3704 C.3        2 BB2          0.0000
    40 H13        1.7433   -18.6515    13.9527 H          2 BB2          0.0000
    41 H14        1.6659   -19.4138    11.6209 H          2 BB2          0.0000
    42 H15       -1.1249   -19.9924    12.2384 H          2 BB2          0.0000
    43 H16       -0.3045   -20.0425    10.6735 H          2 BB2          0.0000
    44 H17       -0.9234   -22.2038    10.7041 H          2 BB2          0.0000
    45 H18        0.4895   -22.4899    11.6906 H          2 BB2          0.0000
    46 H19       -2.1408   -21.3358    12.7711 H          2 BB2          0.0000
    47 H20       -2.0453   -23.0664    12.4995 H          2 BB2          0.0000
    48 H21       -1.5501   -21.6966    14.8607 H          2 BB2          0.0000
    49 H22       -1.4280   -23.3767    14.5310 H          2 BB2          0.0000
    50 H23        0.5909   -21.7263    15.5536 H          2 BB2          0.0000
    51 H24        0.6086   -23.4301    15.2064 H          2 BB2          0.0000
    52 H25        2.4235   -22.7128    14.0640 H          2 BB2          0.0000
    53 H26        1.3636   -22.9161    12.7901 H          2 BB2          0.0000
    54 H27        2.9640   -20.6740    13.3270 H          2 BB2          0.0000
@<TRIPOS>BOND
     1      1      2 1
     2      1     16 1
     3      1     17 1
     4      1     18 1
     5      2      3 1
     6      3      4 2
     7      3      5 1
     8      5      6 2
     9      5      9 1
    10      6      7 1
    11      6     19 1
    12      7      8 1
    13      7     10 1
    14      8      9 2
    15     10     11 1
    16     10     15 1
    17     10     20 1
    18     11     12 1
    19     11     21 1
    20     11     22 1
    21     12     13 1
    22     12     23 1
    23     12     24 1
    24     13     14 1
    25     13     25 1
    26     13     26 1
    27     14     15 1
    28     15     27 1
    29     15     28 1
    30     29     30 2
    31     30     31 1
    32     31     32 1
    33     31     39 1
    34     31     40 1
    35     32     33 1
    36     32     39 1
    37     32     41 1
    38     33     34 1
    39     33     42 1
    40     33     43 1
    41     34     35 1
    42     34     44 1
    43     34     45 1
    44     35     36 1
    45     35     46 1
    46     35     47 1
    47     36     37 1
    48     36     48 1
    49     36     49 1
    50     37     38 1
    51     37     50 1
    52     37     51 1
    53     38     39 1
    54     38     52 1
    55     38     53 1
    56     39     54 1
    57     14     30 am
@<TRIPOS>SUBSTRUCTURE
     1 BB1          14
     2 BB2          30
@<TRIPOS>MOLECULE
EN300-67628_i001_EN300-1231025_i001_10_12_1
  52   53   2   0   0
SMALL
USER_CHARGES
@<TRIPOS>ATOM
     1 C1         0.6941   -18.0906    13.9216 C.3        1 BB1          0.0000
     2 C2         0.3644   -18.5042    12.4860 C.3        1 BB1          0.0000
     3 C3         1.4359   -19.4693    11.9745 C.3        1 BB1          0.0000
     4 C4        -1.0006   -19.1946    12.4549 C.3        1 BB1          0.0000
     5 O5         0.3302   -17.3257    11.6384 O.3        1 BB1          0.0000
     6 C6        -0.2948   -16.2385    12.1282 C.2        1 BB1          0.0000
     7 O7        -1.2211   -16.3680    12.9038 O.2        1 BB1          0.0000
     8 N8         0.1070   -15.0063    11.7581 N.am       1 BB1          0.0000
     9 C9        -0.5804   -13.8292    12.2972 C.3        1 BB1          0.0000
    10 C10       -1.3060   -13.0673    11.2034 C.3        1 BB1          0.0000
    11 N11       -0.3420   -12.6111    10.1895 N.am       1 BB1          0.0000
    12 C12       -0.0191   -13.4791     9.1502 C.ar       1 BB1          0.0000
    13 C13       -0.3990   -13.1999     7.8444 C.ar       1 BB1          0.0000
    14 C14       -0.1148   -14.1029     6.8382 C.ar       1 BB1          0.0000
    15 C15        0.5422   -15.2851     7.1257 C.ar       1 BB1          0.0000
    16 C16        0.9423   -15.5586     8.4233 C.ar       1 BB1          0.0000
    17 C17        0.6840   -14.6492     9.4223 C.ar       1 BB1          0.0000
    18 C18        1.2274   -14.8615    10.8283 C.3        1 BB1          0.0000
    19 H19        1.6666   -17.5987    13.9437 H          1 BB1          0.0000
    20 H20       -0.0691   -17.4030    14.2860 H          1 BB1          0.0000
    21 H21        0.7198   -18.9753    14.5578 H          1 BB1          0.0000
    22 H22        1.4615   -20.3539    12.6107 H          1 BB1          0.0000
    23 H23        1.2009   -19.7640    10.9517 H          1 BB1          0.0000
    24 H24        2.4083   -18.9774    11.9966 H          1 BB1          0.0000
    25 H25       -1.7638   -18.5070    12.8192 H          1 BB1          0.0000
    26 H26       -1.2355   -19.4893    11.4321 H          1 BB1          0.0000
    27 H27       -0.9750   -20.0793    13.0911 H          1 BB1          0.0000
    28 H28       -1.3023   -14.1499    13.0484 H          1 BB1          0.0000
    29 H29        0.1519   -13.1711    12.7652 H          1 BB1          0.0000
    30 H30       -2.0429   -13.7198    10.7351 H          1 BB1          0.0000
    31 H31       -1.8114   -12.2044    11.6370 H          1 BB1          0.0000
    32 H32       -0.9156   -12.2794     7.6159 H          1 BB1          0.0000
    33 H33       -0.4076   -13.8845     5.8219 H          1 BB1          0.0000
    34 H34        0.7438   -15.9957     6.3379 H          1 BB1          0.0000
    35 H35        1.4548   -16.4820     8.6496 H          1 BB1          0.0000
    36 H36        1.8341   -14.0033    11.1170 H          1 BB1          0.0000
    37 H37        1.8395   -15.7632    10.8492 H          1 BB1          0.0000
    38 O1        -0.9571   -11.3582    11.7008 O.3        2 BB2          0.0000
    39 C2        -0.9083   -10.5246    10.5412 C.3        2 BB2          0.0000
    40 C3        -2.3171   -10.0284    10.2101 C.3        2 BB2          0.0000
    41 C4        -3.2807   -11.2163    10.1734 C.3        2 BB2          0.0000
    42 C5        -4.6362   -10.7388     9.8548 C.1        2 BB2          0.0000
    43 C6        -5.7173   -10.3580     9.6008 C.1        2 BB2          0.0000
    44 C7        -0.3672   -11.3143     9.3773 C.2        2 BB2          0.0000
    45 O9        -0.9931   -12.2660     8.9427 O.2        2 BB2          0.0000
    46 H10       -0.2585    -9.6710    10.7345 H          2 BB2          0.0000
    47 H11       -2.6417    -9.3206    10.9729 H          2 BB2          0.0000
    48 H12       -2.3098    -9.5363     9.2375 H          2 BB2          0.0000
    49 H13       -2.9562   -11.9239     9.4106 H          2 BB2          0.0000
    50 H14       -3.2881   -11.7083    11.1460 H          2 BB2          0.0000
    51 H15       -6.6842   -10.0174     9.3736 H          2 BB2          0.0000
    52 H16       -0.9217   -10.8725    12.5362 H          2 BB2          0.0000
@<TRIPOS>BOND
     1      1      2 1
     2      1     19 1
     3      1     20 1
     4      1     21 1
     5      2      3 1
     6      2      4 1
     7      2      5 1
     8      3     22 1
     9      3     23 1
    10      3     24 1
    11      4     25 1
    12      4     26 1
    13      4     27 1
    14      5      6 1
    15      6      7 2
    16      6      8 am
    17      8      9 1
    18      8     18 1
    19      9     10 1
    20      9     28 1
    21      9     29 1
    22     10     11 1
    23     10     30 1
    24     10     31 1
    25     11     12 1
    26     12     13 ar
    27     12     17 ar
    28     13     14 ar
    29     13     32 1
    30     14     15 ar
    31     14     33 1
    32     15     16 ar
    33     15     34 1
    34     16     17 ar
    35     16     35 1
    36     17     18 1
    37     18     36 1
    38     18     37 1
    39     38     39 1
    40     38     52 1
    41     39     40 1
    42     39     44 1
    43     39     46 1
    44     40     41 1
    45     40     47 1
    46     40     48 1
    47     41     42 1
    48     41     49 1
    49     41     50 1
    50     42     43 3
    51     43     51 1
    52     44     45 2
    53     11     44 am
@<TRIPOS>SUBSTRUCTURE
     1 BB1          11
     2 BB2          44
@<TRIPOS>MOLECULE
EN300-67628_i001_EN300-1231025_i001_10_15_1
  52   53   2   0   0
SMALL
USER_CHARGES
@<TRIPOS>ATOM
     1 C1         0.6941   -18.0906    13.9216 C.3        1 BB1          0.0000
     2 C2         0.3644   -18.5042    12.4860 C.3        1 BB1          0.0000
     3 C3         1.4359   -19.4693    11.9745 C.3        1 BB1          0.0000
     4 C4        -1.0006   -19.1946    12.4549 C.3        1 BB1          0.0000
     5 O5         0.3302   -17.3257    11.6384 O.3        1 BB1          0.0000
     6 C6        -0.2948   -16.2385    12.1282 C.2        1 BB1          0.0000
     7 O7        -1.2211   -16.3680    12.9038 O.2        1 BB1          0.0000
     8 N8         0.1070   -15.0063    11.7581 N.am       1 BB1          0.0000
     9 C9        -0.5804   -13.8292    12.2972 C.3        1 BB1          0.0000
    10 C10       -1.3060   -13.0673    11.2034 C.3        1 BB1          0.0000
    11 N11       -0.3420   -12.6111    10.1895 N.am       1 BB1          0.0000
    12 C12       -0.0191   -13.4791     9.1502 C.ar       1 BB1          0.0000
    13 C13       -0.3990   -13.1999     7.8444 C.ar       1 BB1          0.0000
    14 C14       -0.1148   -14.1029     6.8382 C.ar       1 BB1          0.0000
    15 C15        0.5422   -15.2851     7.1257 C.ar       1 BB1          0.0000
    16 C16        0.9423   -15.5586     8.4233 C.ar       1 BB1          0.0000
    17 C17        0.6840   -14.6492     9.4223 C.ar       1 BB1          0.0000
    18 C18        1.2274   -14.8615    10.8283 C.3        1 BB1          0.0000
    19 H19        1.6666   -17.5987    13.9437 H          1 BB1          0.0000
    20 H20       -0.0691   -17.4030    14.2860 H          1 BB1          0.0000
    21 H21        0.7198   -18.9753    14.5578 H          1 BB1          0.0000
    22 H22        1.4615   -20.3539    12.6107 H          1 BB1          0.0000
    23 H23        1.2009   -19.7640    10.9517 H          1 BB1          0.0000
    24 H24        2.4083   -18.9774    11.9966 H          1 BB1          0.0000
    25 H25       -1.7638   -18.5070    12.8192 H          1 BB1          0.0000
    26 H26       -1.2355   -19.4893    11.4321 H          1 BB1          0.0000
    27 H27       -0.9750   -20.0793    13.0911 H          1 BB1          0.0000
    28 H28       -1.3023   -14.1499    13.0484 H          1 BB1          0.0000
    29 H29        0.1519   -13.1711    12.7652 H          1 BB1          0.0000
    30 H30       -2.0429   -13.7198    10.7351 H          1 BB1          0.0000
    31 H31       -1.8114   -12.2044    11.6370 H          1 BB1          0.0000
    32 H32       -0.9156   -12.2794     7.6159 H          1 BB1          0.0000
    33 H33       -0.4076   -13.8845     5.8219 H          1 BB1          0.0000
    34 H34        0.7438   -15.9957     6.3379 H          1 BB1          0.0000
    35 H35        1.4548   -16.4820     8.6496 H          1 BB1          0.0000
    36 H36        1.8341   -14.0033    11.1170 H          1 BB1          0.0000
    37 H37        1.8395   -15.7632    10.8492 H          1 BB1          0.0000
    38 O1         0.1620    -9.9019    11.1327 O.3        2 BB2          0.0000
    39 C2        -0.7974   -10.4651    10.2359 C.3        2 BB2          0.0000
    40 C3        -1.8248   -11.2738    11.0304 C.3        2 BB2          0.0000
    41 C4        -2.9290   -11.7602    10.0896 C.3        2 BB2          0.0000
    42 C5        -3.9702   -10.7257     9.9789 C.1        2 BB2          0.0000
    43 C6        -4.8006    -9.9005     9.8906 C.1        2 BB2          0.0000
    44 C7        -0.0972   -11.3689     9.2541 C.2        2 BB2          0.0000
    45 O9         0.4711   -12.3731     9.6479 O.2        2 BB2          0.0000
    46 H10       -1.3036    -9.6649     9.6960 H          2 BB2          0.0000
    47 H11       -1.3348   -12.1321    11.4901 H          2 BB2          0.0000
    48 H12       -2.2601   -10.6450    11.8071 H          2 BB2          0.0000
    49 H13       -2.5062   -11.9570     9.1045 H          2 BB2          0.0000
    50 H14       -3.3673   -12.6759    10.4865 H          2 BB2          0.0000
    51 H15       -5.5434    -9.1625     9.8116 H          2 BB2          0.0000
    52 H16        0.0776    -8.9456    11.2493 H          2 BB2          0.0000
@<TRIPOS>BOND
     1      1      2 1
     2      1     19 1
     3      1     20 1
     4      1     21 1
     5      2      3 1
     6      2      4 1
     7      2      5 1
     8      3     22 1
     9      3     23 1
    10      3     24 1
    11      4     25 1
    12      4     26 1
    13      4     27 1
    14      5      6 1
    15      6      7 2
    16      6      8 am
    17      8      9 1
    18      8     18 1
    19      9     10 1
    20      9     28 1
    21      9     29 1
    22     10     11 1
    23     10     30 1
    24     10     31 1
    25     11     12 1
    26     12     13 ar
    27     12     17 ar
    28     13     14 ar
    29     13     32 1
    30     14     15 ar
    31     14     33 1
    32     15     16 ar
    33     15     34 1
    34     16     17 ar
    35     16     35 1
    36     17     18 1
    37     18     36 1
    38     18     37 1
    39     38     39 1
    40     38     52 1
    41     39     40 1
    42     39     44 1
    43     39     46 1
    44     40     41 1
    45     40     47 1
    46     40     48 1
    47     41     42 1
    48     41     49 1
    49     41     50 1
    50     42     43 3
    51     43     51 1
    52     44     45 2
    53     11     44 am
@<TRIPOS>SUBSTRUCTURE
     1 BB1          11
     2 BB2          44
@<TRIPOS>MOLECULE
EN300-67628_i001_EN300-34862_i002_10_7_1
  49   51   2   0   0
SMALL
USER_CHARGES
@<TRIPOS>ATOM
     1 C1         0.6941   -18.0906    13.9216 C.3        1 BB1          0.0000
     2 C2         0.3644   -18.5042    12.4860 C.3        1 BB1          0.0000
     3 C3         1.4359   -19.4693    11.9745 C.3        1 BB1          0.0000
     4 C4        -1.0006   -19.1946    12.4549 C.3        1 BB1          0.0000
     5 O5         0.3302   -17.3257    11.6384 O.3        1 BB1          0.0000
     6 C6        -0.2948   -16.2385    12.1282 C.2        1 BB1          0.0000
     7 O7        -1.2211   -16.3680    12.9038 O.2        1 BB1          0.0000
     8 N8         0.1070   -15.0063    11.7581 N.am       1 BB1          0.0000
     9 C9        -0.5804   -13.8292    12.2972 C.3        1 BB1          0.0000
    10 C10       -1.3060   -13.0673    11.2034 C.3        1 BB1          0.0000
    11 N11       -0.3420   -12.6111    10.1895 N.am       1 BB1          0.0000
    12 C12       -0.0191   -13.4791     9.1502 C.ar       1 BB1          0.0000
    13 C13       -0.3990   -13.1999     7.8444 C.ar       1 BB1          0.0000
    14 C14       -0.1148   -14.1029     6.8382 C.ar       1 BB1          0.0000
    15 C15        0.5422   -15.2851     7.1257 C.ar       1 BB1          0.0000
    16 C16        0.9423   -15.5586     8.4233 C.ar       1 BB1          0.0000
    17 C17        0.6840   -14.6492     9.4223 C.ar       1 BB1          0.0000
    18 C18        1.2274   -14.8615    10.8283 C.3        1 BB1          0.0000
    19 H19        1.6666   -17.5987    13.9437 H          1 BB1          0.0000
    20 H20       -0.0691   -17.4030    14.2860 H          1 BB1          0.0000
    21 H21        0.7198   -18.9753    14.5578 H          1 BB1          0.0000
    22 H22        1.4615   -20.3539    12.6107 H          1 BB1          0.0000
    23 H23        1.2009   -19.7640    10.9517 H          1 BB1          0.0000
    24 H24        2.4083   -18.9774    11.9966 H          1 BB1          0.0000
    25 H25       -1.7638   -18.5070    12.8192 H          1 BB1          0.0000
    26 H26       -1.2355   -19.4893    11.4321 H          1 BB1          0.0000
    27 H27       -0.9750   -20.0793    13.0911 H          1 BB1          0.0000
    28 H28       -1.3023   -14.1499    13.0484 H          1 BB1          0.0000
    29 H29        0.1519   -13.1711    12.7652 H          1 BB1          0.0000
    30 H30       -2.0429   -13.7198    10.7351 H          1 BB1          0.0000
    31 H31       -1.8114   -12.2044    11.6370 H          1 BB1          0.0000
    32 H32       -0.9156   -12.2794     7.6159 H          1 BB1          0.0000
    33 H33       -0.4076   -13.8845     5.8219 H          1 BB1          0.0000
    34 H34        0.7438   -15.9957     6.3379 H          1 BB1          0.0000
    35 H35        1.4548   -16.4820     8.6496 H          1 BB1          0.0000
    36 H36        1.8341   -14.0033    11.1170 H          1 BB1          0.0000
    37 H37        1.8395   -15.7632    10.8492 H          1 BB1          0.0000
    38 C2        -1.0595   -10.5790    10.9893 C.2        2 BB2          0.0000
    39 O3        -1.0037   -11.6497    11.5700 O.2        2 BB2          0.0000
    40 C4        -1.9367   -10.4261     9.7735 C.3        2 BB2          0.0000
    41 C5        -2.4738   -11.8046     9.3672 C.3        2 BB2          0.0000
    42 S6        -4.2821   -11.6168     9.4644 S.3        2 BB2          0.0000
    43 C7        -4.2642    -9.9258     9.9770 C.2        2 BB2          0.0000
    44 O8        -5.2505    -9.2516    10.2041 O.2        2 BB2          0.0000
    45 N9        -3.0070    -9.5033    10.0772 N.am       2 BB2          0.0000
    46 H10       -1.3417   -10.0209     8.9550 H          2 BB2          0.0000
    47 H11       -2.1688   -12.0491     8.3496 H          2 BB2          0.0000
    48 H12       -2.1308   -12.5693    10.0642 H          2 BB2          0.0000
    49 H13       -2.8120    -8.5930    10.3494 H          2 BB2          0.0000
@<TRIPOS>BOND
     1      1      2 1
     2      1     19 1
     3      1     20 1
     4      1     21 1
     5      2      3 1
     6      2      4 1
     7      2      5 1
     8      3     22 1
     9      3     23 1
    10      3     24 1
    11      4     25 1
    12      4     26 1
    13      4     27 1
    14      5      6 1
    15      6      7 2
    16      6      8 am
    17      8      9 1
    18      8     18 1
    19      9     10 1
    20      9     28 1
    21      9     29 1
    22     10     11 1
    23     10     30 1
    24     10     31 1
    25     11     12 1
    26     12     13 ar
    27     12     17 ar
    28     13     14 ar
    29     13     32 1
    30     14     15 ar
    31     14     33 1
    32     15     16 ar
    33     15     34 1
    34     16     17 ar
    35     16     35 1
    36     17     18 1
    37     18     36 1
    38     18     37 1
    39     38     39 2
    40     38     40 1
    41     40     41 1
    42     40     45 1
    43     40     46 1
    44     41     42 1
    45     41     47 1
    46     41     48 1
    47     42     43 1
    48     43     44 2
    49     43     45 am
    50     45     49 1
    51     11     38 am
@<TRIPOS>SUBSTRUCTURE
     1 BB1          11
     2 BB2          38
@<TRIPOS>MOLECULE
EN300-67628_i001_EN300-307464_i001_10_14_1
  54   56   2   0   0
SMALL
USER_CHARGES
@<TRIPOS>ATOM
     1 C1         0.6941   -18.0906    13.9216 C.3        1 BB1          0.0000
     2 C2         0.3644   -18.5042    12.4860 C.3        1 BB1          0.0000
     3 C3         1.4359   -19.4693    11.9745 C.3        1 BB1          0.0000
     4 C4        -1.0006   -19.1946    12.4549 C.3        1 BB1          0.0000
     5 O5         0.3302   -17.3257    11.6384 O.3        1 BB1          0.0000
     6 C6        -0.2948   -16.2385    12.1282 C.2        1 BB1          0.0000
     7 O7        -1.2211   -16.3680    12.9038 O.2        1 BB1          0.0000
     8 N8         0.1070   -15.0063    11.7581 N.am       1 BB1          0.0000
     9 C9        -0.5804   -13.8292    12.2972 C.3        1 BB1          0.0000
    10 C10       -1.3060   -13.0673    11.2034 C.3        1 BB1          0.0000
    11 N11       -0.3420   -12.6111    10.1895 N.am       1 BB1          0.0000
    12 C12       -0.0191   -13.4791     9.1502 C.ar       1 BB1          0.0000
    13 C13       -0.3990   -13.1999     7.8444 C.ar       1 BB1          0.0000
    14 C14       -0.1148   -14.1029     6.8382 C.ar       1 BB1          0.0000
    15 C15        0.5422   -15.2851     7.1257 C.ar       1 BB1          0.0000
    16 C16        0.9423   -15.5586     8.4233 C.ar       1 BB1          0.0000
    17 C17        0.6840   -14.6492     9.4223 C.ar       1 BB1          0.0000
    18 C18        1.2274   -14.8615    10.8283 C.3        1 BB1          0.0000
    19 H19        1.6666   -17.5987    13.9437 H          1 BB1          0.0000
    20 H20       -0.0691   -17.4030    14.2860 H          1 BB1          0.0000
    21 H21        0.7198   -18.9753    14.5578 H          1 BB1          0.0000
    22 H22        1.4615   -20.3539    12.6107 H          1 BB1          0.0000
    23 H23        1.2009   -19.7640    10.9517 H          1 BB1          0.0000
    24 H24        2.4083   -18.9774    11.9966 H          1 BB1          0.0000
    25 H25       -1.7638   -18.5070    12.8192 H          1 BB1          0.0000
    26 H26       -1.2355   -19.4893    11.4321 H          1 BB1          0.0000
    27 H27       -0.9750   -20.0793    13.0911 H          1 BB1          0.0000
    28 H28       -1.3023   -14.1499    13.0484 H          1 BB1          0.0000
    29 H29        0.1519   -13.1711    12.7652 H          1 BB1          0.0000
    30 H30       -2.0429   -13.7198    10.7351 H          1 BB1          0.0000
    31 H31       -1.8114   -12.2044    11.6370 H          1 BB1          0.0000
    32 H32       -0.9156   -12.2794     7.6159 H          1 BB1          0.0000
    33 H33       -0.4076   -13.8845     5.8219 H          1 BB1          0.0000
    34 H34        0.7438   -15.9957     6.3379 H          1 BB1          0.0000
    35 H35        1.4548   -16.4820     8.6496 H          1 BB1          0.0000
    36 H36        1.8341   -14.0033    11.1170 H          1 BB1          0.0000
    37 H37        1.8395   -15.7632    10.8492 H          1 BB1          0.0000
    38 O1        -0.1951   -12.7975     8.7173 O.2        2 BB2          0.0000
    39 C2         0.0223   -11.6872     9.1838 C.2        2 BB2          0.0000
    40 C4        -0.7518   -11.2110    10.3353 C.2        2 BB2          0.0000
    41 C5        -0.3685   -10.1144    10.9883 C.2        2 BB2          0.0000
    42 C6        -1.9805   -11.9617    10.7798 C.3        2 BB2          0.0000
    43 N7        -3.1784   -11.2337    10.3540 N.pl3      2 BB2          0.0000
    44 C8        -4.3312   -11.7838     9.8620 C.2        2 BB2          0.0000
    45 C9        -5.1684   -10.7625     9.5980 C.2        2 BB2          0.0000
    46 N10       -4.5438    -9.6200     9.9201 N.2        2 BB2          0.0000
    47 C11       -3.3536    -9.8949    10.3791 C.2        2 BB2          0.0000
    48 H12       -0.9383    -9.7638    11.8360 H          2 BB2          0.0000
    49 H13        0.5121    -9.5764    10.6697 H          2 BB2          0.0000
    50 H14       -1.9809   -12.9554    10.3320 H          2 BB2          0.0000
    51 H15       -1.9776   -12.0527    11.8661 H          2 BB2          0.0000
    52 H16       -4.5307   -12.8347     9.7134 H          2 BB2          0.0000
    53 H17       -6.1676   -10.8484     9.1973 H          2 BB2          0.0000
    54 H18       -2.6264    -9.1711    10.7161 H          2 BB2          0.0000
@<TRIPOS>BOND
     1      1      2 1
     2      1     19 1
     3      1     20 1
     4      1     21 1
     5      2      3 1
     6      2      4 1
     7      2      5 1
     8      3     22 1
     9      3     23 1
    10      3     24 1
    11      4     25 1
    12      4     26 1
    13      4     27 1
    14      5      6 1
    15      6      7 2
    16      6      8 am
    17      8      9 1
    18      8     18 1
    19      9     10 1
    20      9     28 1
    21      9     29 1
    22     10     11 1
    23     10     30 1
    24     10     31 1
    25     11     12 1
    26     12     13 ar
    27     12     17 ar
    28     13     14 ar
    29     13     32 1
    30     14     15 ar
    31     14     33 1
    32     15     16 ar
    33     15     34 1
    34     16     17 ar
    35     16     35 1
    36     17     18 1
    37     18     36 1
    38     18     37 1
    39     38     39 2
    40     39     40 1
    41     40     41 2
    42     40     42 1
    43     41     48 1
    44     41     49 1
    45     42     43 1
    46     42     50 1
    47     42     51 1
    48     43     44 1
    49     43     47 1
    50     44     45 2
    51     44     52 1
    52     45     46 1
    53     45     53 1
    54     46     47 2
    55     47     54 1
    56     11     39 am
@<TRIPOS>SUBSTRUCTURE
     1 BB1          11
     2 BB2          39
@<TRIPOS>MOLECULE
EN300-67628_i001_EN300-307464_i001_10_19_1
  54   56   2   0   0
SMALL
USER_CHARGES
@<TRIPOS>ATOM
     1 C1         0.6941   -18.0906    13.9216 C.3        1 BB1          0.0000
     2 C2         0.3644   -18.5042    12.4860 C.3        1 BB1          0.0000
     3 C3         1.4359   -19.4693    11.9745 C.3        1 BB1          0.0000
     4 C4        -1.0006   -19.1946    12.4549 C.3        1 BB1          0.0000
     5 O5         0.3302   -17.3257    11.6384 O.3        1 BB1          0.0000
     6 C6        -0.2948   -16.2385    12.1282 C.2        1 BB1          0.0000
     7 O7        -1.2211   -16.3680    12.9038 O.2        1 BB1          0.0000
     8 N8         0.1070   -15.0063    11.7581 N.am       1 BB1          0.0000
     9 C9        -0.5804   -13.8292    12.2972 C.3        1 BB1          0.0000
    10 C10       -1.3060   -13.0673    11.2034 C.3        1 BB1          0.0000
    11 N11       -0.3420   -12.6111    10.1895 N.am       1 BB1          0.0000
    12 C12       -0.0191   -13.4791     9.1502 C.ar       1 BB1          0.0000
    13 C13       -0.3990   -13.1999     7.8444 C.ar       1 BB1          0.0000
    14 C14       -0.1148   -14.1029     6.8382 C.ar       1 BB1          0.0000
    15 C15        0.5422   -15.2851     7.1257 C.ar       1 BB1          0.0000
    16 C16        0.9423   -15.5586     8.4233 C.ar       1 BB1          0.0000
    17 C17        0.6840   -14.6492     9.4223 C.ar       1 BB1          0.0000
    18 C18        1.2274   -14.8615    10.8283 C.3        1 BB1          0.0000
    19 H19        1.6666   -17.5987    13.9437 H          1 BB1          0.0000
    20 H20       -0.0691   -17.4030    14.2860 H          1 BB1          0.0000
    21 H21        0.7198   -18.9753    14.5578 H          1 BB1          0.0000
    22 H22        1.4615   -20.3539    12.6107 H          1 BB1          0.0000
    23 H23        1.2009   -19.7640    10.9517 H          1 BB1          0.0000
    24 H24        2.4083   -18.9774    11.9966 H          1 BB1          0.0000
    25 H25       -1.7638   -18.5070    12.8192 H          1 BB1          0.0000
    26 H26       -1.2355   -19.4893    11.4321 H          1 BB1          0.0000
    27 H27       -0.9750   -20.0793    13.0911 H          1 BB1          0.0000
    28 H28       -1.3023   -14.1499    13.0484 H          1 BB1          0.0000
    29 H29        0.1519   -13.1711    12.7652 H          1 BB1          0.0000
    30 H30       -2.0429   -13.7198    10.7351 H          1 BB1          0.0000
    31 H31       -1.8114   -12.2044    11.6370 H          1 BB1          0.0000
    32 H32       -0.9156   -12.2794     7.6159 H          1 BB1          0.0000
    33 H33       -0.4076   -13.8845     5.8219 H          1 BB1          0.0000
    34 H34        0.7438   -15.9957     6.3379 H          1 BB1          0.0000
    35 H35        1.4548   -16.4820     8.6496 H          1 BB1          0.0000
    36 H36        1.8341   -14.0033    11.1170 H          1 BB1          0.0000
    37 H37        1.8395   -15.7632    10.8492 H          1 BB1          0.0000
    38 C2         0.1088   -11.6203     9.1208 C.2        2 BB2          0.0000
    39 O3        -0.1494   -12.6755     8.5573 O.2        2 BB2          0.0000
    40 C4        -0.7080   -11.1758    10.2555 C.2        2 BB2          0.0000
    41 C5        -0.3814   -10.0662    10.9171 C.2        2 BB2          0.0000
    42 C6        -1.9162   -11.9739    10.6727 C.3        2 BB2          0.0000
    43 N7        -3.1331   -11.2440    10.3088 N.pl3      2 BB2          0.0000
    44 C8        -3.3428    -9.8978    10.4406 C.2        2 BB2          0.0000
    45 C9        -4.5874    -9.6513     9.9889 C.2        2 BB2          0.0000
    46 N10       -5.1229   -10.8152     9.5922 N.2        2 BB2          0.0000
    47 C11       -4.2554   -11.7727     9.7754 C.2        2 BB2          0.0000
    48 H12       -0.9827    -9.7389    11.7525 H          2 BB2          0.0000
    49 H13        0.4845    -9.4942    10.6181 H          2 BB2          0.0000
    50 H14       -1.9064   -12.9392    10.1666 H          2 BB2          0.0000
    51 H15       -1.8944   -12.1290    11.7515 H          2 BB2          0.0000
    52 H16       -2.6446    -9.1727    10.8322 H          2 BB2          0.0000
    53 H17       -5.0695    -8.6856     9.9524 H          2 BB2          0.0000
    54 H18       -4.4119   -12.8163     9.5455 H          2 BB2          0.0000
@<TRIPOS>BOND
     1      1      2 1
     2      1     19 1
     3      1     20 1
     4      1     21 1
     5      2      3 1
     6      2      4 1
     7      2      5 1
     8      3     22 1
     9      3     23 1
    10      3     24 1
    11      4     25 1
    12      4     26 1
    13      4     27 1
    14      5      6 1
    15      6      7 2
    16      6      8 am
    17      8      9 1
    18      8     18 1
    19      9     10 1
    20      9     28 1
    21      9     29 1
    22     10     11 1
    23     10     30 1
    24     10     31 1
    25     11     12 1
    26     12     13 ar
    27     12     17 ar
    28     13     14 ar
    29     13     32 1
    30     14     15 ar
    31     14     33 1
    32     15     16 ar
    33     15     34 1
    34     16     17 ar
    35     16     35 1
    36     17     18 1
    37     18     36 1
    38     18     37 1
    39     38     39 2
    40     38     40 1
    41     40     41 2
    42     40     42 1
    43     41     48 1
    44     41     49 1
    45     42     43 1
    46     42     50 1
    47     42     51 1
    48     43     44 1
    49     43     47 1
    50     44     45 2
    51     44     52 1
    52     45     46 1
    53     45     53 1
    54     46     47 2
    55     47     54 1
    56     11     38 am
@<TRIPOS>SUBSTRUCTURE
     1 BB1          11
     2 BB2          38
@<TRIPOS>MOLECULE
EN300-67628_i001_EN300-307464_i001_10_6_1
  54   56   2   0   0
SMALL
USER_CHARGES
@<TRIPOS>ATOM
     1 C1         0.6941   -18.0906    13.9216 C.3        1 BB1          0.0000
     2 C2         0.3644   -18.5042    12.4860 C.3        1 BB1          0.0000
     3 C3         1.4359   -19.4693    11.9745 C.3        1 BB1          0.0000
     4 C4        -1.0006   -19.1946    12.4549 C.3        1 BB1          0.0000
     5 O5         0.3302   -17.3257    11.6384 O.3        1 BB1          0.0000
     6 C6        -0.2948   -16.2385    12.1282 C.2        1 BB1          0.0000
     7 O7        -1.2211   -16.3680    12.9038 O.2        1 BB1          0.0000
     8 N8         0.1070   -15.0063    11.7581 N.am       1 BB1          0.0000
     9 C9        -0.5804   -13.8292    12.2972 C.3        1 BB1          0.0000
    10 C10       -1.3060   -13.0673    11.2034 C.3        1 BB1          0.0000
    11 N11       -0.3420   -12.6111    10.1895 N.am       1 BB1          0.0000
    12 C12       -0.0191   -13.4791     9.1502 C.ar       1 BB1          0.0000
    13 C13       -0.3990   -13.1999     7.8444 C.ar       1 BB1          0.0000
    14 C14       -0.1148   -14.1029     6.8382 C.ar       1 BB1          0.0000
    15 C15        0.5422   -15.2851     7.1257 C.ar       1 BB1          0.0000
    16 C16        0.9423   -15.5586     8.4233 C.ar       1 BB1          0.0000
    17 C17        0.6840   -14.6492     9.4223 C.ar       1 BB1          0.0000
    18 C18        1.2274   -14.8615    10.8283 C.3        1 BB1          0.0000
    19 H19        1.6666   -17.5987    13.9437 H          1 BB1          0.0000
    20 H20       -0.0691   -17.4030    14.2860 H          1 BB1          0.0000
    21 H21        0.7198   -18.9753    14.5578 H          1 BB1          0.0000
    22 H22        1.4615   -20.3539    12.6107 H          1 BB1          0.0000
    23 H23        1.2009   -19.7640    10.9517 H          1 BB1          0.0000
    24 H24        2.4083   -18.9774    11.9966 H          1 BB1          0.0000
    25 H25       -1.7638   -18.5070    12.8192 H          1 BB1          0.0000
    26 H26       -1.2355   -19.4893    11.4321 H          1 BB1          0.0000
    27 H27       -0.9750   -20.0793    13.0911 H          1 BB1          0.0000
    28 H28       -1.3023   -14.1499    13.0484 H          1 BB1          0.0000
    29 H29        0.1519   -13.1711    12.7652 H          1 BB1          0.0000
    30 H30       -2.0429   -13.7198    10.7351 H          1 BB1          0.0000
    31 H31       -1.8114   -12.2044    11.6370 H          1 BB1          0.0000
    32 H32       -0.9156   -12.2794     7.6159 H          1 BB1          0.0000
    33 H33       -0.4076   -13.8845     5.8219 H          1 BB1          0.0000
    34 H34        0.7438   -15.9957     6.3379 H          1 BB1          0.0000
    35 H35        1.4548   -16.4820     8.6496 H          1 BB1          0.0000
    36 H36        1.8341   -14.0033    11.1170 H          1 BB1          0.0000
    37 H37        1.8395   -15.7632    10.8492 H          1 BB1          0.0000
    38 C2         0.1860   -11.4936     9.6944 C.2        2 BB2          0.0000
    39 O3         0.4735   -12.6654     9.8988 O.2        2 BB2          0.0000
    40 C4        -0.9370   -10.8783    10.4102 C.2        2 BB2          0.0000
    41 C5        -1.1516   -11.1726    11.6920 C.2        2 BB2          0.0000
    42 C6        -1.8478    -9.9133     9.6960 C.3        2 BB2          0.0000
    43 N7        -3.2253   -10.4090     9.7525 N.pl3      2 BB2          0.0000
    44 C8        -3.6539   -11.6589     9.3951 C.2        2 BB2          0.0000
    45 C9        -4.9842   -11.6888     9.6032 C.2        2 BB2          0.0000
    46 N10       -5.3575   -10.4899    10.0747 N.2        2 BB2          0.0000
    47 C11       -4.3082    -9.7202    10.1723 C.2        2 BB2          0.0000
    48 H12       -1.9783   -10.7197    12.2190 H          2 BB2          0.0000
    49 H13       -0.4988   -11.8642    12.2039 H          2 BB2          0.0000
    50 H14       -1.7929    -8.9373    10.1781 H          2 BB2          0.0000
    51 H15       -1.5367    -9.8225     8.6553 H          2 BB2          0.0000
    52 H16       -3.0430   -12.4657     9.0181 H          2 BB2          0.0000
    53 H17       -5.6360   -12.5306     9.4222 H          2 BB2          0.0000
    54 H18       -4.3074    -8.6989    10.5235 H          2 BB2          0.0000
@<TRIPOS>BOND
     1      1      2 1
     2      1     19 1
     3      1     20 1
     4      1     21 1
     5      2      3 1
     6      2      4 1
     7      2      5 1
     8      3     22 1
     9      3     23 1
    10      3     24 1
    11      4     25 1
    12      4     26 1
    13      4     27 1
    14      5      6 1
    15      6      7 2
    16      6      8 am
    17      8      9 1
    18      8     18 1
    19      9     10 1
    20      9     28 1
    21      9     29 1
    22     10     11 1
    23     10     30 1
    24     10     31 1
    25     11     12 1
    26     12     13 ar
    27     12     17 ar
    28     13     14 ar
    29     13     32 1
    30     14     15 ar
    31     14     33 1
    32     15     16 ar
    33     15     34 1
    34     16     17 ar
    35     16     35 1
    36     17     18 1
    37     18     36 1
    38     18     37 1
    39     38     39 2
    40     38     40 1
    41     40     41 2
    42     40     42 1
    43     41     48 1
    44     41     49 1
    45     42     43 1
    46     42     50 1
    47     42     51 1
    48     43     44 1
    49     43     47 1
    50     44     45 2
    51     44     52 1
    52     45     46 1
    53     45     53 1
    54     46     47 2
    55     47     54 1
    56     11     38 am
@<TRIPOS>SUBSTRUCTURE
     1 BB1          11
     2 BB2          38
@<TRIPOS>MOLECULE
EN300-67628_i001_EN300-701715_i002_10_20_1
  63   65   2   0   0
SMALL
USER_CHARGES
@<TRIPOS>ATOM
     1 C1         0.6941   -18.0906    13.9216 C.3        1 BB1          0.0000
     2 C2         0.3644   -18.5042    12.4860 C.3        1 BB1          0.0000
     3 C3         1.4359   -19.4693    11.9745 C.3        1 BB1          0.0000
     4 C4        -1.0006   -19.1946    12.4549 C.3        1 BB1          0.0000
     5 O5         0.3302   -17.3257    11.6384 O.3        1 BB1          0.0000
     6 C6        -0.2948   -16.2385    12.1282 C.2        1 BB1          0.0000
     7 O7        -1.2211   -16.3680    12.9038 O.2        1 BB1          0.0000
     8 N8         0.1070   -15.0063    11.7581 N.am       1 BB1          0.0000
     9 C9        -0.5804   -13.8292    12.2972 C.3        1 BB1          0.0000
    10 C10       -1.3060   -13.0673    11.2034 C.3        1 BB1          0.0000
    11 N11       -0.3420   -12.6111    10.1895 N.am       1 BB1          0.0000
    12 C12       -0.0191   -13.4791     9.1502 C.ar       1 BB1          0.0000
    13 C13       -0.3990   -13.1999     7.8444 C.ar       1 BB1          0.0000
    14 C14       -0.1148   -14.1029     6.8382 C.ar       1 BB1          0.0000
    15 C15        0.5422   -15.2851     7.1257 C.ar       1 BB1          0.0000
    16 C16        0.9423   -15.5586     8.4233 C.ar       1 BB1          0.0000
    17 C17        0.6840   -14.6492     9.4223 C.ar       1 BB1          0.0000
    18 C18        1.2274   -14.8615    10.8283 C.3        1 BB1          0.0000
    19 H19        1.6666   -17.5987    13.9437 H          1 BB1          0.0000
    20 H20       -0.0691   -17.4030    14.2860 H          1 BB1          0.0000
    21 H21        0.7198   -18.9753    14.5578 H          1 BB1          0.0000
    22 H22        1.4615   -20.3539    12.6107 H          1 BB1          0.0000
    23 H23        1.2009   -19.7640    10.9517 H          1 BB1          0.0000
    24 H24        2.4083   -18.9774    11.9966 H          1 BB1          0.0000
    25 H25       -1.7638   -18.5070    12.8192 H          1 BB1          0.0000
    26 H26       -1.2355   -19.4893    11.4321 H          1 BB1          0.0000
    27 H27       -0.9750   -20.0793    13.0911 H          1 BB1          0.0000
    28 H28       -1.3023   -14.1499    13.0484 H          1 BB1          0.0000
    29 H29        0.1519   -13.1711    12.7652 H          1 BB1          0.0000
    30 H30       -2.0429   -13.7198    10.7351 H          1 BB1          0.0000
    31 H31       -1.8114   -12.2044    11.6370 H          1 BB1          0.0000
    32 H32       -0.9156   -12.2794     7.6159 H          1 BB1          0.0000
    33 H33       -0.4076   -13.8845     5.8219 H          1 BB1          0.0000
    34 H34        0.7438   -15.9957     6.3379 H          1 BB1          0.0000
    35 H35        1.4548   -16.4820     8.6496 H          1 BB1          0.0000
    36 H36        1.8341   -14.0033    11.1170 H          1 BB1          0.0000
    37 H37        1.8395   -15.7632    10.8492 H          1 BB1          0.0000
    38 C1        -0.4996   -10.2091    11.6106 C.3        2 BB2          0.0000
    39 O2        -1.5141   -11.1202    11.1830 O.3        2 BB2          0.0000
    40 C3        -1.7554   -11.1021     9.7747 C.3        2 BB2          0.0000
    41 C4        -1.9053    -9.6548     9.3015 C.3        2 BB2          0.0000
    42 C5        -3.0810    -8.9996    10.0289 C.3        2 BB2          0.0000
    43 C6        -4.3654    -9.7722     9.7217 C.3        2 BB2          0.0000
    44 C7        -4.2155   -11.2195    10.1949 C.3        2 BB2          0.0000
    45 C8        -5.4998   -11.9921     9.8875 C.3        2 BB2          0.0000
    46 C9        -3.0397   -11.8747     9.4674 C.3        2 BB2          0.0000
    47 C10       -0.5973   -11.7474     9.0582 C.2        2 BB2          0.0000
    48 O11       -0.3272   -12.9179     9.2668 O.2        2 BB2          0.0000
    49 H13       -0.7900    -9.1921    11.3472 H          2 BB2          0.0000
    50 H14       -0.3764   -10.2834    12.6911 H          2 BB2          0.0000
    51 H15        0.4416   -10.4568    11.1198 H          2 BB2          0.0000
    52 H16       -0.9903    -9.1043     9.5204 H          2 BB2          0.0000
    53 H17       -2.0894    -9.6410     8.2273 H          2 BB2          0.0000
    54 H18       -2.8970    -9.0135    11.1032 H          2 BB2          0.0000
    55 H19       -3.1878    -7.9686     9.6919 H          2 BB2          0.0000
    56 H20       -5.2030    -9.3055    10.2399 H          2 BB2          0.0000
    57 H21       -4.5495    -9.7584     8.6474 H          2 BB2          0.0000
    58 H22       -4.0314   -11.2333    11.2691 H          2 BB2          0.0000
    59 H23       -5.6840   -11.9783     8.8133 H          2 BB2          0.0000
    60 H24       -5.3930   -13.0232    10.2247 H          2 BB2          0.0000
    61 H25       -6.3375   -11.5253    10.4058 H          2 BB2          0.0000
    62 H26       -3.2239   -11.8609     8.3931 H          2 BB2          0.0000
    63 H27       -2.9329   -12.9058     9.8045 H          2 BB2          0.0000
@<TRIPOS>BOND
     1      1      2 1
     2      1     19 1
     3      1     20 1
     4      1     21 1
     5      2      3 1
     6      2      4 1
     7      2      5 1
     8      3     22 1
     9      3     23 1
    10      3     24 1
    11      4     25 1
    12      4     26 1
    13      4     27 1
    14      5      6 1
    15      6      7 2
    16      6      8 am
    17      8      9 1
    18      8     18 1
    19      9     10 1
    20      9     28 1
    21      9     29 1
    22     10     11 1
    23     10     30 1
    24     10     31 1
    25     11     12 1
    26     12     13 ar
    27     12     17 ar
    28     13     14 ar
    29     13     32 1
    30     14     15 ar
    31     14     33 1
    32     15     16 ar
    33     15     34 1
    34     16     17 ar
    35     16     35 1
    36     17     18 1
    37     18     36 1
    38     18     37 1
    39     38     39 1
    40     38     49 1
    41     38     50 1
    42     38     51 1
    43     39     40 1
    44     40     41 1
    45     40     46 1
    46     40     47 1
    47     41     42 1
    48     41     52 1
    49     41     53 1
    50     42     43 1
    51     42     54 1
    52     42     55 1
    53     43     44 1
    54     43     56 1
    55     43     57 1
    56     44     45 1
    57     44     46 1
    58     44     58 1
    59     45     59 1
    60     45     60 1
    61     45     61 1
    62     46     62 1
    63     46     63 1
    64     47     48 2
    65     11     47 am
@<TRIPOS>SUBSTRUCTURE
     1 BB1          11
     2 BB2          47
@<TRIPOS>MOLECULE
EN300-67628_i001_EN300-1231025_i001_13_1_1
  52   53   2   0   0
SMALL
USER_CHARGES
@<TRIPOS>ATOM
     1 C1        -2.4975   -24.3281    12.5980 C.3        1 BB1          0.0000
     2 C2        -2.1858   -23.5776    13.8943 C.3        1 BB1          0.0000
     3 C3        -3.2630   -22.5198    14.1429 C.3        1 BB1          0.0000
     4 C4        -2.1619   -24.5654    15.0624 C.3        1 BB1          0.0000
     5 O5        -0.8905   -22.9315    13.7801 O.3        1 BB1          0.0000
     6 C6        -0.5438   -22.0790    14.7628 C.2        1 BB1          0.0000
     7 O7        -1.0874   -22.1486    15.8473 O.2        1 BB1          0.0000
     8 N8         0.4063   -21.1485    14.5437 N.am       1 BB1          0.0000
     9 C9         0.7763   -20.2252    15.6205 C.3        1 BB1          0.0000
    10 C10        0.4032   -18.7960    15.2718 C.3        1 BB1          0.0000
    11 N11        1.1086   -18.3806    14.0489 N.am       1 BB1          0.0000
    12 C12        0.5198   -18.6654    12.8201 C.ar       1 BB1          0.0000
    13 C13        0.0447   -17.6474    12.0044 C.ar       1 BB1          0.0000
    14 C14       -0.5849   -17.9577    10.8144 C.ar       1 BB1          0.0000
    15 C15       -0.7478   -19.2770    10.4338 C.ar       1 BB1          0.0000
    16 C16       -0.2566   -20.2956    11.2336 C.ar       1 BB1          0.0000
    17 C17        0.3939   -19.9884    12.4059 C.ar       1 BB1          0.0000
    18 C18        1.0588   -21.0773    13.2360 C.3        1 BB1          0.0000
    19 H19       -2.5146   -23.6243    11.7659 H          1 BB1          0.0000
    20 H20       -1.7301   -25.0815    12.4209 H          1 BB1          0.0000
    21 H21       -3.4700   -24.8130    12.6838 H          1 BB1          0.0000
    22 H22       -4.2354   -23.0048    14.2287 H          1 BB1          0.0000
    23 H23       -3.0410   -21.9852    15.0664 H          1 BB1          0.0000
    24 H24       -3.2801   -21.8160    13.3107 H          1 BB1          0.0000
    25 H25       -1.3944   -25.3189    14.8853 H          1 BB1          0.0000
    26 H26       -1.9397   -24.0307    15.9859 H          1 BB1          0.0000
    27 H27       -3.1342   -25.0503    15.1482 H          1 BB1          0.0000
    28 H28        0.2587   -20.5166    16.5345 H          1 BB1          0.0000
    29 H29        1.8521   -20.2831    15.7867 H          1 BB1          0.0000
    30 H30       -0.6726   -18.7319    15.1090 H          1 BB1          0.0000
    31 H31        0.6841   -18.1374    16.0935 H          1 BB1          0.0000
    32 H32        0.1665   -16.6157    12.2996 H          1 BB1          0.0000
    33 H33       -0.9519   -17.1659    10.1784 H          1 BB1          0.0000
    34 H34       -1.2583   -19.5134     9.5119 H          1 BB1          0.0000
    35 H35       -0.3839   -21.3266    10.9381 H          1 BB1          0.0000
    36 H36        2.1149   -20.8414    13.3663 H          1 BB1          0.0000
    37 H37        0.9604   -22.0352    12.7251 H          1 BB1          0.0000
    38 O1         1.5533   -15.7809    11.7534 O.3        2 BB2          0.0000
    39 C2         0.1671   -15.8328    12.0963 C.3        2 BB2          0.0000
    40 C3        -0.3909   -14.4108    12.1812 C.3        2 BB2          0.0000
    41 C4        -0.4040   -13.7839    10.7856 C.3        2 BB2          0.0000
    42 C5        -1.0947   -12.4851    10.8376 C.1        2 BB2          0.0000
    43 C6        -1.6456   -11.4492    10.8792 C.1        2 BB2          0.0000
    44 C7         0.0047   -16.5167    13.4294 C.2        2 BB2          0.0000
    45 O9        -0.6232   -17.5588    13.5075 O.2        2 BB2          0.0000
    46 H10       -0.3753   -16.3911    11.3332 H          2 BB2          0.0000
    47 H11       -1.4068   -14.4421    12.5750 H          2 BB2          0.0000
    48 H12        0.2367   -13.8131    12.8421 H          2 BB2          0.0000
    49 H13        0.6204   -13.6371    10.4436 H          2 BB2          0.0000
    50 H14       -0.9264   -14.4458    10.0948 H          2 BB2          0.0000
    51 H15       -2.1384   -10.5227    10.9163 H          2 BB2          0.0000
    52 H16        1.7824   -16.2892    10.9633 H          2 BB2          0.0000
@<TRIPOS>BOND
     1      1      2 1
     2      1     19 1
     3      1     20 1
     4      1     21 1
     5      2      3 1
     6      2      4 1
     7      2      5 1
     8      3     22 1
     9      3     23 1
    10      3     24 1
    11      4     25 1
    12      4     26 1
    13      4     27 1
    14      5      6 1
    15      6      7 2
    16      6      8 am
    17      8      9 1
    18      8     18 1
    19      9     10 1
    20      9     28 1
    21      9     29 1
    22     10     11 1
    23     10     30 1
    24     10     31 1
    25     11     12 1
    26     12     13 ar
    27     12     17 ar
    28     13     14 ar
    29     13     32 1
    30     14     15 ar
    31     14     33 1
    32     15     16 ar
    33     15     34 1
    34     16     17 ar
    35     16     35 1
    36     17     18 1
    37     18     36 1
    38     18     37 1
    39     38     39 1
    40     38     52 1
    41     39     40 1
    42     39     44 1
    43     39     46 1
    44     40     41 1
    45     40     47 1
    46     40     48 1
    47     41     42 1
    48     41     49 1
    49     41     50 1
    50     42     43 3
    51     43     51 1
    52     44     45 2
    53     11     44 am
@<TRIPOS>SUBSTRUCTURE
     1 BB1          11
     2 BB2          44
@<TRIPOS>MOLECULE
EN300-67628_i001_EN300-1231025_i001_13_2_1
  52   53   2   0   0
SMALL
USER_CHARGES
@<TRIPOS>ATOM
     1 C1        -2.4975   -24.3281    12.5980 C.3        1 BB1          0.0000
     2 C2        -2.1858   -23.5776    13.8943 C.3        1 BB1          0.0000
     3 C3        -3.2630   -22.5198    14.1429 C.3        1 BB1          0.0000
     4 C4        -2.1619   -24.5654    15.0624 C.3        1 BB1          0.0000
     5 O5        -0.8905   -22.9315    13.7801 O.3        1 BB1          0.0000
     6 C6        -0.5438   -22.0790    14.7628 C.2        1 BB1          0.0000
     7 O7        -1.0874   -22.1486    15.8473 O.2        1 BB1          0.0000
     8 N8         0.4063   -21.1485    14.5437 N.am       1 BB1          0.0000
     9 C9         0.7763   -20.2252    15.6205 C.3        1 BB1          0.0000
    10 C10        0.4032   -18.7960    15.2718 C.3        1 BB1          0.0000
    11 N11        1.1086   -18.3806    14.0489 N.am       1 BB1          0.0000
    12 C12        0.5198   -18.6654    12.8201 C.ar       1 BB1          0.0000
    13 C13        0.0447   -17.6474    12.0044 C.ar       1 BB1          0.0000
    14 C14       -0.5849   -17.9577    10.8144 C.ar       1 BB1          0.0000
    15 C15       -0.7478   -19.2770    10.4338 C.ar       1 BB1          0.0000
    16 C16       -0.2566   -20.2956    11.2336 C.ar       1 BB1          0.0000
    17 C17        0.3939   -19.9884    12.4059 C.ar       1 BB1          0.0000
    18 C18        1.0588   -21.0773    13.2360 C.3        1 BB1          0.0000
    19 H19       -2.5146   -23.6243    11.7659 H          1 BB1          0.0000
    20 H20       -1.7301   -25.0815    12.4209 H          1 BB1          0.0000
    21 H21       -3.4700   -24.8130    12.6838 H          1 BB1          0.0000
    22 H22       -4.2354   -23.0048    14.2287 H          1 BB1          0.0000
    23 H23       -3.0410   -21.9852    15.0664 H          1 BB1          0.0000
    24 H24       -3.2801   -21.8160    13.3107 H          1 BB1          0.0000
    25 H25       -1.3944   -25.3189    14.8853 H          1 BB1          0.0000
    26 H26       -1.9397   -24.0307    15.9859 H          1 BB1          0.0000
    27 H27       -3.1342   -25.0503    15.1482 H          1 BB1          0.0000
    28 H28        0.2587   -20.5166    16.5345 H          1 BB1          0.0000
    29 H29        1.8521   -20.2831    15.7867 H          1 BB1          0.0000
    30 H30       -0.6726   -18.7319    15.1090 H          1 BB1          0.0000
    31 H31        0.6841   -18.1374    16.0935 H          1 BB1          0.0000
    32 H32        0.1665   -16.6157    12.2996 H          1 BB1          0.0000
    33 H33       -0.9519   -17.1659    10.1784 H          1 BB1          0.0000
    34 H34       -1.2583   -19.5134     9.5119 H          1 BB1          0.0000
    35 H35       -0.3839   -21.3266    10.9381 H          1 BB1          0.0000
    36 H36        2.1149   -20.8414    13.3663 H          1 BB1          0.0000
    37 H37        0.9604   -22.0352    12.7251 H          1 BB1          0.0000
    38 O1         1.9719   -15.5977    11.7129 O.3        2 BB2          0.0000
    39 C2         0.7508   -15.9844    12.3462 C.3        2 BB2          0.0000
    40 C3        -0.2065   -14.7914    12.3795 C.3        2 BB2          0.0000
    41 C4        -0.2489   -14.1328    10.9992 C.3        2 BB2          0.0000
    42 C5        -1.0011   -12.8702    11.0809 C.1        2 BB2          0.0000
    43 C6        -1.6011   -11.8632    11.1461 C.1        2 BB2          0.0000
    44 C7         1.0371   -16.4383    13.7545 C.2        2 BB2          0.0000
    45 O9         1.8284   -17.3441    13.9541 O.2        2 BB2          0.0000
    46 H10        0.2942   -16.8011    11.7871 H          2 BB2          0.0000
    47 H11       -1.2053   -15.1344    12.6493 H          2 BB2          0.0000
    48 H12        0.1406   -14.0676    13.1170 H          2 BB2          0.0000
    49 H13        0.7675   -13.9290    10.6625 H          2 BB2          0.0000
    50 H14       -0.7386   -14.8024    10.2920 H          2 BB2          0.0000
    51 H15       -2.1378   -10.9625    11.2044 H          2 BB2          0.0000
    52 H16        2.1294   -16.0324    10.8635 H          2 BB2          0.0000
@<TRIPOS>BOND
     1      1      2 1
     2      1     19 1
     3      1     20 1
     4      1     21 1
     5      2      3 1
     6      2      4 1
     7      2      5 1
     8      3     22 1
     9      3     23 1
    10      3     24 1
    11      4     25 1
    12      4     26 1
    13      4     27 1
    14      5      6 1
    15      6      7 2
    16      6      8 am
    17      8      9 1
    18      8     18 1
    19      9     10 1
    20      9     28 1
    21      9     29 1
    22     10     11 1
    23     10     30 1
    24     10     31 1
    25     11     12 1
    26     12     13 ar
    27     12     17 ar
    28     13     14 ar
    29     13     32 1
    30     14     15 ar
    31     14     33 1
    32     15     16 ar
    33     15     34 1
    34     16     17 ar
    35     16     35 1
    36     17     18 1
    37     18     36 1
    38     18     37 1
    39     38     39 1
    40     38     52 1
    41     39     40 1
    42     39     44 1
    43     39     46 1
    44     40     41 1
    45     40     47 1
    46     40     48 1
    47     41     42 1
    48     41     49 1
    49     41     50 1
    50     42     43 3
    51     43     51 1
    52     44     45 2
    53     11     44 am
@<TRIPOS>SUBSTRUCTURE
     1 BB1          11
     2 BB2          44
@<TRIPOS>MOLECULE
EN300-67628_i001_EN300-1231025_i001_13_5_1
  52   53   2   0   0
SMALL
USER_CHARGES
@<TRIPOS>ATOM
     1 C1        -2.4975   -24.3281    12.5980 C.3        1 BB1          0.0000
     2 C2        -2.1858   -23.5776    13.8943 C.3        1 BB1          0.0000
     3 C3        -3.2630   -22.5198    14.1429 C.3        1 BB1          0.0000
     4 C4        -2.1619   -24.5654    15.0624 C.3        1 BB1          0.0000
     5 O5        -0.8905   -22.9315    13.7801 O.3        1 BB1          0.0000
     6 C6        -0.5438   -22.0790    14.7628 C.2        1 BB1          0.0000
     7 O7        -1.0874   -22.1486    15.8473 O.2        1 BB1          0.0000
     8 N8         0.4063   -21.1485    14.5437 N.am       1 BB1          0.0000
     9 C9         0.7763   -20.2252    15.6205 C.3        1 BB1          0.0000
    10 C10        0.4032   -18.7960    15.2718 C.3        1 BB1          0.0000
    11 N11        1.1086   -18.3806    14.0489 N.am       1 BB1          0.0000
    12 C12        0.5198   -18.6654    12.8201 C.ar       1 BB1          0.0000
    13 C13        0.0447   -17.6474    12.0044 C.ar       1 BB1          0.0000
    14 C14       -0.5849   -17.9577    10.8144 C.ar       1 BB1          0.0000
    15 C15       -0.7478   -19.2770    10.4338 C.ar       1 BB1          0.0000
    16 C16       -0.2566   -20.2956    11.2336 C.ar       1 BB1          0.0000
    17 C17        0.3939   -19.9884    12.4059 C.ar       1 BB1          0.0000
    18 C18        1.0588   -21.0773    13.2360 C.3        1 BB1          0.0000
    19 H19       -2.5146   -23.6243    11.7659 H          1 BB1          0.0000
    20 H20       -1.7301   -25.0815    12.4209 H          1 BB1          0.0000
    21 H21       -3.4700   -24.8130    12.6838 H          1 BB1          0.0000
    22 H22       -4.2354   -23.0048    14.2287 H          1 BB1          0.0000
    23 H23       -3.0410   -21.9852    15.0664 H          1 BB1          0.0000
    24 H24       -3.2801   -21.8160    13.3107 H          1 BB1          0.0000
    25 H25       -1.3944   -25.3189    14.8853 H          1 BB1          0.0000
    26 H26       -1.9397   -24.0307    15.9859 H          1 BB1          0.0000
    27 H27       -3.1342   -25.0503    15.1482 H          1 BB1          0.0000
    28 H28        0.2587   -20.5166    16.5345 H          1 BB1          0.0000
    29 H29        1.8521   -20.2831    15.7867 H          1 BB1          0.0000
    30 H30       -0.6726   -18.7319    15.1090 H          1 BB1          0.0000
    31 H31        0.6841   -18.1374    16.0935 H          1 BB1          0.0000
    32 H32        0.1665   -16.6157    12.2996 H          1 BB1          0.0000
    33 H33       -0.9519   -17.1659    10.1784 H          1 BB1          0.0000
    34 H34       -1.2583   -19.5134     9.5119 H          1 BB1          0.0000
    35 H35       -0.3839   -21.3266    10.9381 H          1 BB1          0.0000
    36 H36        2.1149   -20.8414    13.3663 H          1 BB1          0.0000
    37 H37        0.9604   -22.0352    12.7251 H          1 BB1          0.0000
    38 O1         1.8991   -16.4035    12.2746 O.3        2 BB2          0.0000
    39 C2         0.4738   -16.4177    12.3765 C.3        2 BB2          0.0000
    40 C3        -0.0794   -15.0472    11.9811 C.3        2 BB2          0.0000
    41 C4         0.1999   -14.7928    10.4985 C.3        2 BB2          0.0000
    42 C5        -0.2138   -13.4241    10.1490 C.1        2 BB2          0.0000
    43 C6        -0.5438   -12.3324     9.8703 C.1        2 BB2          0.0000
    44 C7         0.0749   -16.7300    13.7958 C.2        2 BB2          0.0000
    45 O8        -0.5696   -17.7357    14.0406 O.2        2 BB2          0.0000
    46 H10        0.0694   -17.1790    11.7095 H          2 BB2          0.0000
    47 H11       -1.1548   -15.0248    12.1573 H          2 BB2          0.0000
    48 H12        0.4029   -14.2742    12.5795 H          2 BB2          0.0000
    49 H13        1.2659   -14.9109    10.3041 H          2 BB2          0.0000
    50 H14       -0.3607   -15.5070     9.8954 H          2 BB2          0.0000
    51 H15       -0.8389   -11.3560     9.6210 H          2 BB2          0.0000
    52 H16        2.2391   -16.7976    11.4596 H          2 BB2          0.0000
@<TRIPOS>BOND
     1      1      2 1
     2      1     19 1
     3      1     20 1
     4      1     21 1
     5      2      3 1
     6      2      4 1
     7      2      5 1
     8      3     22 1
     9      3     23 1
    10      3     24 1
    11      4     25 1
    12      4     26 1
    13      4     27 1
    14      5      6 1
    15      6      7 2
    16      6      8 am
    17      8      9 1
    18      8     18 1
    19      9     10 1
    20      9     28 1
    21      9     29 1
    22     10     11 1
    23     10     30 1
    24     10     31 1
    25     11     12 1
    26     12     13 ar
    27     12     17 ar
    28     13     14 ar
    29     13     32 1
    30     14     15 ar
    31     14     33 1
    32     15     16 ar
    33     15     34 1
    34     16     17 ar
    35     16     35 1
    36     17     18 1
    37     18     36 1
    38     18     37 1
    39     38     39 1
    40     38     52 1
    41     39     40 1
    42     39     44 1
    43     39     46 1
    44     40     41 1
    45     40     47 1
    46     40     48 1
    47     41     42 1
    48     41     49 1
    49     41     50 1
    50     42     43 3
    51     43     51 1
    52     44     45 2
    53     11     44 am
@<TRIPOS>SUBSTRUCTURE
     1 BB1          11
     2 BB2          44
@<TRIPOS>MOLECULE
EN300-67628_i001_EN300-19857_i001_13_14_1
  50   52   2   0   0
SMALL
USER_CHARGES
@<TRIPOS>ATOM
     1 C1        -2.4975   -24.3281    12.5980 C.3        1 BB1          0.0000
     2 C2        -2.1858   -23.5776    13.8943 C.3        1 BB1          0.0000
     3 C3        -3.2630   -22.5198    14.1429 C.3        1 BB1          0.0000
     4 C4        -2.1619   -24.5654    15.0624 C.3        1 BB1          0.0000
     5 O5        -0.8905   -22.9315    13.7801 O.3        1 BB1          0.0000
     6 C6        -0.5438   -22.0790    14.7628 C.2        1 BB1          0.0000
     7 O7        -1.0874   -22.1486    15.8473 O.2        1 BB1          0.0000
     8 N8         0.4063   -21.1485    14.5437 N.am       1 BB1          0.0000
     9 C9         0.7763   -20.2252    15.6205 C.3        1 BB1          0.0000
    10 C10        0.4032   -18.7960    15.2718 C.3        1 BB1          0.0000
    11 N11        1.1086   -18.3806    14.0489 N.am       1 BB1          0.0000
    12 C12        0.5198   -18.6654    12.8201 C.ar       1 BB1          0.0000
    13 C13        0.0447   -17.6474    12.0044 C.ar       1 BB1          0.0000
    14 C14       -0.5849   -17.9577    10.8144 C.ar       1 BB1          0.0000
    15 C15       -0.7478   -19.2770    10.4338 C.ar       1 BB1          0.0000
    16 C16       -0.2566   -20.2956    11.2336 C.ar       1 BB1          0.0000
    17 C17        0.3939   -19.9884    12.4059 C.ar       1 BB1          0.0000
    18 C18        1.0588   -21.0773    13.2360 C.3        1 BB1          0.0000
    19 H19       -2.5146   -23.6243    11.7659 H          1 BB1          0.0000
    20 H20       -1.7301   -25.0815    12.4209 H          1 BB1          0.0000
    21 H21       -3.4700   -24.8130    12.6838 H          1 BB1          0.0000
    22 H22       -4.2354   -23.0048    14.2287 H          1 BB1          0.0000
    23 H23       -3.0410   -21.9852    15.0664 H          1 BB1          0.0000
    24 H24       -3.2801   -21.8160    13.3107 H          1 BB1          0.0000
    25 H25       -1.3944   -25.3189    14.8853 H          1 BB1          0.0000
    26 H26       -1.9397   -24.0307    15.9859 H          1 BB1          0.0000
    27 H27       -3.1342   -25.0503    15.1482 H          1 BB1          0.0000
    28 H28        0.2587   -20.5166    16.5345 H          1 BB1          0.0000
    29 H29        1.8521   -20.2831    15.7867 H          1 BB1          0.0000
    30 H30       -0.6726   -18.7319    15.1090 H          1 BB1          0.0000
    31 H31        0.6841   -18.1374    16.0935 H          1 BB1          0.0000
    32 H32        0.1665   -16.6157    12.2996 H          1 BB1          0.0000
    33 H33       -0.9519   -17.1659    10.1784 H          1 BB1          0.0000
    34 H34       -1.2583   -19.5134     9.5119 H          1 BB1          0.0000
    35 H35       -0.3839   -21.3266    10.9381 H          1 BB1          0.0000
    36 H36        2.1149   -20.8414    13.3663 H          1 BB1          0.0000
    37 H37        0.9604   -22.0352    12.7251 H          1 BB1          0.0000
    38 O1        -0.5707   -17.3163    13.2432 O.2        2 BB2          0.0000
    39 C2        -0.2271   -16.1459    13.3298 C.2        2 BB2          0.0000
    40 C4        -0.2357   -15.2840    12.1323 C.ar       2 BB2          0.0000
    41 C5         0.2150   -15.7808    10.9070 C.ar       2 BB2          0.0000
    42 C6         0.2045   -14.9696     9.7912 C.ar       2 BB2          0.0000
    43 C7        -0.2510   -13.6665     9.8834 C.ar       2 BB2          0.0000
    44 C8        -0.6989   -13.1666    11.0947 C.ar       2 BB2          0.0000
    45 Br9       -1.3191   -11.3838    11.2084 Br         2 BB2          0.0000
    46 C10       -0.6998   -13.9688    12.2175 C.ar       2 BB2          0.0000
    47 H11        0.5712   -16.7977    10.8333 H          2 BB2          0.0000
    48 H12        0.5529   -15.3526     8.8435 H          2 BB2          0.0000
    49 H13       -0.2570   -13.0361     9.0065 H          2 BB2          0.0000
    50 H14       -1.0492   -13.5781    13.1619 H          2 BB2          0.0000
@<TRIPOS>BOND
     1      1      2 1
     2      1     19 1
     3      1     20 1
     4      1     21 1
     5      2      3 1
     6      2      4 1
     7      2      5 1
     8      3     22 1
     9      3     23 1
    10      3     24 1
    11      4     25 1
    12      4     26 1
    13      4     27 1
    14      5      6 1
    15      6      7 2
    16      6      8 am
    17      8      9 1
    18      8     18 1
    19      9     10 1
    20      9     28 1
    21      9     29 1
    22     10     11 1
    23     10     30 1
    24     10     31 1
    25     11     12 1
    26     12     13 ar
    27     12     17 ar
    28     13     14 ar
    29     13     32 1
    30     14     15 ar
    31     14     33 1
    32     15     16 ar
    33     15     34 1
    34     16     17 ar
    35     16     35 1
    36     17     18 1
    37     18     36 1
    38     18     37 1
    39     38     39 2
    40     39     40 1
    41     40     41 ar
    42     40     46 ar
    43     41     42 ar
    44     41     47 1
    45     42     43 ar
    46     42     48 1
    47     43     44 ar
    48     43     49 1
    49     44     45 1
    50     44     46 ar
    51     46     50 1
    52     11     39 am
@<TRIPOS>SUBSTRUCTURE
     1 BB1          11
     2 BB2          39
@<TRIPOS>MOLECULE
EN300-67628_i001_EN300-34862_i002_13_12_1
  49   51   2   0   0
SMALL
USER_CHARGES
@<TRIPOS>ATOM
     1 C1        -2.4975   -24.3281    12.5980 C.3        1 BB1          0.0000
     2 C2        -2.1858   -23.5776    13.8943 C.3        1 BB1          0.0000
     3 C3        -3.2630   -22.5198    14.1429 C.3        1 BB1          0.0000
     4 C4        -2.1619   -24.5654    15.0624 C.3        1 BB1          0.0000
     5 O5        -0.8905   -22.9315    13.7801 O.3        1 BB1          0.0000
     6 C6        -0.5438   -22.0790    14.7628 C.2        1 BB1          0.0000
     7 O7        -1.0874   -22.1486    15.8473 O.2        1 BB1          0.0000
     8 N8         0.4063   -21.1485    14.5437 N.am       1 BB1          0.0000
     9 C9         0.7763   -20.2252    15.6205 C.3        1 BB1          0.0000
    10 C10        0.4032   -18.7960    15.2718 C.3        1 BB1          0.0000
    11 N11        1.1086   -18.3806    14.0489 N.am       1 BB1          0.0000
    12 C12        0.5198   -18.6654    12.8201 C.ar       1 BB1          0.0000
    13 C13        0.0447   -17.6474    12.0044 C.ar       1 BB1          0.0000
    14 C14       -0.5849   -17.9577    10.8144 C.ar       1 BB1          0.0000
    15 C15       -0.7478   -19.2770    10.4338 C.ar       1 BB1          0.0000
    16 C16       -0.2566   -20.2956    11.2336 C.ar       1 BB1          0.0000
    17 C17        0.3939   -19.9884    12.4059 C.ar       1 BB1          0.0000
    18 C18        1.0588   -21.0773    13.2360 C.3        1 BB1          0.0000
    19 H19       -2.5146   -23.6243    11.7659 H          1 BB1          0.0000
    20 H20       -1.7301   -25.0815    12.4209 H          1 BB1          0.0000
    21 H21       -3.4700   -24.8130    12.6838 H          1 BB1          0.0000
    22 H22       -4.2354   -23.0048    14.2287 H          1 BB1          0.0000
    23 H23       -3.0410   -21.9852    15.0664 H          1 BB1          0.0000
    24 H24       -3.2801   -21.8160    13.3107 H          1 BB1          0.0000
    25 H25       -1.3944   -25.3189    14.8853 H          1 BB1          0.0000
    26 H26       -1.9397   -24.0307    15.9859 H          1 BB1          0.0000
    27 H27       -3.1342   -25.0503    15.1482 H          1 BB1          0.0000
    28 H28        0.2587   -20.5166    16.5345 H          1 BB1          0.0000
    29 H29        1.8521   -20.2831    15.7867 H          1 BB1          0.0000
    30 H30       -0.6726   -18.7319    15.1090 H          1 BB1          0.0000
    31 H31        0.6841   -18.1374    16.0935 H          1 BB1          0.0000
    32 H32        0.1665   -16.6157    12.2996 H          1 BB1          0.0000
    33 H33       -0.9519   -17.1659    10.1784 H          1 BB1          0.0000
    34 H34       -1.2583   -19.5134     9.5119 H          1 BB1          0.0000
    35 H35       -0.3839   -21.3266    10.9381 H          1 BB1          0.0000
    36 H36        2.1149   -20.8414    13.3663 H          1 BB1          0.0000
    37 H37        0.9604   -22.0352    12.7251 H          1 BB1          0.0000
    38 O1         2.7689   -17.1688    13.0739 O.2        2 BB2          0.0000
    39 C2         1.7817   -16.5019    13.3331 C.2        2 BB2          0.0000
    40 C4         0.6721   -16.3736    12.3215 C.3        2 BB2          0.0000
    41 C5        -0.4223   -15.4621    12.8920 C.3        2 BB2          0.0000
    42 S6        -0.5216   -14.0940    11.6948 S.3        2 BB2          0.0000
    43 C7         0.7362   -14.7037    10.6138 C.2        2 BB2          0.0000
    44 O8         1.1071   -14.1585     9.5919 O.2        2 BB2          0.0000
    45 N9         1.2158   -15.8497    11.0890 N.am       2 BB2          0.0000
    46 H10        0.2496   -17.3601    12.1307 H          2 BB2          0.0000
    47 H11       -1.3727   -15.9932    12.9455 H          2 BB2          0.0000
    48 H12       -0.1355   -15.0897    13.8754 H          2 BB2          0.0000
    49 H13        1.9177   -16.3247    10.6174 H          2 BB2          0.0000
@<TRIPOS>BOND
     1      1      2 1
     2      1     19 1
     3      1     20 1
     4      1     21 1
     5      2      3 1
     6      2      4 1
     7      2      5 1
     8      3     22 1
     9      3     23 1
    10      3     24 1
    11      4     25 1
    12      4     26 1
    13      4     27 1
    14      5      6 1
    15      6      7 2
    16      6      8 am
    17      8      9 1
    18      8     18 1
    19      9     10 1
    20      9     28 1
    21      9     29 1
    22     10     11 1
    23     10     30 1
    24     10     31 1
    25     11     12 1
    26     12     13 ar
    27     12     17 ar
    28     13     14 ar
    29     13     32 1
    30     14     15 ar
    31     14     33 1
    32     15     16 ar
    33     15     34 1
    34     16     17 ar
    35     16     35 1
    36     17     18 1
    37     18     36 1
    38     18     37 1
    39     38     39 2
    40     39     40 1
    41     40     41 1
    42     40     45 1
    43     40     46 1
    44     41     42 1
    45     41     47 1
    46     41     48 1
    47     42     43 1
    48     43     44 2
    49     43     45 am
    50     45     49 1
    51     11     39 am
@<TRIPOS>SUBSTRUCTURE
     1 BB1          11
     2 BB2          39
@<TRIPOS>MOLECULE
EN300-67628_i001_EN300-194291_i002_13_13_1
  61   64   2   0   0
SMALL
USER_CHARGES
@<TRIPOS>ATOM
     1 C1        -2.4975   -24.3281    12.5980 C.3        1 BB1          0.0000
     2 C2        -2.1858   -23.5776    13.8943 C.3        1 BB1          0.0000
     3 C3        -3.2630   -22.5198    14.1429 C.3        1 BB1          0.0000
     4 C4        -2.1619   -24.5654    15.0624 C.3        1 BB1          0.0000
     5 O5        -0.8905   -22.9315    13.7801 O.3        1 BB1          0.0000
     6 C6        -0.5438   -22.0790    14.7628 C.2        1 BB1          0.0000
     7 O7        -1.0874   -22.1486    15.8473 O.2        1 BB1          0.0000
     8 N8         0.4063   -21.1485    14.5437 N.am       1 BB1          0.0000
     9 C9         0.7763   -20.2252    15.6205 C.3        1 BB1          0.0000
    10 C10        0.4032   -18.7960    15.2718 C.3        1 BB1          0.0000
    11 N11        1.1086   -18.3806    14.0489 N.am       1 BB1          0.0000
    12 C12        0.5198   -18.6654    12.8201 C.ar       1 BB1          0.0000
    13 C13        0.0447   -17.6474    12.0044 C.ar       1 BB1          0.0000
    14 C14       -0.5849   -17.9577    10.8144 C.ar       1 BB1          0.0000
    15 C15       -0.7478   -19.2770    10.4338 C.ar       1 BB1          0.0000
    16 C16       -0.2566   -20.2956    11.2336 C.ar       1 BB1          0.0000
    17 C17        0.3939   -19.9884    12.4059 C.ar       1 BB1          0.0000
    18 C18        1.0588   -21.0773    13.2360 C.3        1 BB1          0.0000
    19 H19       -2.5146   -23.6243    11.7659 H          1 BB1          0.0000
    20 H20       -1.7301   -25.0815    12.4209 H          1 BB1          0.0000
    21 H21       -3.4700   -24.8130    12.6838 H          1 BB1          0.0000
    22 H22       -4.2354   -23.0048    14.2287 H          1 BB1          0.0000
    23 H23       -3.0410   -21.9852    15.0664 H          1 BB1          0.0000
    24 H24       -3.2801   -21.8160    13.3107 H          1 BB1          0.0000
    25 H25       -1.3944   -25.3189    14.8853 H          1 BB1          0.0000
    26 H26       -1.9397   -24.0307    15.9859 H          1 BB1          0.0000
    27 H27       -3.1342   -25.0503    15.1482 H          1 BB1          0.0000
    28 H28        0.2587   -20.5166    16.5345 H          1 BB1          0.0000
    29 H29        1.8521   -20.2831    15.7867 H          1 BB1          0.0000
    30 H30       -0.6726   -18.7319    15.1090 H          1 BB1          0.0000
    31 H31        0.6841   -18.1374    16.0935 H          1 BB1          0.0000
    32 H32        0.1665   -16.6157    12.2996 H          1 BB1          0.0000
    33 H33       -0.9519   -17.1659    10.1784 H          1 BB1          0.0000
    34 H34       -1.2583   -19.5134     9.5119 H          1 BB1          0.0000
    35 H35       -0.3839   -21.3266    10.9381 H          1 BB1          0.0000
    36 H36        2.1149   -20.8414    13.3663 H          1 BB1          0.0000
    37 H37        0.9604   -22.0352    12.7251 H          1 BB1          0.0000
    38 O1         1.5849   -17.9659    13.5861 O.2        2 BB2          0.0000
    39 C2         0.6432   -17.1940    13.6492 C.2        2 BB2          0.0000
    40 C4         0.7972   -15.7762    13.1623 C.3        2 BB2          0.0000
    41 C5         1.0164   -15.7373    11.6337 C.3        2 BB2          0.0000
    42 N6         0.3037   -14.5425    11.1662 N.am       2 BB2          0.0000
    43 C7        -0.5740   -14.1064    12.0861 C.2        2 BB2          0.0000
    44 O8        -1.2978   -13.1422    11.9535 O.2        2 BB2          0.0000
    45 C9        -0.5278   -14.9932    13.3109 C.3        2 BB2          0.0000
    46 C10        0.5111   -13.9353     9.9216 C.ar       2 BB2          0.0000
    47 C11        0.5196   -12.5510     9.8166 C.ar       2 BB2          0.0000
    48 C12        0.7248   -11.9526     8.5882 C.ar       2 BB2          0.0000
    49 C13        0.9213   -12.7319     7.4616 C.ar       2 BB2          0.0000
    50 F14        1.1217   -12.1445     6.2615 F          2 BB2          0.0000
    51 C15        0.9132   -14.1152     7.5632 C.ar       2 BB2          0.0000
    52 F16        1.1057   -14.8745     6.4624 F          2 BB2          0.0000
    53 C17        0.7139   -14.7171     8.7921 C.ar       2 BB2          0.0000
    54 H18        1.6096   -15.2722    13.6859 H          2 BB2          0.0000
    55 H19        2.0794   -15.6552    11.4071 H          2 BB2          0.0000
    56 H20        0.5990   -16.6311    11.1699 H          2 BB2          0.0000
    57 H21       -1.3764   -15.6773    13.3188 H          2 BB2          0.0000
    58 H22       -0.5147   -14.3897    14.2185 H          2 BB2          0.0000
    59 H23        0.3657   -11.9419    10.6950 H          2 BB2          0.0000
    60 H24        0.7314   -10.8757     8.5071 H          2 BB2          0.0000
    61 H25        0.7076   -15.7941     8.8719 H          2 BB2          0.0000
@<TRIPOS>BOND
     1      1      2 1
     2      1     19 1
     3      1     20 1
     4      1     21 1
     5      2      3 1
     6      2      4 1
     7      2      5 1
     8      3     22 1
     9      3     23 1
    10      3     24 1
    11      4     25 1
    12      4     26 1
    13      4     27 1
    14      5      6 1
    15      6      7 2
    16      6      8 am
    17      8      9 1
    18      8     18 1
    19      9     10 1
    20      9     28 1
    21      9     29 1
    22     10     11 1
    23     10     30 1
    24     10     31 1
    25     11     12 1
    26     12     13 ar
    27     12     17 ar
    28     13     14 ar
    29     13     32 1
    30     14     15 ar
    31     14     33 1
    32     15     16 ar
    33     15     34 1
    34     16     17 ar
    35     16     35 1
    36     17     18 1
    37     18     36 1
    38     18     37 1
    39     38     39 2
    40     39     40 1
    41     40     41 1
    42     40     45 1
    43     40     54 1
    44     41     42 1
    45     41     55 1
    46     41     56 1
    47     42     43 am
    48     42     46 1
    49     43     44 2
    50     43     45 1
    51     45     57 1
    52     45     58 1
    53     46     47 ar
    54     46     53 ar
    55     47     48 ar
    56     47     59 1
    57     48     49 ar
    58     48     60 1
    59     49     50 1
    60     49     51 ar
    61     51     52 1
    62     51     53 ar
    63     53     61 1
    64     11     39 am
@<TRIPOS>SUBSTRUCTURE
     1 BB1          11
     2 BB2          39
@<TRIPOS>MOLECULE
EN300-67628_i001_EN300-194291_i002_13_17_1
  61   64   2   0   0
SMALL
USER_CHARGES
@<TRIPOS>ATOM
     1 C1        -2.4975   -24.3281    12.5980 C.3        1 BB1          0.0000
     2 C2        -2.1858   -23.5776    13.8943 C.3        1 BB1          0.0000
     3 C3        -3.2630   -22.5198    14.1429 C.3        1 BB1          0.0000
     4 C4        -2.1619   -24.5654    15.0624 C.3        1 BB1          0.0000
     5 O5        -0.8905   -22.9315    13.7801 O.3        1 BB1          0.0000
     6 C6        -0.5438   -22.0790    14.7628 C.2        1 BB1          0.0000
     7 O7        -1.0874   -22.1486    15.8473 O.2        1 BB1          0.0000
     8 N8         0.4063   -21.1485    14.5437 N.am       1 BB1          0.0000
     9 C9         0.7763   -20.2252    15.6205 C.3        1 BB1          0.0000
    10 C10        0.4032   -18.7960    15.2718 C.3        1 BB1          0.0000
    11 N11        1.1086   -18.3806    14.0489 N.am       1 BB1          0.0000
    12 C12        0.5198   -18.6654    12.8201 C.ar       1 BB1          0.0000
    13 C13        0.0447   -17.6474    12.0044 C.ar       1 BB1          0.0000
    14 C14       -0.5849   -17.9577    10.8144 C.ar       1 BB1          0.0000
    15 C15       -0.7478   -19.2770    10.4338 C.ar       1 BB1          0.0000
    16 C16       -0.2566   -20.2956    11.2336 C.ar       1 BB1          0.0000
    17 C17        0.3939   -19.9884    12.4059 C.ar       1 BB1          0.0000
    18 C18        1.0588   -21.0773    13.2360 C.3        1 BB1          0.0000
    19 H19       -2.5146   -23.6243    11.7659 H          1 BB1          0.0000
    20 H20       -1.7301   -25.0815    12.4209 H          1 BB1          0.0000
    21 H21       -3.4700   -24.8130    12.6838 H          1 BB1          0.0000
    22 H22       -4.2354   -23.0048    14.2287 H          1 BB1          0.0000
    23 H23       -3.0410   -21.9852    15.0664 H          1 BB1          0.0000
    24 H24       -3.2801   -21.8160    13.3107 H          1 BB1          0.0000
    25 H25       -1.3944   -25.3189    14.8853 H          1 BB1          0.0000
    26 H26       -1.9397   -24.0307    15.9859 H          1 BB1          0.0000
    27 H27       -3.1342   -25.0503    15.1482 H          1 BB1          0.0000
    28 H28        0.2587   -20.5166    16.5345 H          1 BB1          0.0000
    29 H29        1.8521   -20.2831    15.7867 H          1 BB1          0.0000
    30 H30       -0.6726   -18.7319    15.1090 H          1 BB1          0.0000
    31 H31        0.6841   -18.1374    16.0935 H          1 BB1          0.0000
    32 H32        0.1665   -16.6157    12.2996 H          1 BB1          0.0000
    33 H33       -0.9519   -17.1659    10.1784 H          1 BB1          0.0000
    34 H34       -1.2583   -19.5134     9.5119 H          1 BB1          0.0000
    35 H35       -0.3839   -21.3266    10.9381 H          1 BB1          0.0000
    36 H36        2.1149   -20.8414    13.3663 H          1 BB1          0.0000
    37 H37        0.9604   -22.0352    12.7251 H          1 BB1          0.0000
    38 O1        -0.4982   -18.1512    14.2912 O.2        2 BB2          0.0000
    39 C2         0.0521   -17.1031    13.9993 C.2        2 BB2          0.0000
    40 C4        -0.0561   -16.5601    12.5977 C.3        2 BB2          0.0000
    41 C5        -0.7005   -15.1561    12.5969 C.3        2 BB2          0.0000
    42 N6        -0.0085   -14.4083    11.5405 N.am       2 BB2          0.0000
    43 C7         1.1450   -15.0056    11.1949 C.2        2 BB2          0.0000
    44 O8         1.9150   -14.5946    10.3527 O.2        2 BB2          0.0000
    45 C9         1.3430   -16.2652    12.0090 C.3        2 BB2          0.0000
    46 C10       -0.4881   -13.2244    10.9668 C.ar       2 BB2          0.0000
    47 C11       -1.3208   -12.3865    11.6960 C.ar       2 BB2          0.0000
    48 C12       -1.7932   -11.2183    11.1294 C.ar       2 BB2          0.0000
    49 C13       -1.4376   -10.8823     9.8348 C.ar       2 BB2          0.0000
    50 F14       -1.9008    -9.7395     9.2829 F          2 BB2          0.0000
    51 C15       -0.6058   -11.7175     9.1037 C.ar       2 BB2          0.0000
    52 F16       -0.2592   -11.3879     7.8401 F          2 BB2          0.0000
    53 C17       -0.1267   -12.8845     9.6699 C.ar       2 BB2          0.0000
    54 H18       -0.6126   -17.2451    11.9580 H          2 BB2          0.0000
    55 H19       -1.7645   -15.2296    12.3720 H          2 BB2          0.0000
    56 H20       -0.5507   -14.6718    13.5619 H          2 BB2          0.0000
    57 H21        2.0645   -16.0936    12.8079 H          2 BB2          0.0000
    58 H22        1.6685   -17.0856    11.3694 H          2 BB2          0.0000
    59 H23       -1.5995   -12.6479    12.7061 H          2 BB2          0.0000
    60 H24       -2.4410   -10.5667    11.6971 H          2 BB2          0.0000
    61 H25        0.5210   -13.5351     9.1011 H          2 BB2          0.0000
@<TRIPOS>BOND
     1      1      2 1
     2      1     19 1
     3      1     20 1
     4      1     21 1
     5      2      3 1
     6      2      4 1
     7      2      5 1
     8      3     22 1
     9      3     23 1
    10      3     24 1
    11      4     25 1
    12      4     26 1
    13      4     27 1
    14      5      6 1
    15      6      7 2
    16      6      8 am
    17      8      9 1
    18      8     18 1
    19      9     10 1
    20      9     28 1
    21      9     29 1
    22     10     11 1
    23     10     30 1
    24     10     31 1
    25     11     12 1
    26     12     13 ar
    27     12     17 ar
    28     13     14 ar
    29     13     32 1
    30     14     15 ar
    31     14     33 1
    32     15     16 ar
    33     15     34 1
    34     16     17 ar
    35     16     35 1
    36     17     18 1
    37     18     36 1
    38     18     37 1
    39     38     39 2
    40     39     40 1
    41     40     41 1
    42     40     45 1
    43     40     54 1
    44     41     42 1
    45     41     55 1
    46     41     56 1
    47     42     43 am
    48     42     46 1
    49     43     44 2
    50     43     45 1
    51     45     57 1
    52     45     58 1
    53     46     47 ar
    54     46     53 ar
    55     47     48 ar
    56     47     59 1
    57     48     49 ar
    58     48     60 1
    59     49     50 1
    60     49     51 ar
    61     51     52 1
    62     51     53 ar
    63     53     61 1
    64     11     39 am
@<TRIPOS>SUBSTRUCTURE
     1 BB1          11
     2 BB2          39
@<TRIPOS>MOLECULE
EN300-67628_i001_EN300-43851_i001_13_17_1
  59   62   2   0   0
SMALL
USER_CHARGES
@<TRIPOS>ATOM
     1 C1        -2.4975   -24.3281    12.5980 C.3        1 BB1          0.0000
     2 C2        -2.1858   -23.5776    13.8943 C.3        1 BB1          0.0000
     3 C3        -3.2630   -22.5198    14.1429 C.3        1 BB1          0.0000
     4 C4        -2.1619   -24.5654    15.0624 C.3        1 BB1          0.0000
     5 O5        -0.8905   -22.9315    13.7801 O.3        1 BB1          0.0000
     6 C6        -0.5438   -22.0790    14.7628 C.2        1 BB1          0.0000
     7 O7        -1.0874   -22.1486    15.8473 O.2        1 BB1          0.0000
     8 N8         0.4063   -21.1485    14.5437 N.am       1 BB1          0.0000
     9 C9         0.7763   -20.2252    15.6205 C.3        1 BB1          0.0000
    10 C10        0.4032   -18.7960    15.2718 C.3        1 BB1          0.0000
    11 N11        1.1086   -18.3806    14.0489 N.am       1 BB1          0.0000
    12 C12        0.5198   -18.6654    12.8201 C.ar       1 BB1          0.0000
    13 C13        0.0447   -17.6474    12.0044 C.ar       1 BB1          0.0000
    14 C14       -0.5849   -17.9577    10.8144 C.ar       1 BB1          0.0000
    15 C15       -0.7478   -19.2770    10.4338 C.ar       1 BB1          0.0000
    16 C16       -0.2566   -20.2956    11.2336 C.ar       1 BB1          0.0000
    17 C17        0.3939   -19.9884    12.4059 C.ar       1 BB1          0.0000
    18 C18        1.0588   -21.0773    13.2360 C.3        1 BB1          0.0000
    19 H19       -2.5146   -23.6243    11.7659 H          1 BB1          0.0000
    20 H20       -1.7301   -25.0815    12.4209 H          1 BB1          0.0000
    21 H21       -3.4700   -24.8130    12.6838 H          1 BB1          0.0000
    22 H22       -4.2354   -23.0048    14.2287 H          1 BB1          0.0000
    23 H23       -3.0410   -21.9852    15.0664 H          1 BB1          0.0000
    24 H24       -3.2801   -21.8160    13.3107 H          1 BB1          0.0000
    25 H25       -1.3944   -25.3189    14.8853 H          1 BB1          0.0000
    26 H26       -1.9397   -24.0307    15.9859 H          1 BB1          0.0000
    27 H27       -3.1342   -25.0503    15.1482 H          1 BB1          0.0000
    28 H28        0.2587   -20.5166    16.5345 H          1 BB1          0.0000
    29 H29        1.8521   -20.2831    15.7867 H          1 BB1          0.0000
    30 H30       -0.6726   -18.7319    15.1090 H          1 BB1          0.0000
    31 H31        0.6841   -18.1374    16.0935 H          1 BB1          0.0000
    32 H32        0.1665   -16.6157    12.2996 H          1 BB1          0.0000
    33 H33       -0.9519   -17.1659    10.1784 H          1 BB1          0.0000
    34 H34       -1.2583   -19.5134     9.5119 H          1 BB1          0.0000
    35 H35       -0.3839   -21.3266    10.9381 H          1 BB1          0.0000
    36 H36        2.1149   -20.8414    13.3663 H          1 BB1          0.0000
    37 H37        0.9604   -22.0352    12.7251 H          1 BB1          0.0000
    38 C1        -0.7700   -15.3204    14.0246 C.3        2 BB2          0.0000
    39 C2         0.0727   -15.1101    12.7931 C.2        2 BB2          0.0000
    40 N3        -0.2421   -14.3920    11.7410 N.2        2 BB2          0.0000
    41 N4         0.8308   -14.4777    10.8442 N.pl3      2 BB2          0.0000
    42 N5         1.7450   -15.2240    11.3580 N.2        2 BB2          0.0000
    43 C6         1.3531   -15.6405    12.5500 C.2        2 BB2          0.0000
    44 C7         2.1177   -16.5138    13.4588 C.2        2 BB2          0.0000
    45 O8         1.9473   -16.4375    14.6676 O.2        2 BB2          0.0000
    46 C10        0.8977   -13.8527     9.5916 C.ar       2 BB2          0.0000
    47 C11        0.5259   -12.5215     9.4582 C.ar       2 BB2          0.0000
    48 C12        0.5924   -11.9074     8.2232 C.ar       2 BB2          0.0000
    49 C13        1.0295   -12.6184     7.1179 C.ar       2 BB2          0.0000
    50 F14        1.0943   -12.0159     5.9105 F          2 BB2          0.0000
    51 C15        1.4008   -13.9464     7.2489 C.ar       2 BB2          0.0000
    52 C16        1.3411   -14.5623     8.4834 C.ar       2 BB2          0.0000
    53 H17       -1.4026   -16.1972    13.8866 H          2 BB2          0.0000
    54 H18       -0.1213   -15.4725    14.8873 H          2 BB2          0.0000
    55 H19       -1.3958   -14.4435    14.1908 H          2 BB2          0.0000
    56 H20        0.1845   -11.9668    10.3197 H          2 BB2          0.0000
    57 H21        0.3030   -10.8722     8.1189 H          2 BB2          0.0000
    58 H22        1.7414   -14.4992     6.3859 H          2 BB2          0.0000
    59 H23        1.6311   -15.5977     8.5852 H          2 BB2          0.0000
@<TRIPOS>BOND
     1      1      2 1
     2      1     19 1
     3      1     20 1
     4      1     21 1
     5      2      3 1
     6      2      4 1
     7      2      5 1
     8      3     22 1
     9      3     23 1
    10      3     24 1
    11      4     25 1
    12      4     26 1
    13      4     27 1
    14      5      6 1
    15      6      7 2
    16      6      8 am
    17      8      9 1
    18      8     18 1
    19      9     10 1
    20      9     28 1
    21      9     29 1
    22     10     11 1
    23     10     30 1
    24     10     31 1
    25     11     12 1
    26     12     13 ar
    27     12     17 ar
    28     13     14 ar
    29     13     32 1
    30     14     15 ar
    31     14     33 1
    32     15     16 ar
    33     15     34 1
    34     16     17 ar
    35     16     35 1
    36     17     18 1
    37     18     36 1
    38     18     37 1
    39     38     39 1
    40     38     53 1
    41     38     54 1
    42     38     55 1
    43     39     40 2
    44     39     43 1
    45     40     41 1
    46     41     42 1
    47     41     46 1
    48     42     43 2
    49     43     44 1
    50     44     45 2
    51     46     47 ar
    52     46     52 ar
    53     47     48 ar
    54     47     56 1
    55     48     49 ar
    56     48     57 1
    57     49     50 1
    58     49     51 ar
    59     51     52 ar
    60     51     58 1
    61     52     59 1
    62     11     44 am
@<TRIPOS>SUBSTRUCTURE
     1 BB1          11
     2 BB2          44
@<TRIPOS>MOLECULE
EN300-67628_i001_EN300-43851_i001_13_9_1
  59   62   2   0   0
SMALL
USER_CHARGES
@<TRIPOS>ATOM
     1 C1        -2.4975   -24.3281    12.5980 C.3        1 BB1          0.0000
     2 C2        -2.1858   -23.5776    13.8943 C.3        1 BB1          0.0000
     3 C3        -3.2630   -22.5198    14.1429 C.3        1 BB1          0.0000
     4 C4        -2.1619   -24.5654    15.0624 C.3        1 BB1          0.0000
     5 O5        -0.8905   -22.9315    13.7801 O.3        1 BB1          0.0000
     6 C6        -0.5438   -22.0790    14.7628 C.2        1 BB1          0.0000
     7 O7        -1.0874   -22.1486    15.8473 O.2        1 BB1          0.0000
     8 N8         0.4063   -21.1485    14.5437 N.am       1 BB1          0.0000
     9 C9         0.7763   -20.2252    15.6205 C.3        1 BB1          0.0000
    10 C10        0.4032   -18.7960    15.2718 C.3        1 BB1          0.0000
    11 N11        1.1086   -18.3806    14.0489 N.am       1 BB1          0.0000
    12 C12        0.5198   -18.6654    12.8201 C.ar       1 BB1          0.0000
    13 C13        0.0447   -17.6474    12.0044 C.ar       1 BB1          0.0000
    14 C14       -0.5849   -17.9577    10.8144 C.ar       1 BB1          0.0000
    15 C15       -0.7478   -19.2770    10.4338 C.ar       1 BB1          0.0000
    16 C16       -0.2566   -20.2956    11.2336 C.ar       1 BB1          0.0000
    17 C17        0.3939   -19.9884    12.4059 C.ar       1 BB1          0.0000
    18 C18        1.0588   -21.0773    13.2360 C.3        1 BB1          0.0000
    19 H19       -2.5146   -23.6243    11.7659 H          1 BB1          0.0000
    20 H20       -1.7301   -25.0815    12.4209 H          1 BB1          0.0000
    21 H21       -3.4700   -24.8130    12.6838 H          1 BB1          0.0000
    22 H22       -4.2354   -23.0048    14.2287 H          1 BB1          0.0000
    23 H23       -3.0410   -21.9852    15.0664 H          1 BB1          0.0000
    24 H24       -3.2801   -21.8160    13.3107 H          1 BB1          0.0000
    25 H25       -1.3944   -25.3189    14.8853 H          1 BB1          0.0000
    26 H26       -1.9397   -24.0307    15.9859 H          1 BB1          0.0000
    27 H27       -3.1342   -25.0503    15.1482 H          1 BB1          0.0000
    28 H28        0.2587   -20.5166    16.5345 H          1 BB1          0.0000
    29 H29        1.8521   -20.2831    15.7867 H          1 BB1          0.0000
    30 H30       -0.6726   -18.7319    15.1090 H          1 BB1          0.0000
    31 H31        0.6841   -18.1374    16.0935 H          1 BB1          0.0000
    32 H32        0.1665   -16.6157    12.2996 H          1 BB1          0.0000
    33 H33       -0.9519   -17.1659    10.1784 H          1 BB1          0.0000
    34 H34       -1.2583   -19.5134     9.5119 H          1 BB1          0.0000
    35 H35       -0.3839   -21.3266    10.9381 H          1 BB1          0.0000
    36 H36        2.1149   -20.8414    13.3663 H          1 BB1          0.0000
    37 H37        0.9604   -22.0352    12.7251 H          1 BB1          0.0000
    38 C1         2.8924   -17.0996    13.3459 C.3        2 BB2          0.0000
    39 C2         1.9915   -16.2030    12.5364 C.2        2 BB2          0.0000
    40 N3         2.3004   -15.5793    11.4241 N.2        2 BB2          0.0000
    41 N4         1.1657   -14.8631    11.0211 N.pl3      2 BB2          0.0000
    42 N5         0.2221   -15.0631    11.8735 N.2        2 BB2          0.0000
    43 C6         0.6531   -15.8762    12.8227 C.2        2 BB2          0.0000
    44 C7        -0.1270   -16.3487    13.9809 C.2        2 BB2          0.0000
    45 O9        -0.5696   -17.4887    13.9961 O.2        2 BB2          0.0000
    46 C10        1.0731   -14.0598     9.8765 C.ar       2 BB2          0.0000
    47 C11        1.5540   -14.5252     8.6598 C.ar       2 BB2          0.0000
    48 C12        1.4619   -13.7322     7.5332 C.ar       2 BB2          0.0000
    49 C13        0.8904   -12.4733     7.6161 C.ar       2 BB2          0.0000
    50 F14        0.8009   -11.6990     6.5126 F          2 BB2          0.0000
    51 C15        0.4103   -12.0072     8.8288 C.ar       2 BB2          0.0000
    52 C16        0.4953   -12.7996     9.9565 C.ar       2 BB2          0.0000
    53 H17        3.4284   -16.5044    14.0851 H          2 BB2          0.0000
    54 H18        2.2923   -17.8549    13.8536 H          2 BB2          0.0000
    55 H19        3.6080   -17.5883    12.6847 H          2 BB2          0.0000
    56 H20        2.0000   -15.5067     8.5948 H          2 BB2          0.0000
    57 H21        1.8361   -14.0937     6.5868 H          2 BB2          0.0000
    58 H22       -0.0350   -11.0253     8.8915 H          2 BB2          0.0000
    59 H23        0.1204   -12.4360    10.9019 H          2 BB2          0.0000
@<TRIPOS>BOND
     1      1      2 1
     2      1     19 1
     3      1     20 1
     4      1     21 1
     5      2      3 1
     6      2      4 1
     7      2      5 1
     8      3     22 1
     9      3     23 1
    10      3     24 1
    11      4     25 1
    12      4     26 1
    13      4     27 1
    14      5      6 1
    15      6      7 2
    16      6      8 am
    17      8      9 1
    18      8     18 1
    19      9     10 1
    20      9     28 1
    21      9     29 1
    22     10     11 1
    23     10     30 1
    24     10     31 1
    25     11     12 1
    26     12     13 ar
    27     12     17 ar
    28     13     14 ar
    29     13     32 1
    30     14     15 ar
    31     14     33 1
    32     15     16 ar
    33     15     34 1
    34     16     17 ar
    35     16     35 1
    36     17     18 1
    37     18     36 1
    38     18     37 1
    39     38     39 1
    40     38     53 1
    41     38     54 1
    42     38     55 1
    43     39     40 2
    44     39     43 1
    45     40     41 1
    46     41     42 1
    47     41     46 1
    48     42     43 2
    49     43     44 1
    50     44     45 2
    51     46     47 ar
    52     46     52 ar
    53     47     48 ar
    54     47     56 1
    55     48     49 ar
    56     48     57 1
    57     49     50 1
    58     49     51 ar
    59     51     52 ar
    60     51     58 1
    61     52     59 1
    62     11     44 am
@<TRIPOS>SUBSTRUCTURE
     1 BB1          11
     2 BB2          44
@<TRIPOS>MOLECULE
EN300-67628_i001_EN300-206926_i001_13_19_1
  52   53   2   0   0
SMALL
USER_CHARGES
@<TRIPOS>ATOM
     1 C1        -2.4975   -24.3281    12.5980 C.3        1 BB1          0.0000
     2 C2        -2.1858   -23.5776    13.8943 C.3        1 BB1          0.0000
     3 C3        -3.2630   -22.5198    14.1429 C.3        1 BB1          0.0000
     4 C4        -2.1619   -24.5654    15.0624 C.3        1 BB1          0.0000
     5 O5        -0.8905   -22.9315    13.7801 O.3        1 BB1          0.0000
     6 C6        -0.5438   -22.0790    14.7628 C.2        1 BB1          0.0000
     7 O7        -1.0874   -22.1486    15.8473 O.2        1 BB1          0.0000
     8 N8         0.4063   -21.1485    14.5437 N.am       1 BB1          0.0000
     9 C9         0.7763   -20.2252    15.6205 C.3        1 BB1          0.0000
    10 C10        0.4032   -18.7960    15.2718 C.3        1 BB1          0.0000
    11 N11        1.1086   -18.3806    14.0489 N.am       1 BB1          0.0000
    12 C12        0.5198   -18.6654    12.8201 C.ar       1 BB1          0.0000
    13 C13        0.0447   -17.6474    12.0044 C.ar       1 BB1          0.0000
    14 C14       -0.5849   -17.9577    10.8144 C.ar       1 BB1          0.0000
    15 C15       -0.7478   -19.2770    10.4338 C.ar       1 BB1          0.0000
    16 C16       -0.2566   -20.2956    11.2336 C.ar       1 BB1          0.0000
    17 C17        0.3939   -19.9884    12.4059 C.ar       1 BB1          0.0000
    18 C18        1.0588   -21.0773    13.2360 C.3        1 BB1          0.0000
    19 H19       -2.5146   -23.6243    11.7659 H          1 BB1          0.0000
    20 H20       -1.7301   -25.0815    12.4209 H          1 BB1          0.0000
    21 H21       -3.4700   -24.8130    12.6838 H          1 BB1          0.0000
    22 H22       -4.2354   -23.0048    14.2287 H          1 BB1          0.0000
    23 H23       -3.0410   -21.9852    15.0664 H          1 BB1          0.0000
    24 H24       -3.2801   -21.8160    13.3107 H          1 BB1          0.0000
    25 H25       -1.3944   -25.3189    14.8853 H          1 BB1          0.0000
    26 H26       -1.9397   -24.0307    15.9859 H          1 BB1          0.0000
    27 H27       -3.1342   -25.0503    15.1482 H          1 BB1          0.0000
    28 H28        0.2587   -20.5166    16.5345 H          1 BB1          0.0000
    29 H29        1.8521   -20.2831    15.7867 H          1 BB1          0.0000
    30 H30       -0.6726   -18.7319    15.1090 H          1 BB1          0.0000
    31 H31        0.6841   -18.1374    16.0935 H          1 BB1          0.0000
    32 H32        0.1665   -16.6157    12.2996 H          1 BB1          0.0000
    33 H33       -0.9519   -17.1659    10.1784 H          1 BB1          0.0000
    34 H34       -1.2583   -19.5134     9.5119 H          1 BB1          0.0000
    35 H35       -0.3839   -21.3266    10.9381 H          1 BB1          0.0000
    36 H36        2.1149   -20.8414    13.3663 H          1 BB1          0.0000
    37 H37        0.9604   -22.0352    12.7251 H          1 BB1          0.0000
    38 C1         0.9340   -14.4334     7.4760 C.3        2 BB2          0.0000
    39 C2         0.7101   -13.9092     8.8711 C.2        2 BB2          0.0000
    40 O3        -0.2018   -13.1399     9.0910 O.2        2 BB2          0.0000
    41 S4         1.7426   -14.3997    10.1456 S.3        2 BB2          0.0000
    42 C5         0.5129   -14.9753    11.3425 C.3        2 BB2          0.0000
    43 C6         1.1850   -15.8998    12.3596 C.3        2 BB2          0.0000
    44 C7         0.1895   -16.2839    13.4239 C.2        2 BB2          0.0000
    45 O8        -0.7898   -16.9486    13.1313 O.2        2 BB2          0.0000
    46 H10        1.6098   -13.7659     6.9413 H          2 BB2          0.0000
    47 H11        1.3731   -15.4296     7.5282 H          2 BB2          0.0000
    48 H12       -0.0191   -14.4835     6.9494 H          2 BB2          0.0000
    49 H13        0.0809   -14.1187    11.8600 H          2 BB2          0.0000
    50 H14       -0.2744   -15.5197    10.8212 H          2 BB2          0.0000
    51 H15        1.5414   -16.7976    11.8546 H          2 BB2          0.0000
    52 H16        2.0272   -15.3829    12.8194 H          2 BB2          0.0000
@<TRIPOS>BOND
     1      1      2 1
     2      1     19 1
     3      1     20 1
     4      1     21 1
     5      2      3 1
     6      2      4 1
     7      2      5 1
     8      3     22 1
     9      3     23 1
    10      3     24 1
    11      4     25 1
    12      4     26 1
    13      4     27 1
    14      5      6 1
    15      6      7 2
    16      6      8 am
    17      8      9 1
    18      8     18 1
    19      9     10 1
    20      9     28 1
    21      9     29 1
    22     10     11 1
    23     10     30 1
    24     10     31 1
    25     11     12 1
    26     12     13 ar
    27     12     17 ar
    28     13     14 ar
    29     13     32 1
    30     14     15 ar
    31     14     33 1
    32     15     16 ar
    33     15     34 1
    34     16     17 ar
    35     16     35 1
    36     17     18 1
    37     18     36 1
    38     18     37 1
    39     38     39 1
    40     38     46 1
    41     38     47 1
    42     38     48 1
    43     39     40 2
    44     39     41 1
    45     41     42 1
    46     42     43 1
    47     42     49 1
    48     42     50 1
    49     43     44 1
    50     43     51 1
    51     43     52 1
    52     44     45 2
    53     11     44 am
@<TRIPOS>SUBSTRUCTURE
     1 BB1          11
     2 BB2          44
@<TRIPOS>MOLECULE
EN300-67628_i001_EN300-1165841_i001_16_9_1
  65   67   2   0   0
SMALL
USER_CHARGES
@<TRIPOS>ATOM
     1 C1        -1.9639   -22.8422    15.5809 C.3        1 BB1          0.0000
     2 C2        -1.3808   -23.2632    14.2305 C.3        1 BB1          0.0000
     3 C3        -0.7129   -24.6329    14.3681 C.3        1 BB1          0.0000
     4 C4        -2.5029   -23.3449    13.1937 C.3        1 BB1          0.0000
     5 O5        -0.3963   -22.2856    13.8024 O.3        1 BB1          0.0000
     6 C6        -0.8627   -21.1087    13.3441 C.2        1 BB1          0.0000
     7 O7        -1.9107   -20.6637    13.7686 O.2        1 BB1          0.0000
     8 N8        -0.1671   -20.4241    12.4146 N.am       1 BB1          0.0000
     9 C9         1.0961   -20.9700    11.9093 C.3        1 BB1          0.0000
    10 C10        2.2705   -20.0928    12.3026 C.3        1 BB1          0.0000
    11 N11        2.0961   -18.7441    11.7403 N.am       1 BB1          0.0000
    12 C12        1.3623   -17.8151    12.4726 C.ar       1 BB1          0.0000
    13 C13        1.9756   -16.6999    13.0271 C.ar       1 BB1          0.0000
    14 C14        1.2373   -15.8207    13.7957 C.ar       1 BB1          0.0000
    15 C15       -0.1082   -16.0481    14.0188 C.ar       1 BB1          0.0000
    16 C16       -0.7296   -17.1477    13.4501 C.ar       1 BB1          0.0000
    17 C17       -0.0027   -18.0101    12.6628 C.ar       1 BB1          0.0000
    18 C18       -0.6859   -19.1490    11.9190 C.3        1 BB1          0.0000
    19 H19       -1.1644   -22.7841    16.3196 H          1 BB1          0.0000
    20 H20       -2.4396   -21.8664    15.4830 H          1 BB1          0.0000
    21 H21       -2.7029   -23.5762    15.9024 H          1 BB1          0.0000
    22 H22       -1.4520   -25.3668    14.6895 H          1 BB1          0.0000
    23 H23       -0.2976   -24.9329    13.4060 H          1 BB1          0.0000
    24 H24        0.0865   -24.5748    15.1067 H          1 BB1          0.0000
    25 H25       -2.9787   -22.3691    13.0957 H          1 BB1          0.0000
    26 H26       -2.0875   -23.6448    12.2316 H          1 BB1          0.0000
    27 H27       -3.2420   -24.0787    13.5150 H          1 BB1          0.0000
    28 H28        1.2432   -21.9690    12.3199 H          1 BB1          0.0000
    29 H29        1.0475   -21.0353    10.8223 H          1 BB1          0.0000
    30 H30        2.3262   -20.0278    13.3892 H          1 BB1          0.0000
    31 H31        3.1929   -20.5287    11.9190 H          1 BB1          0.0000
    32 H32        3.0271   -16.5204    12.8585 H          1 BB1          0.0000
    33 H33        1.7136   -14.9516    14.2247 H          1 BB1          0.0000
    34 H34       -0.6752   -15.3677    14.6367 H          1 BB1          0.0000
    35 H35       -1.7803   -17.3272    13.6241 H          1 BB1          0.0000
    36 H36       -0.4816   -19.0605    10.8520 H          1 BB1          0.0000
    37 H37       -1.7616   -19.1005    12.0887 H          1 BB1          0.0000
    38 C1        -0.4775   -18.1700    10.2903 C.3        2 BB2          0.0000
    39 C2        -0.3453   -16.7630    10.8767 C.3        2 BB2          0.0000
    40 N3         0.3038   -15.8828     9.8960 N.4        2 BB2          1.0000
    41 C4         0.2669   -14.4986    10.3832 C.3        2 BB2          0.0000
    42 C5         1.0128   -13.5892     9.4043 C.3        2 BB2          0.0000
    43 C6         0.3403   -13.6667     8.0306 C.3        2 BB2          0.0000
    44 O7        -0.9980   -13.1748     8.1253 O.3        2 BB2          0.0000
    45 C8         0.3180   -15.1256     7.5655 C.3        2 BB2          0.0000
    46 C9        -0.4021   -15.9780     8.6126 C.3        2 BB2          0.0000
    47 C10        1.0969   -12.8523     7.0656 C.1        2 BB2          0.0000
    48 C11        1.7003   -12.2027     6.2959 C.1        2 BB2          0.0000
    49 C12        0.4877   -16.8178    12.1313 C.2        2 BB2          0.0000
    50 O13        0.9510   -17.8803    12.5095 O.2        2 BB2          0.0000
    51 H15        0.5126   -18.5589    10.0524 H          2 BB2          0.0000
    52 H16       -0.9591   -18.8231    11.0180 H          2 BB2          0.0000
    53 H17       -1.0800   -18.1303     9.3829 H          2 BB2          0.0000
    54 H18       -1.3354   -16.3740    11.1147 H          2 BB2          0.0000
    55 H19       -0.7692   -14.1705    10.4658 H          2 BB2          0.0000
    56 H20        0.7430   -14.4457    11.3623 H          2 BB2          0.0000
    57 H21        0.9827   -12.5618     9.7668 H          2 BB2          0.0000
    58 H22        2.0492   -13.9164     9.3211 H          2 BB2          0.0000
    59 H23       -0.2086   -15.1963     6.6138 H          2 BB2          0.0000
    60 H24        1.3401   -15.4846     7.4442 H          2 BB2          0.0000
    61 H25       -0.4200   -17.0173     8.2846 H          2 BB2          0.0000
    62 H26       -1.4240   -15.6184     8.7329 H          2 BB2          0.0000
    63 H27        2.2399   -11.6219     5.6077 H          2 BB2          0.0000
    64 H28       -1.1530   -12.6008     8.8879 H          2 BB2          0.0000
    65 H29        1.2633   -16.1691     9.7718 H          2 BB2          0.0000
@<TRIPOS>BOND
     1      1      2 1
     2      1     19 1
     3      1     20 1
     4      1     21 1
     5      2      3 1
     6      2      4 1
     7      2      5 1
     8      3     22 1
     9      3     23 1
    10      3     24 1
    11      4     25 1
    12      4     26 1
    13      4     27 1
    14      5      6 1
    15      6      7 2
    16      6      8 am
    17      8      9 1
    18      8     18 1
    19      9     10 1
    20      9     28 1
    21      9     29 1
    22     10     11 1
    23     10     30 1
    24     10     31 1
    25     11     12 1
    26     12     13 ar
    27     12     17 ar
    28     13     14 ar
    29     13     32 1
    30     14     15 ar
    31     14     33 1
    32     15     16 ar
    33     15     34 1
    34     16     17 ar
    35     16     35 1
    36     17     18 1
    37     18     36 1
    38     18     37 1
    39     38     39 1
    40     38     51 1
    41     38     52 1
    42     38     53 1
    43     39     40 1
    44     39     49 1
    45     39     54 1
    46     40     41 1
    47     40     46 1
    48     40     65 1
    49     41     42 1
    50     41     55 1
    51     41     56 1
    52     42     43 1
    53     42     57 1
    54     42     58 1
    55     43     44 1
    56     43     45 1
    57     43     47 1
    58     44     64 1
    59     45     46 1
    60     45     59 1
    61     45     60 1
    62     46     61 1
    63     46     62 1
    64     47     48 3
    65     48     63 1
    66     49     50 2
    67     11     49 am
@<TRIPOS>SUBSTRUCTURE
     1 BB1          11
     2 BB2          49
@<TRIPOS>MOLECULE
EN300-67628_i001_EN300-344045_i001_17_4_1
  66   69   2   0   0
SMALL
USER_CHARGES
@<TRIPOS>ATOM
     1 C1        -0.0833   -10.6541     8.6396 C.3        1 BB1          0.0000
     2 C2        -0.7181   -11.0129     9.9846 C.3        1 BB1          0.0000
     3 C3        -0.1759   -10.0801    11.0695 C.3        1 BB1          0.0000
     4 C4        -2.2370   -10.8561     9.8898 C.3        1 BB1          0.0000
     5 O5        -0.3934   -12.3874    10.3218 O.3        1 BB1          0.0000
     6 C6        -0.5498   -13.3080     9.3518 C.2        1 BB1          0.0000
     7 O7        -1.3225   -13.1015     8.4371 O.2        1 BB1          0.0000
     8 N8         0.1510   -14.4585     9.3954 N.am       1 BB1          0.0000
     9 C9        -0.0267   -15.4541     8.3343 C.3        1 BB1          0.0000
    10 C10       -0.6506   -16.7279     8.8743 C.3        1 BB1          0.0000
    11 N11        0.2196   -17.3101     9.9084 N.am       1 BB1          0.0000
    12 C12        0.0692   -16.8695    11.2203 C.ar       1 BB1          0.0000
    13 C13       -0.4206   -17.7168    12.2049 C.ar       1 BB1          0.0000
    14 C14       -0.6126   -17.2408    13.4876 C.ar       1 BB1          0.0000
    15 C15       -0.3235   -15.9241    13.7946 C.ar       1 BB1          0.0000
    16 C16        0.1856   -15.0804    12.8211 C.ar       1 BB1          0.0000
    17 C17        0.4026   -15.5588    11.5500 C.ar       1 BB1          0.0000
    18 C18        1.0832   -14.6944    10.4981 C.3        1 BB1          0.0000
    19 H19        0.9988   -10.7658     8.7072 H          1 BB1          0.0000
    20 H20       -0.4695   -11.3187     7.8668 H          1 BB1          0.0000
    21 H21       -0.3270    -9.6222     8.3866 H          1 BB1          0.0000
    22 H22       -0.4196    -9.0483    10.8165 H          1 BB1          0.0000
    23 H23       -0.6281   -10.3358    12.0277 H          1 BB1          0.0000
    24 H24        0.9063   -10.1918    11.1371 H          1 BB1          0.0000
    25 H25       -2.6232   -11.5207     9.1169 H          1 BB1          0.0000
    26 H26       -2.6892   -11.1118    10.8480 H          1 BB1          0.0000
    27 H27       -2.4808    -9.8243     9.6367 H          1 BB1          0.0000
    28 H28       -0.6732   -15.0400     7.5605 H          1 BB1          0.0000
    29 H29        0.9445   -15.6891     7.8987 H          1 BB1          0.0000
    30 H30       -1.6244   -16.4990     9.3072 H          1 BB1          0.0000
    31 H31       -0.7757   -17.4431     8.0614 H          1 BB1          0.0000
    32 H32       -0.6513   -18.7450    11.9686 H          1 BB1          0.0000
    33 H33       -0.9908   -17.9007    14.2544 H          1 BB1          0.0000
    34 H34       -0.4944   -15.5531    14.7944 H          1 BB1          0.0000
    35 H35        0.4112   -14.0513    13.0592 H          1 BB1          0.0000
    36 H36        1.9699   -15.2067    10.1247 H          1 BB1          0.0000
    37 H37        1.3734   -13.7422    10.9423 H          1 BB1          0.0000
    38 C2        -0.6967   -18.0795    11.7246 C.2        2 BB2          0.0000
    39 O3        -0.4217   -17.7362    10.5874 O.2        2 BB2          0.0000
    40 C4        -0.7278   -19.5429    12.0833 C.3        2 BB2          0.0000
    41 C5         0.4242   -19.8581    13.0395 C.3        2 BB2          0.0000
    42 C6         1.7722   -19.5057    12.3772 C.3        2 BB2          0.0000
    43 C7         2.0894   -18.0813    12.8961 C.3        2 BB2          0.0000
    44 C8         1.5989   -18.1352    14.3643 C.3        2 BB2          0.0000
    45 C9         0.3140   -18.9868    14.3029 C.3        2 BB2          0.0000
    46 C10        0.3990   -21.3177    13.4139 C.ar       2 BB2          0.0000
    47 C11       -0.6944   -22.0969    13.0851 C.ar       2 BB2          0.0000
    48 C12       -0.7175   -23.4356    13.4286 C.ar       2 BB2          0.0000
    49 C13        0.3532   -23.9954    14.1005 C.ar       2 BB2          0.0000
    50 C14        1.4470   -23.2164    14.4285 C.ar       2 BB2          0.0000
    51 C15        1.4719   -21.8786    14.0811 C.ar       2 BB2          0.0000
    52 H16       -1.6760   -19.7785    12.5666 H          2 BB2          0.0000
    53 H17       -0.6228   -20.1411    11.1781 H          2 BB2          0.0000
    54 H18        2.5458   -20.2068    12.6902 H          2 BB2          0.0000
    55 H19        1.6748   -19.5033    11.2915 H          2 BB2          0.0000
    56 H20        3.1607   -17.8843    12.8537 H          2 BB2          0.0000
    57 H21        1.5351   -17.3319    12.3310 H          2 BB2          0.0000
    58 H22        2.3446   -18.6150    14.9983 H          2 BB2          0.0000
    59 H23        1.3751   -17.1327    14.7288 H          2 BB2          0.0000
    60 H24       -0.5601   -18.3393    14.2348 H          2 BB2          0.0000
    61 H25        0.2426   -19.6193    15.1876 H          2 BB2          0.0000
    62 H26       -1.5309   -21.6596    12.5603 H          2 BB2          0.0000
    63 H27       -1.5721   -24.0442    13.1725 H          2 BB2          0.0000
    64 H28        0.3349   -25.0411    14.3695 H          2 BB2          0.0000
    65 H29        2.2834   -23.6535    14.9537 H          2 BB2          0.0000
    66 H30        2.3266   -21.2699    14.3374 H          2 BB2          0.0000
@<TRIPOS>BOND
     1      1      2 1
     2      1     19 1
     3      1     20 1
     4      1     21 1
     5      2      3 1
     6      2      4 1
     7      2      5 1
     8      3     22 1
     9      3     23 1
    10      3     24 1
    11      4     25 1
    12      4     26 1
    13      4     27 1
    14      5      6 1
    15      6      7 2
    16      6      8 am
    17      8      9 1
    18      8     18 1
    19      9     10 1
    20      9     28 1
    21      9     29 1
    22     10     11 1
    23     10     30 1
    24     10     31 1
    25     11     12 1
    26     12     13 ar
    27     12     17 ar
    28     13     14 ar
    29     13     32 1
    30     14     15 ar
    31     14     33 1
    32     15     16 ar
    33     15     34 1
    34     16     17 ar
    35     16     35 1
    36     17     18 1
    37     18     36 1
    38     18     37 1
    39     38     39 2
    40     38     40 1
    41     40     41 1
    42     40     52 1
    43     40     53 1
    44     41     42 1
    45     41     45 1
    46     41     46 1
    47     42     43 1
    48     42     54 1
    49     42     55 1
    50     43     44 1
    51     43     56 1
    52     43     57 1
    53     44     45 1
    54     44     58 1
    55     44     59 1
    56     45     60 1
    57     45     61 1
    58     46     47 ar
    59     46     51 ar
    60     47     48 ar
    61     47     62 1
    62     48     49 ar
    63     48     63 1
    64     49     50 ar
    65     49     64 1
    66     50     51 ar
    67     50     65 1
    68     51     66 1
    69     11     38 am
@<TRIPOS>SUBSTRUCTURE
     1 BB1          11
     2 BB2          38
@<TRIPOS>MOLECULE
EN300-67628_i001_EN300-1165841_i001_2_9_1
  65   67   2   0   0
SMALL
USER_CHARGES
@<TRIPOS>ATOM
     1 C1        -2.4413   -23.5932    15.0970 C.3        1 BB1          0.0000
     2 C2        -0.9202   -23.4658    14.9934 C.3        1 BB1          0.0000
     3 C3        -0.3967   -22.6367    16.1679 C.3        1 BB1          0.0000
     4 C4        -0.2880   -24.8586    15.0304 C.3        1 BB1          0.0000
     5 O5        -0.5733   -22.8097    13.7453 O.3        1 BB1          0.0000
     6 C6        -0.9370   -21.5204    13.6108 C.2        1 BB1          0.0000
     7 O7        -1.7388   -21.0316    14.3820 O.2        1 BB1          0.0000
     8 N8        -0.4115   -20.7718    12.6208 N.am       1 BB1          0.0000
     9 C9         0.5550   -21.3713    11.6960 C.3        1 BB1          0.0000
    10 C10        1.9245   -20.7337    11.8425 C.3        1 BB1          0.0000
    11 N11        1.8389   -19.2946    11.5472 N.am       1 BB1          0.0000
    12 C12        1.5010   -18.4286    12.5834 C.ar       1 BB1          0.0000
    13 C13        2.4233   -17.5177    13.0803 C.ar       1 BB1          0.0000
    14 C14        2.0822   -16.7063    14.1453 C.ar       1 BB1          0.0000
    15 C15        0.8288   -16.7999    14.7213 C.ar       1 BB1          0.0000
    16 C16       -0.1023   -17.6920    14.2155 C.ar       1 BB1          0.0000
    17 C17        0.2256   -18.4822    13.1386 C.ar       1 BB1          0.0000
    18 C18       -0.8180   -19.3733    12.4800 C.3        1 BB1          0.0000
    19 H19       -2.8917   -22.6010    15.0706 H          1 BB1          0.0000
    20 H20       -2.8143   -24.1838    14.2602 H          1 BB1          0.0000
    21 H21       -2.7017   -24.0856    16.0340 H          1 BB1          0.0000
    22 H22       -0.6570   -23.1291    17.1048 H          1 BB1          0.0000
    23 H23        0.6870   -22.5459    16.0941 H          1 BB1          0.0000
    24 H24       -0.8470   -21.6444    16.1415 H          1 BB1          0.0000
    25 H25       -0.6610   -25.4491    14.1936 H          1 BB1          0.0000
    26 H26        0.7956   -24.7677    14.9565 H          1 BB1          0.0000
    27 H27       -0.5484   -25.3510    15.9673 H          1 BB1          0.0000
    28 H28        0.6338   -22.4384    11.9039 H          1 BB1          0.0000
    29 H29        0.2042   -21.2326    10.6733 H          1 BB1          0.0000
    30 H30        2.2820   -20.8735    12.8627 H          1 BB1          0.0000
    31 H31        2.6199   -21.2052    11.1483 H          1 BB1          0.0000
    32 H32        3.4047   -17.4438    12.6358 H          1 BB1          0.0000
    33 H33        2.7985   -15.9956    14.5300 H          1 BB1          0.0000
    34 H34        0.5753   -16.1767    15.5661 H          1 BB1          0.0000
    35 H35       -1.0816   -17.7669    14.6649 H          1 BB1          0.0000
    36 H36       -0.8975   -19.1199    11.4229 H          1 BB1          0.0000
    37 H37       -1.7829   -19.2220    12.9639 H          1 BB1          0.0000
    38 C1        -0.4775   -18.1700    10.2903 C.3        2 BB2          0.0000
    39 C2        -0.3453   -16.7630    10.8767 C.3        2 BB2          0.0000
    40 N3         0.3038   -15.8828     9.8960 N.4        2 BB2          1.0000
    41 C4         0.2669   -14.4986    10.3832 C.3        2 BB2          0.0000
    42 C5         1.0128   -13.5892     9.4043 C.3        2 BB2          0.0000
    43 C6         0.3403   -13.6667     8.0306 C.3        2 BB2          0.0000
    44 O7        -0.9980   -13.1748     8.1253 O.3        2 BB2          0.0000
    45 C8         0.3180   -15.1256     7.5655 C.3        2 BB2          0.0000
    46 C9        -0.4021   -15.9780     8.6126 C.3        2 BB2          0.0000
    47 C10        1.0969   -12.8523     7.0656 C.1        2 BB2          0.0000
    48 C11        1.7003   -12.2027     6.2959 C.1        2 BB2          0.0000
    49 C12        0.4877   -16.8178    12.1313 C.2        2 BB2          0.0000
    50 O13        0.9510   -17.8803    12.5095 O.2        2 BB2          0.0000
    51 H15        0.5126   -18.5589    10.0524 H          2 BB2          0.0000
    52 H16       -0.9591   -18.8231    11.0180 H          2 BB2          0.0000
    53 H17       -1.0800   -18.1303     9.3829 H          2 BB2          0.0000
    54 H18       -1.3354   -16.3740    11.1147 H          2 BB2          0.0000
    55 H19       -0.7692   -14.1705    10.4658 H          2 BB2          0.0000
    56 H20        0.7430   -14.4457    11.3623 H          2 BB2          0.0000
    57 H21        0.9827   -12.5618     9.7668 H          2 BB2          0.0000
    58 H22        2.0492   -13.9164     9.3211 H          2 BB2          0.0000
    59 H23       -0.2086   -15.1963     6.6138 H          2 BB2          0.0000
    60 H24        1.3401   -15.4846     7.4442 H          2 BB2          0.0000
    61 H25       -0.4200   -17.0173     8.2846 H          2 BB2          0.0000
    62 H26       -1.4240   -15.6184     8.7329 H          2 BB2          0.0000
    63 H27        2.2399   -11.6219     5.6077 H          2 BB2          0.0000
    64 H28       -1.1530   -12.6008     8.8879 H          2 BB2          0.0000
    65 H29        1.2633   -16.1691     9.7718 H          2 BB2          0.0000
@<TRIPOS>BOND
     1      1      2 1
     2      1     19 1
     3      1     20 1
     4      1     21 1
     5      2      3 1
     6      2      4 1
     7      2      5 1
     8      3     22 1
     9      3     23 1
    10      3     24 1
    11      4     25 1
    12      4     26 1
    13      4     27 1
    14      5      6 1
    15      6      7 2
    16      6      8 am
    17      8      9 1
    18      8     18 1
    19      9     10 1
    20      9     28 1
    21      9     29 1
    22     10     11 1
    23     10     30 1
    24     10     31 1
    25     11     12 1
    26     12     13 ar
    27     12     17 ar
    28     13     14 ar
    29     13     32 1
    30     14     15 ar
    31     14     33 1
    32     15     16 ar
    33     15     34 1
    34     16     17 ar
    35     16     35 1
    36     17     18 1
    37     18     36 1
    38     18     37 1
    39     38     39 1
    40     38     51 1
    41     38     52 1
    42     38     53 1
    43     39     40 1
    44     39     49 1
    45     39     54 1
    46     40     41 1
    47     40     46 1
    48     40     65 1
    49     41     42 1
    50     41     55 1
    51     41     56 1
    52     42     43 1
    53     42     57 1
    54     42     58 1
    55     43     44 1
    56     43     45 1
    57     43     47 1
    58     44     64 1
    59     45     46 1
    60     45     59 1
    61     45     60 1
    62     46     61 1
    63     46     62 1
    64     47     48 3
    65     48     63 1
    66     49     50 2
    67     11     49 am
@<TRIPOS>SUBSTRUCTURE
     1 BB1          11
     2 BB2          49
@<TRIPOS>MOLECULE
EN300-67628_i001_EN300-43851_i001_2_5_1
  59   62   2   0   0
SMALL
USER_CHARGES
@<TRIPOS>ATOM
     1 C1        -2.4413   -23.5932    15.0970 C.3        1 BB1          0.0000
     2 C2        -0.9202   -23.4658    14.9934 C.3        1 BB1          0.0000
     3 C3        -0.3967   -22.6367    16.1679 C.3        1 BB1          0.0000
     4 C4        -0.2880   -24.8586    15.0304 C.3        1 BB1          0.0000
     5 O5        -0.5733   -22.8097    13.7453 O.3        1 BB1          0.0000
     6 C6        -0.9370   -21.5204    13.6108 C.2        1 BB1          0.0000
     7 O7        -1.7388   -21.0316    14.3820 O.2        1 BB1          0.0000
     8 N8        -0.4115   -20.7718    12.6208 N.am       1 BB1          0.0000
     9 C9         0.5550   -21.3713    11.6960 C.3        1 BB1          0.0000
    10 C10        1.9245   -20.7337    11.8425 C.3        1 BB1          0.0000
    11 N11        1.8389   -19.2946    11.5472 N.am       1 BB1          0.0000
    12 C12        1.5010   -18.4286    12.5834 C.ar       1 BB1          0.0000
    13 C13        2.4233   -17.5177    13.0803 C.ar       1 BB1          0.0000
    14 C14        2.0822   -16.7063    14.1453 C.ar       1 BB1          0.0000
    15 C15        0.8288   -16.7999    14.7213 C.ar       1 BB1          0.0000
    16 C16       -0.1023   -17.6920    14.2155 C.ar       1 BB1          0.0000
    17 C17        0.2256   -18.4822    13.1386 C.ar       1 BB1          0.0000
    18 C18       -0.8180   -19.3733    12.4800 C.3        1 BB1          0.0000
    19 H19       -2.8917   -22.6010    15.0706 H          1 BB1          0.0000
    20 H20       -2.8143   -24.1838    14.2602 H          1 BB1          0.0000
    21 H21       -2.7017   -24.0856    16.0340 H          1 BB1          0.0000
    22 H22       -0.6570   -23.1291    17.1048 H          1 BB1          0.0000
    23 H23        0.6870   -22.5459    16.0941 H          1 BB1          0.0000
    24 H24       -0.8470   -21.6444    16.1415 H          1 BB1          0.0000
    25 H25       -0.6610   -25.4491    14.1936 H          1 BB1          0.0000
    26 H26        0.7956   -24.7677    14.9565 H          1 BB1          0.0000
    27 H27       -0.5484   -25.3510    15.9673 H          1 BB1          0.0000
    28 H28        0.6338   -22.4384    11.9039 H          1 BB1          0.0000
    29 H29        0.2042   -21.2326    10.6733 H          1 BB1          0.0000
    30 H30        2.2820   -20.8735    12.8627 H          1 BB1          0.0000
    31 H31        2.6199   -21.2052    11.1483 H          1 BB1          0.0000
    32 H32        3.4047   -17.4438    12.6358 H          1 BB1          0.0000
    33 H33        2.7985   -15.9956    14.5300 H          1 BB1          0.0000
    34 H34        0.5753   -16.1767    15.5661 H          1 BB1          0.0000
    35 H35       -1.0816   -17.7669    14.6649 H          1 BB1          0.0000
    36 H36       -0.8975   -19.1199    11.4229 H          1 BB1          0.0000
    37 H37       -1.7829   -19.2220    12.9639 H          1 BB1          0.0000
    38 C1        -0.4310   -15.6953    13.9759 C.3        2 BB2          0.0000
    39 C2        -0.1974   -15.7006    12.4871 C.2        2 BB2          0.0000
    40 N3         0.0545   -14.6594    11.7295 N.2        2 BB2          0.0000
    41 N4         0.2015   -15.1272    10.4170 N.pl3      2 BB2          0.0000
    42 N5         0.0399   -16.4041    10.4091 N.2        2 BB2          0.0000
    43 C6        -0.2010   -16.8237    11.6395 C.2        2 BB2          0.0000
    44 C7        -0.4407   -18.2195    12.0491 C.2        2 BB2          0.0000
    45 O8        -0.3694   -19.1197    11.2242 O.2        2 BB2          0.0000
    46 C10        0.4790   -14.3340     9.2955 C.ar       2 BB2          0.0000
    47 C11        0.7135   -12.9737     9.4469 C.ar       2 BB2          0.0000
    48 C12        0.9867   -12.1938     8.3407 C.ar       2 BB2          0.0000
    49 C13        1.0269   -12.7673     7.0807 C.ar       2 BB2          0.0000
    50 F14        1.2947   -12.0027     5.9996 F          2 BB2          0.0000
    51 C15        0.7931   -14.1239     6.9275 C.ar       2 BB2          0.0000
    52 C16        0.5253   -14.9083     8.0321 C.ar       2 BB2          0.0000
    53 H17       -1.4945   -15.5661    14.1763 H          2 BB2          0.0000
    54 H18       -0.0937   -16.6411    14.3999 H          2 BB2          0.0000
    55 H19        0.1263   -14.8750    14.4282 H          2 BB2          0.0000
    56 H20        0.6819   -12.5259    10.4293 H          2 BB2          0.0000
    57 H21        1.1688   -11.1358     8.4580 H          2 BB2          0.0000
    58 H22        0.8249   -14.5694     5.9442 H          2 BB2          0.0000
    59 H23        0.3435   -15.9661     7.9122 H          2 BB2          0.0000
@<TRIPOS>BOND
     1      1      2 1
     2      1     19 1
     3      1     20 1
     4      1     21 1
     5      2      3 1
     6      2      4 1
     7      2      5 1
     8      3     22 1
     9      3     23 1
    10      3     24 1
    11      4     25 1
    12      4     26 1
    13      4     27 1
    14      5      6 1
    15      6      7 2
    16      6      8 am
    17      8      9 1
    18      8     18 1
    19      9     10 1
    20      9     28 1
    21      9     29 1
    22     10     11 1
    23     10     30 1
    24     10     31 1
    25     11     12 1
    26     12     13 ar
    27     12     17 ar
    28     13     14 ar
    29     13     32 1
    30     14     15 ar
    31     14     33 1
    32     15     16 ar
    33     15     34 1
    34     16     17 ar
    35     16     35 1
    36     17     18 1
    37     18     36 1
    38     18     37 1
    39     38     39 1
    40     38     53 1
    41     38     54 1
    42     38     55 1
    43     39     40 2
    44     39     43 1
    45     40     41 1
    46     41     42 1
    47     41     46 1
    48     42     43 2
    49     43     44 1
    50     44     45 2
    51     46     47 ar
    52     46     52 ar
    53     47     48 ar
    54     47     56 1
    55     48     49 ar
    56     48     57 1
    57     49     50 1
    58     49     51 ar
    59     51     52 ar
    60     51     58 1
    61     52     59 1
    62     11     44 am
@<TRIPOS>SUBSTRUCTURE
     1 BB1          11
     2 BB2          44
@<TRIPOS>MOLECULE
EN300-67628_i001_EN300-35009_i001_2_10_1
  59   62   2   0   0
SMALL
USER_CHARGES
@<TRIPOS>ATOM
     1 C1        -2.4413   -23.5932    15.0970 C.3        1 BB1          0.0000
     2 C2        -0.9202   -23.4658    14.9934 C.3        1 BB1          0.0000
     3 C3        -0.3967   -22.6367    16.1679 C.3        1 BB1          0.0000
     4 C4        -0.2880   -24.8586    15.0304 C.3        1 BB1          0.0000
     5 O5        -0.5733   -22.8097    13.7453 O.3        1 BB1          0.0000
     6 C6        -0.9370   -21.5204    13.6108 C.2        1 BB1          0.0000
     7 O7        -1.7388   -21.0316    14.3820 O.2        1 BB1          0.0000
     8 N8        -0.4115   -20.7718    12.6208 N.am       1 BB1          0.0000
     9 C9         0.5550   -21.3713    11.6960 C.3        1 BB1          0.0000
    10 C10        1.9245   -20.7337    11.8425 C.3        1 BB1          0.0000
    11 N11        1.8389   -19.2946    11.5472 N.am       1 BB1          0.0000
    12 C12        1.5010   -18.4286    12.5834 C.ar       1 BB1          0.0000
    13 C13        2.4233   -17.5177    13.0803 C.ar       1 BB1          0.0000
    14 C14        2.0822   -16.7063    14.1453 C.ar       1 BB1          0.0000
    15 C15        0.8288   -16.7999    14.7213 C.ar       1 BB1          0.0000
    16 C16       -0.1023   -17.6920    14.2155 C.ar       1 BB1          0.0000
    17 C17        0.2256   -18.4822    13.1386 C.ar       1 BB1          0.0000
    18 C18       -0.8180   -19.3733    12.4800 C.3        1 BB1          0.0000
    19 H19       -2.8917   -22.6010    15.0706 H          1 BB1          0.0000
    20 H20       -2.8143   -24.1838    14.2602 H          1 BB1          0.0000
    21 H21       -2.7017   -24.0856    16.0340 H          1 BB1          0.0000
    22 H22       -0.6570   -23.1291    17.1048 H          1 BB1          0.0000
    23 H23        0.6870   -22.5459    16.0941 H          1 BB1          0.0000
    24 H24       -0.8470   -21.6444    16.1415 H          1 BB1          0.0000
    25 H25       -0.6610   -25.4491    14.1936 H          1 BB1          0.0000
    26 H26        0.7956   -24.7677    14.9565 H          1 BB1          0.0000
    27 H27       -0.5484   -25.3510    15.9673 H          1 BB1          0.0000
    28 H28        0.6338   -22.4384    11.9039 H          1 BB1          0.0000
    29 H29        0.2042   -21.2326    10.6733 H          1 BB1          0.0000
    30 H30        2.2820   -20.8735    12.8627 H          1 BB1          0.0000
    31 H31        2.6199   -21.2052    11.1483 H          1 BB1          0.0000
    32 H32        3.4047   -17.4438    12.6358 H          1 BB1          0.0000
    33 H33        2.7985   -15.9956    14.5300 H          1 BB1          0.0000
    34 H34        0.5753   -16.1767    15.5661 H          1 BB1          0.0000
    35 H35       -1.0816   -17.7669    14.6649 H          1 BB1          0.0000
    36 H36       -0.8975   -19.1199    11.4229 H          1 BB1          0.0000
    37 H37       -1.7829   -19.2220    12.9639 H          1 BB1          0.0000
    38 C1        -1.0730   -18.6694     8.6332 C.3        2 BB2          0.0000
    39 C2        -0.5428   -17.4424     9.3292 C.2        2 BB2          0.0000
    40 N3        -0.2278   -16.3581     8.6293 N.2        2 BB2          0.0000
    41 C4         0.2347   -15.2723     9.1919 C.2        2 BB2          0.0000
    42 N5         0.4282   -15.1660    10.5173 N.am       2 BB2          0.0000
    43 C6         0.1422   -16.2069    11.3306 C.2        2 BB2          0.0000
    44 O7         0.3110   -16.1296    12.5343 O.2        2 BB2          0.0000
    45 C8        -0.3838   -17.4327    10.7152 C.2        2 BB2          0.0000
    46 C9        -0.7192   -18.6071    11.5269 C.2        2 BB2          0.0000
    47 O11       -0.4162   -19.7273    11.1371 O.2        2 BB2          0.0000
    48 C12        0.5650   -14.0905     8.3170 C.3        2 BB2          0.0000
    49 C13       -0.5325   -13.5728     7.3852 C.3        2 BB2          0.0000
    50 C14       -0.1372   -12.7662     8.6238 C.3        2 BB2          0.0000
    51 H15       -1.1299   -18.4826     7.5608 H          2 BB2          0.0000
    52 H16       -0.4056   -19.5104     8.8207 H          2 BB2          0.0000
    53 H17       -2.0672   -18.9024     9.0146 H          2 BB2          0.0000
    54 H18        1.5932   -14.0440     7.9582 H          2 BB2          0.0000
    55 H19       -0.2263   -13.1853     6.4135 H          2 BB2          0.0000
    56 H20       -1.4935   -14.0868     7.4049 H          2 BB2          0.0000
    57 H21       -0.8379   -12.7497     9.4584 H          2 BB2          0.0000
    58 H22        0.4291   -11.8482     8.4670 H          2 BB2          0.0000
    59 H23        0.7742   -14.3406    10.8912 H          2 BB2          0.0000
@<TRIPOS>BOND
     1      1      2 1
     2      1     19 1
     3      1     20 1
     4      1     21 1
     5      2      3 1
     6      2      4 1
     7      2      5 1
     8      3     22 1
     9      3     23 1
    10      3     24 1
    11      4     25 1
    12      4     26 1
    13      4     27 1
    14      5      6 1
    15      6      7 2
    16      6      8 am
    17      8      9 1
    18      8     18 1
    19      9     10 1
    20      9     28 1
    21      9     29 1
    22     10     11 1
    23     10     30 1
    24     10     31 1
    25     11     12 1
    26     12     13 ar
    27     12     17 ar
    28     13     14 ar
    29     13     32 1
    30     14     15 ar
    31     14     33 1
    32     15     16 ar
    33     15     34 1
    34     16     17 ar
    35     16     35 1
    36     17     18 1
    37     18     36 1
    38     18     37 1
    39     38     39 1
    40     38     51 1
    41     38     52 1
    42     38     53 1
    43     39     40 1
    44     39     45 2
    45     40     41 2
    46     41     42 1
    47     41     48 1
    48     42     43 am
    49     42     59 1
    50     43     44 2
    51     43     45 1
    52     45     46 1
    53     46     47 2
    54     48     49 1
    55     48     50 1
    56     48     54 1
    57     49     50 1
    58     49     55 1
    59     49     56 1
    60     50     57 1
    61     50     58 1
    62     11     46 am
@<TRIPOS>SUBSTRUCTURE
     1 BB1          11
     2 BB2          46
@<TRIPOS>MOLECULE
EN300-67628_i001_EN300-35009_i001_2_12_1
  59   62   2   0   0
SMALL
USER_CHARGES
@<TRIPOS>ATOM
     1 C1        -2.4413   -23.5932    15.0970 C.3        1 BB1          0.0000
     2 C2        -0.9202   -23.4658    14.9934 C.3        1 BB1          0.0000
     3 C3        -0.3967   -22.6367    16.1679 C.3        1 BB1          0.0000
     4 C4        -0.2880   -24.8586    15.0304 C.3        1 BB1          0.0000
     5 O5        -0.5733   -22.8097    13.7453 O.3        1 BB1          0.0000
     6 C6        -0.9370   -21.5204    13.6108 C.2        1 BB1          0.0000
     7 O7        -1.7388   -21.0316    14.3820 O.2        1 BB1          0.0000
     8 N8        -0.4115   -20.7718    12.6208 N.am       1 BB1          0.0000
     9 C9         0.5550   -21.3713    11.6960 C.3        1 BB1          0.0000
    10 C10        1.9245   -20.7337    11.8425 C.3        1 BB1          0.0000
    11 N11        1.8389   -19.2946    11.5472 N.am       1 BB1          0.0000
    12 C12        1.5010   -18.4286    12.5834 C.ar       1 BB1          0.0000
    13 C13        2.4233   -17.5177    13.0803 C.ar       1 BB1          0.0000
    14 C14        2.0822   -16.7063    14.1453 C.ar       1 BB1          0.0000
    15 C15        0.8288   -16.7999    14.7213 C.ar       1 BB1          0.0000
    16 C16       -0.1023   -17.6920    14.2155 C.ar       1 BB1          0.0000
    17 C17        0.2256   -18.4822    13.1386 C.ar       1 BB1          0.0000
    18 C18       -0.8180   -19.3733    12.4800 C.3        1 BB1          0.0000
    19 H19       -2.8917   -22.6010    15.0706 H          1 BB1          0.0000
    20 H20       -2.8143   -24.1838    14.2602 H          1 BB1          0.0000
    21 H21       -2.7017   -24.0856    16.0340 H          1 BB1          0.0000
    22 H22       -0.6570   -23.1291    17.1048 H          1 BB1          0.0000
    23 H23        0.6870   -22.5459    16.0941 H          1 BB1          0.0000
    24 H24       -0.8470   -21.6444    16.1415 H          1 BB1          0.0000
    25 H25       -0.6610   -25.4491    14.1936 H          1 BB1          0.0000
    26 H26        0.7956   -24.7677    14.9565 H          1 BB1          0.0000
    27 H27       -0.5484   -25.3510    15.9673 H          1 BB1          0.0000
    28 H28        0.6338   -22.4384    11.9039 H          1 BB1          0.0000
    29 H29        0.2042   -21.2326    10.6733 H          1 BB1          0.0000
    30 H30        2.2820   -20.8735    12.8627 H          1 BB1          0.0000
    31 H31        2.6199   -21.2052    11.1483 H          1 BB1          0.0000
    32 H32        3.4047   -17.4438    12.6358 H          1 BB1          0.0000
    33 H33        2.7985   -15.9956    14.5300 H          1 BB1          0.0000
    34 H34        0.5753   -16.1767    15.5661 H          1 BB1          0.0000
    35 H35       -1.0816   -17.7669    14.6649 H          1 BB1          0.0000
    36 H36       -0.8975   -19.1199    11.4229 H          1 BB1          0.0000
    37 H37       -1.7829   -19.2220    12.9639 H          1 BB1          0.0000
    38 C1         0.1120   -16.3360    12.6253 C.3        2 BB2          0.0000
    39 C2        -0.0421   -16.4337    11.1294 C.2        2 BB2          0.0000
    40 N3         0.0707   -15.3485    10.3716 N.2        2 BB2          0.0000
    41 C4        -0.0551   -15.3875     9.0708 C.2        2 BB2          0.0000
    42 N5        -0.3079   -16.5231     8.3986 N.am       2 BB2          0.0000
    43 C6        -0.4429   -17.6909     9.0654 C.2        2 BB2          0.0000
    44 O7        -0.6722   -18.7304     8.4737 O.2        2 BB2          0.0000
    45 C8        -0.2987   -17.6657    10.5272 C.2        2 BB2          0.0000
    46 C9        -0.4306   -18.8890    11.3252 C.2        2 BB2          0.0000
    47 O10        0.0350   -19.9428    10.9115 O.2        2 BB2          0.0000
    48 C12        0.0890   -14.1049     8.2928 C.3        2 BB2          0.0000
    49 C13        1.2914   -13.9787     7.3552 C.3        2 BB2          0.0000
    50 C14       -0.1121   -14.1712     6.7775 C.3        2 BB2          0.0000
    51 H15        0.3117   -15.3011    12.9031 H          2 BB2          0.0000
    52 H16       -0.8061   -16.6711    13.1078 H          2 BB2          0.0000
    53 H17        0.9421   -16.9651    12.9470 H          2 BB2          0.0000
    54 H18       -0.2456   -13.2035     8.8062 H          2 BB2          0.0000
    55 H19        1.7477   -12.9942     7.2516 H          2 BB2          0.0000
    56 H20        1.9783   -14.8233     7.3010 H          2 BB2          0.0000
    57 H21       -0.3488   -15.1426     6.3433 H          2 BB2          0.0000
    58 H22       -0.5794   -13.3135     6.2938 H          2 BB2          0.0000
    59 H23       -0.3940   -16.5047     7.4326 H          2 BB2          0.0000
@<TRIPOS>BOND
     1      1      2 1
     2      1     19 1
     3      1     20 1
     4      1     21 1
     5      2      3 1
     6      2      4 1
     7      2      5 1
     8      3     22 1
     9      3     23 1
    10      3     24 1
    11      4     25 1
    12      4     26 1
    13      4     27 1
    14      5      6 1
    15      6      7 2
    16      6      8 am
    17      8      9 1
    18      8     18 1
    19      9     10 1
    20      9     28 1
    21      9     29 1
    22     10     11 1
    23     10     30 1
    24     10     31 1
    25     11     12 1
    26     12     13 ar
    27     12     17 ar
    28     13     14 ar
    29     13     32 1
    30     14     15 ar
    31     14     33 1
    32     15     16 ar
    33     15     34 1
    34     16     17 ar
    35     16     35 1
    36     17     18 1
    37     18     36 1
    38     18     37 1
    39     38     39 1
    40     38     51 1
    41     38     52 1
    42     38     53 1
    43     39     40 1
    44     39     45 2
    45     40     41 2
    46     41     42 1
    47     41     48 1
    48     42     43 am
    49     42     59 1
    50     43     44 2
    51     43     45 1
    52     45     46 1
    53     46     47 2
    54     48     49 1
    55     48     50 1
    56     48     54 1
    57     49     50 1
    58     49     55 1
    59     49     56 1
    60     50     57 1
    61     50     58 1
    62     11     46 am
@<TRIPOS>SUBSTRUCTURE
     1 BB1          11
     2 BB2          46
@<TRIPOS>MOLECULE
EN300-67628_i001_EN300-1231025_i001_8_1_1
  52   53   2   0   0
SMALL
USER_CHARGES
@<TRIPOS>ATOM
     1 C1        -1.1541   -23.9749    16.7817 C.3        1 BB1          0.0000
     2 C2        -0.9784   -23.6344    15.3006 C.3        1 BB1          0.0000
     3 C3        -0.2153   -24.7633    14.6047 C.3        1 BB1          0.0000
     4 C4        -2.3526   -23.4701    14.6485 C.3        1 BB1          0.0000
     5 O5        -0.2313   -22.3957    15.1740 O.3        1 BB1          0.0000
     6 C6         0.1405   -22.0303    13.9327 C.2        1 BB1          0.0000
     7 O7        -0.3750   -22.5542    12.9650 O.2        1 BB1          0.0000
     8 N8         1.0844   -21.0831    13.7634 N.am       1 BB1          0.0000
     9 C9         1.6998   -20.4575    14.9375 C.3        1 BB1          0.0000
    10 C10        1.3499   -18.9830    15.0216 C.3        1 BB1          0.0000
    11 N11        1.8380   -18.2853    13.8214 N.am       1 BB1          0.0000
    12 C12        1.0159   -18.2528    12.6985 C.ar       1 BB1          0.0000
    13 C13        0.4558   -17.0608    12.2595 C.ar       1 BB1          0.0000
    14 C14       -0.4006   -17.0623    11.1753 C.ar       1 BB1          0.0000
    15 C15       -0.7058   -18.2453    10.5280 C.ar       1 BB1          0.0000
    16 C16       -0.1329   -19.4342    10.9487 C.ar       1 BB1          0.0000
    17 C17        0.7405   -19.4316    12.0112 C.ar       1 BB1          0.0000
    18 C18        1.4854   -20.6977    12.4101 C.3        1 BB1          0.0000
    19 H19       -0.1750   -24.0920    17.2463 H          1 BB1          0.0000
    20 H20       -1.6976   -23.1706    17.2775 H          1 BB1          0.0000
    21 H21       -1.7148   -24.9049    16.8767 H          1 BB1          0.0000
    22 H22       -0.7761   -25.6932    14.6997 H          1 BB1          0.0000
    23 H23       -0.0902   -24.5207    13.5494 H          1 BB1          0.0000
    24 H24        0.7637   -24.8804    15.0692 H          1 BB1          0.0000
    25 H25       -2.8961   -22.6658    15.1442 H          1 BB1          0.0000
    26 H26       -2.2274   -23.2274    13.5933 H          1 BB1          0.0000
    27 H27       -2.9134   -24.3999    14.7434 H          1 BB1          0.0000
    28 H28        1.3454   -20.9605    15.8373 H          1 BB1          0.0000
    29 H29        2.7827   -20.5643    14.8728 H          1 BB1          0.0000
    30 H30        0.2679   -18.8709    15.0910 H          1 BB1          0.0000
    31 H31        1.8155   -18.5500    15.9068 H          1 BB1          0.0000
    32 H32        0.6886   -16.1350    12.7645 H          1 BB1          0.0000
    33 H33       -0.8340   -16.1347    10.8319 H          1 BB1          0.0000
    34 H34       -1.3913   -18.2424     9.6935 H          1 BB1          0.0000
    35 H35       -0.3710   -20.3592    10.4446 H          1 BB1          0.0000
    36 H36        2.5590   -20.5108    12.3856 H          1 BB1          0.0000
    37 H37        1.2397   -21.4990    11.7131 H          1 BB1          0.0000
    38 O1         1.5533   -15.7809    11.7534 O.3        2 BB2          0.0000
    39 C2         0.1671   -15.8328    12.0963 C.3        2 BB2          0.0000
    40 C3        -0.3909   -14.4108    12.1812 C.3        2 BB2          0.0000
    41 C4        -0.4040   -13.7839    10.7856 C.3        2 BB2          0.0000
    42 C5        -1.0947   -12.4851    10.8376 C.1        2 BB2          0.0000
    43 C6        -1.6456   -11.4492    10.8792 C.1        2 BB2          0.0000
    44 C7         0.0047   -16.5167    13.4294 C.2        2 BB2          0.0000
    45 O9        -0.6232   -17.5588    13.5075 O.2        2 BB2          0.0000
    46 H10       -0.3753   -16.3911    11.3332 H          2 BB2          0.0000
    47 H11       -1.4068   -14.4421    12.5750 H          2 BB2          0.0000
    48 H12        0.2367   -13.8131    12.8421 H          2 BB2          0.0000
    49 H13        0.6204   -13.6371    10.4436 H          2 BB2          0.0000
    50 H14       -0.9264   -14.4458    10.0948 H          2 BB2          0.0000
    51 H15       -2.1384   -10.5227    10.9163 H          2 BB2          0.0000
    52 H16        1.7824   -16.2892    10.9633 H          2 BB2          0.0000
@<TRIPOS>BOND
     1      1      2 1
     2      1     19 1
     3      1     20 1
     4      1     21 1
     5      2      3 1
     6      2      4 1
     7      2      5 1
     8      3     22 1
     9      3     23 1
    10      3     24 1
    11      4     25 1
    12      4     26 1
    13      4     27 1
    14      5      6 1
    15      6      7 2
    16      6      8 am
    17      8      9 1
    18      8     18 1
    19      9     10 1
    20      9     28 1
    21      9     29 1
    22     10     11 1
    23     10     30 1
    24     10     31 1
    25     11     12 1
    26     12     13 ar
    27     12     17 ar
    28     13     14 ar
    29     13     32 1
    30     14     15 ar
    31     14     33 1
    32     15     16 ar
    33     15     34 1
    34     16     17 ar
    35     16     35 1
    36     17     18 1
    37     18     36 1
    38     18     37 1
    39     38     39 1
    40     38     52 1
    41     39     40 1
    42     39     44 1
    43     39     46 1
    44     40     41 1
    45     40     47 1
    46     40     48 1
    47     41     42 1
    48     41     49 1
    49     41     50 1
    50     42     43 3
    51     43     51 1
    52     44     45 2
    53     11     44 am
@<TRIPOS>SUBSTRUCTURE
     1 BB1          11
     2 BB2          44
@<TRIPOS>MOLECULE
EN300-67628_i001_EN300-194291_i002_8_10_1
  61   64   2   0   0
SMALL
USER_CHARGES
@<TRIPOS>ATOM
     1 C1        -1.1541   -23.9749    16.7817 C.3        1 BB1          0.0000
     2 C2        -0.9784   -23.6344    15.3006 C.3        1 BB1          0.0000
     3 C3        -0.2153   -24.7633    14.6047 C.3        1 BB1          0.0000
     4 C4        -2.3526   -23.4701    14.6485 C.3        1 BB1          0.0000
     5 O5        -0.2313   -22.3957    15.1740 O.3        1 BB1          0.0000
     6 C6         0.1405   -22.0303    13.9327 C.2        1 BB1          0.0000
     7 O7        -0.3750   -22.5542    12.9650 O.2        1 BB1          0.0000
     8 N8         1.0844   -21.0831    13.7634 N.am       1 BB1          0.0000
     9 C9         1.6998   -20.4575    14.9375 C.3        1 BB1          0.0000
    10 C10        1.3499   -18.9830    15.0216 C.3        1 BB1          0.0000
    11 N11        1.8380   -18.2853    13.8214 N.am       1 BB1          0.0000
    12 C12        1.0159   -18.2528    12.6985 C.ar       1 BB1          0.0000
    13 C13        0.4558   -17.0608    12.2595 C.ar       1 BB1          0.0000
    14 C14       -0.4006   -17.0623    11.1753 C.ar       1 BB1          0.0000
    15 C15       -0.7058   -18.2453    10.5280 C.ar       1 BB1          0.0000
    16 C16       -0.1329   -19.4342    10.9487 C.ar       1 BB1          0.0000
    17 C17        0.7405   -19.4316    12.0112 C.ar       1 BB1          0.0000
    18 C18        1.4854   -20.6977    12.4101 C.3        1 BB1          0.0000
    19 H19       -0.1750   -24.0920    17.2463 H          1 BB1          0.0000
    20 H20       -1.6976   -23.1706    17.2775 H          1 BB1          0.0000
    21 H21       -1.7148   -24.9049    16.8767 H          1 BB1          0.0000
    22 H22       -0.7761   -25.6932    14.6997 H          1 BB1          0.0000
    23 H23       -0.0902   -24.5207    13.5494 H          1 BB1          0.0000
    24 H24        0.7637   -24.8804    15.0692 H          1 BB1          0.0000
    25 H25       -2.8961   -22.6658    15.1442 H          1 BB1          0.0000
    26 H26       -2.2274   -23.2274    13.5933 H          1 BB1          0.0000
    27 H27       -2.9134   -24.3999    14.7434 H          1 BB1          0.0000
    28 H28        1.3454   -20.9605    15.8373 H          1 BB1          0.0000
    29 H29        2.7827   -20.5643    14.8728 H          1 BB1          0.0000
    30 H30        0.2679   -18.8709    15.0910 H          1 BB1          0.0000
    31 H31        1.8155   -18.5500    15.9068 H          1 BB1          0.0000
    32 H32        0.6886   -16.1350    12.7645 H          1 BB1          0.0000
    33 H33       -0.8340   -16.1347    10.8319 H          1 BB1          0.0000
    34 H34       -1.3913   -18.2424     9.6935 H          1 BB1          0.0000
    35 H35       -0.3710   -20.3592    10.4446 H          1 BB1          0.0000
    36 H36        2.5590   -20.5108    12.3856 H          1 BB1          0.0000
    37 H37        1.2397   -21.4990    11.7131 H          1 BB1          0.0000
    38 O1         1.3207   -17.2750    14.1270 O.2        2 BB2          0.0000
    39 C2         0.4763   -16.8160    13.3767 C.2        2 BB2          0.0000
    40 C4         0.6440   -15.4290    12.8118 C.3        2 BB2          0.0000
    41 C5         0.9682   -15.4824    11.3024 C.3        2 BB2          0.0000
    42 N6         0.2732   -14.3325    10.7117 N.am       2 BB2          0.0000
    43 C7        -0.6722   -13.8555    11.5396 C.2        2 BB2          0.0000
    44 O8        -1.3983   -12.9149    11.2964 O.2        2 BB2          0.0000
    45 C9        -0.6989   -14.6625    12.8189 C.3        2 BB2          0.0000
    46 C10        0.5580   -13.8011     9.4479 C.ar       2 BB2          0.0000
    47 C11        1.0908   -14.6136     8.4564 C.ar       2 BB2          0.0000
    48 C12        1.3712   -14.0886     7.2095 C.ar       2 BB2          0.0000
    49 C13        1.1219   -12.7527     6.9476 C.ar       2 BB2          0.0000
    50 F14        1.3968   -12.2416     5.7277 F          2 BB2          0.0000
    51 C15        0.5896   -11.9383     7.9363 C.ar       2 BB2          0.0000
    52 F16        0.3463   -10.6345     7.6789 F          2 BB2          0.0000
    53 C17        0.3026   -12.4621     9.1834 C.ar       2 BB2          0.0000
    54 H18        1.4110   -14.8784    13.3564 H          2 BB2          0.0000
    55 H19        2.0432   -15.3953    11.1442 H          2 BB2          0.0000
    56 H20        0.5965   -16.4110    10.8693 H          2 BB2          0.0000
    57 H21       -1.5364   -15.3602    12.8125 H          2 BB2          0.0000
    58 H22       -0.7572   -14.0031    13.6849 H          2 BB2          0.0000
    59 H23        1.2865   -15.6561     8.6598 H          2 BB2          0.0000
    60 H24        1.7856   -14.7212     6.4385 H          2 BB2          0.0000
    61 H25       -0.1119   -11.8285     9.9536 H          2 BB2          0.0000
@<TRIPOS>BOND
     1      1      2 1
     2      1     19 1
     3      1     20 1
     4      1     21 1
     5      2      3 1
     6      2      4 1
     7      2      5 1
     8      3     22 1
     9      3     23 1
    10      3     24 1
    11      4     25 1
    12      4     26 1
    13      4     27 1
    14      5      6 1
    15      6      7 2
    16      6      8 am
    17      8      9 1
    18      8     18 1
    19      9     10 1
    20      9     28 1
    21      9     29 1
    22     10     11 1
    23     10     30 1
    24     10     31 1
    25     11     12 1
    26     12     13 ar
    27     12     17 ar
    28     13     14 ar
    29     13     32 1
    30     14     15 ar
    31     14     33 1
    32     15     16 ar
    33     15     34 1
    34     16     17 ar
    35     16     35 1
    36     17     18 1
    37     18     36 1
    38     18     37 1
    39     38     39 2
    40     39     40 1
    41     40     41 1
    42     40     45 1
    43     40     54 1
    44     41     42 1
    45     41     55 1
    46     41     56 1
    47     42     43 am
    48     42     46 1
    49     43     44 2
    50     43     45 1
    51     45     57 1
    52     45     58 1
    53     46     47 ar
    54     46     53 ar
    55     47     48 ar
    56     47     59 1
    57     48     49 ar
    58     48     60 1
    59     49     50 1
    60     49     51 ar
    61     51     52 1
    62     51     53 ar
    63     53     61 1
    64     11     39 am
@<TRIPOS>SUBSTRUCTURE
     1 BB1          11
     2 BB2          39
@<TRIPOS>MOLECULE
EN300-67628_i001_EN300-194291_i002_8_13_1
  61   64   2   0   0
SMALL
USER_CHARGES
@<TRIPOS>ATOM
     1 C1        -1.1541   -23.9749    16.7817 C.3        1 BB1          0.0000
     2 C2        -0.9784   -23.6344    15.3006 C.3        1 BB1          0.0000
     3 C3        -0.2153   -24.7633    14.6047 C.3        1 BB1          0.0000
     4 C4        -2.3526   -23.4701    14.6485 C.3        1 BB1          0.0000
     5 O5        -0.2313   -22.3957    15.1740 O.3        1 BB1          0.0000
     6 C6         0.1405   -22.0303    13.9327 C.2        1 BB1          0.0000
     7 O7        -0.3750   -22.5542    12.9650 O.2        1 BB1          0.0000
     8 N8         1.0844   -21.0831    13.7634 N.am       1 BB1          0.0000
     9 C9         1.6998   -20.4575    14.9375 C.3        1 BB1          0.0000
    10 C10        1.3499   -18.9830    15.0216 C.3        1 BB1          0.0000
    11 N11        1.8380   -18.2853    13.8214 N.am       1 BB1          0.0000
    12 C12        1.0159   -18.2528    12.6985 C.ar       1 BB1          0.0000
    13 C13        0.4558   -17.0608    12.2595 C.ar       1 BB1          0.0000
    14 C14       -0.4006   -17.0623    11.1753 C.ar       1 BB1          0.0000
    15 C15       -0.7058   -18.2453    10.5280 C.ar       1 BB1          0.0000
    16 C16       -0.1329   -19.4342    10.9487 C.ar       1 BB1          0.0000
    17 C17        0.7405   -19.4316    12.0112 C.ar       1 BB1          0.0000
    18 C18        1.4854   -20.6977    12.4101 C.3        1 BB1          0.0000
    19 H19       -0.1750   -24.0920    17.2463 H          1 BB1          0.0000
    20 H20       -1.6976   -23.1706    17.2775 H          1 BB1          0.0000
    21 H21       -1.7148   -24.9049    16.8767 H          1 BB1          0.0000
    22 H22       -0.7761   -25.6932    14.6997 H          1 BB1          0.0000
    23 H23       -0.0902   -24.5207    13.5494 H          1 BB1          0.0000
    24 H24        0.7637   -24.8804    15.0692 H          1 BB1          0.0000
    25 H25       -2.8961   -22.6658    15.1442 H          1 BB1          0.0000
    26 H26       -2.2274   -23.2274    13.5933 H          1 BB1          0.0000
    27 H27       -2.9134   -24.3999    14.7434 H          1 BB1          0.0000
    28 H28        1.3454   -20.9605    15.8373 H          1 BB1          0.0000
    29 H29        2.7827   -20.5643    14.8728 H          1 BB1          0.0000
    30 H30        0.2679   -18.8709    15.0910 H          1 BB1          0.0000
    31 H31        1.8155   -18.5500    15.9068 H          1 BB1          0.0000
    32 H32        0.6886   -16.1350    12.7645 H          1 BB1          0.0000
    33 H33       -0.8340   -16.1347    10.8319 H          1 BB1          0.0000
    34 H34       -1.3913   -18.2424     9.6935 H          1 BB1          0.0000
    35 H35       -0.3710   -20.3592    10.4446 H          1 BB1          0.0000
    36 H36        2.5590   -20.5108    12.3856 H          1 BB1          0.0000
    37 H37        1.2397   -21.4990    11.7131 H          1 BB1          0.0000
    38 O1         1.5849   -17.9659    13.5861 O.2        2 BB2          0.0000
    39 C2         0.6432   -17.1940    13.6492 C.2        2 BB2          0.0000
    40 C4         0.7972   -15.7762    13.1623 C.3        2 BB2          0.0000
    41 C5         1.0164   -15.7373    11.6337 C.3        2 BB2          0.0000
    42 N6         0.3037   -14.5425    11.1662 N.am       2 BB2          0.0000
    43 C7        -0.5740   -14.1064    12.0861 C.2        2 BB2          0.0000
    44 O8        -1.2978   -13.1422    11.9535 O.2        2 BB2          0.0000
    45 C9        -0.5278   -14.9932    13.3109 C.3        2 BB2          0.0000
    46 C10        0.5111   -13.9353     9.9216 C.ar       2 BB2          0.0000
    47 C11        0.5196   -12.5510     9.8166 C.ar       2 BB2          0.0000
    48 C12        0.7248   -11.9526     8.5882 C.ar       2 BB2          0.0000
    49 C13        0.9213   -12.7319     7.4616 C.ar       2 BB2          0.0000
    50 F14        1.1217   -12.1445     6.2615 F          2 BB2          0.0000
    51 C15        0.9132   -14.1152     7.5632 C.ar       2 BB2          0.0000
    52 F16        1.1057   -14.8745     6.4624 F          2 BB2          0.0000
    53 C17        0.7139   -14.7171     8.7921 C.ar       2 BB2          0.0000
    54 H18        1.6096   -15.2722    13.6859 H          2 BB2          0.0000
    55 H19        2.0794   -15.6552    11.4071 H          2 BB2          0.0000
    56 H20        0.5990   -16.6311    11.1699 H          2 BB2          0.0000
    57 H21       -1.3764   -15.6773    13.3188 H          2 BB2          0.0000
    58 H22       -0.5147   -14.3897    14.2185 H          2 BB2          0.0000
    59 H23        0.3657   -11.9419    10.6950 H          2 BB2          0.0000
    60 H24        0.7314   -10.8757     8.5071 H          2 BB2          0.0000
    61 H25        0.7076   -15.7941     8.8719 H          2 BB2          0.0000
@<TRIPOS>BOND
     1      1      2 1
     2      1     19 1
     3      1     20 1
     4      1     21 1
     5      2      3 1
     6      2      4 1
     7      2      5 1
     8      3     22 1
     9      3     23 1
    10      3     24 1
    11      4     25 1
    12      4     26 1
    13      4     27 1
    14      5      6 1
    15      6      7 2
    16      6      8 am
    17      8      9 1
    18      8     18 1
    19      9     10 1
    20      9     28 1
    21      9     29 1
    22     10     11 1
    23     10     30 1
    24     10     31 1
    25     11     12 1
    26     12     13 ar
    27     12     17 ar
    28     13     14 ar
    29     13     32 1
    30     14     15 ar
    31     14     33 1
    32     15     16 ar
    33     15     34 1
    34     16     17 ar
    35     16     35 1
    36     17     18 1
    37     18     36 1
    38     18     37 1
    39     38     39 2
    40     39     40 1
    41     40     41 1
    42     40     45 1
    43     40     54 1
    44     41     42 1
    45     41     55 1
    46     41     56 1
    47     42     43 am
    48     42     46 1
    49     43     44 2
    50     43     45 1
    51     45     57 1
    52     45     58 1
    53     46     47 ar
    54     46     53 ar
    55     47     48 ar
    56     47     59 1
    57     48     49 ar
    58     48     60 1
    59     49     50 1
    60     49     51 ar
    61     51     52 1
    62     51     53 ar
    63     53     61 1
    64     11     39 am
@<TRIPOS>SUBSTRUCTURE
     1 BB1          11
     2 BB2          39
@<TRIPOS>MOLECULE
EN300-67628_i001_EN300-43851_i001_8_17_1
  59   62   2   0   0
SMALL
USER_CHARGES
@<TRIPOS>ATOM
     1 C1        -1.1541   -23.9749    16.7817 C.3        1 BB1          0.0000
     2 C2        -0.9784   -23.6344    15.3006 C.3        1 BB1          0.0000
     3 C3        -0.2153   -24.7633    14.6047 C.3        1 BB1          0.0000
     4 C4        -2.3526   -23.4701    14.6485 C.3        1 BB1          0.0000
     5 O5        -0.2313   -22.3957    15.1740 O.3        1 BB1          0.0000
     6 C6         0.1405   -22.0303    13.9327 C.2        1 BB1          0.0000
     7 O7        -0.3750   -22.5542    12.9650 O.2        1 BB1          0.0000
     8 N8         1.0844   -21.0831    13.7634 N.am       1 BB1          0.0000
     9 C9         1.6998   -20.4575    14.9375 C.3        1 BB1          0.0000
    10 C10        1.3499   -18.9830    15.0216 C.3        1 BB1          0.0000
    11 N11        1.8380   -18.2853    13.8214 N.am       1 BB1          0.0000
    12 C12        1.0159   -18.2528    12.6985 C.ar       1 BB1          0.0000
    13 C13        0.4558   -17.0608    12.2595 C.ar       1 BB1          0.0000
    14 C14       -0.4006   -17.0623    11.1753 C.ar       1 BB1          0.0000
    15 C15       -0.7058   -18.2453    10.5280 C.ar       1 BB1          0.0000
    16 C16       -0.1329   -19.4342    10.9487 C.ar       1 BB1          0.0000
    17 C17        0.7405   -19.4316    12.0112 C.ar       1 BB1          0.0000
    18 C18        1.4854   -20.6977    12.4101 C.3        1 BB1          0.0000
    19 H19       -0.1750   -24.0920    17.2463 H          1 BB1          0.0000
    20 H20       -1.6976   -23.1706    17.2775 H          1 BB1          0.0000
    21 H21       -1.7148   -24.9049    16.8767 H          1 BB1          0.0000
    22 H22       -0.7761   -25.6932    14.6997 H          1 BB1          0.0000
    23 H23       -0.0902   -24.5207    13.5494 H          1 BB1          0.0000
    24 H24        0.7637   -24.8804    15.0692 H          1 BB1          0.0000
    25 H25       -2.8961   -22.6658    15.1442 H          1 BB1          0.0000
    26 H26       -2.2274   -23.2274    13.5933 H          1 BB1          0.0000
    27 H27       -2.9134   -24.3999    14.7434 H          1 BB1          0.0000
    28 H28        1.3454   -20.9605    15.8373 H          1 BB1          0.0000
    29 H29        2.7827   -20.5643    14.8728 H          1 BB1          0.0000
    30 H30        0.2679   -18.8709    15.0910 H          1 BB1          0.0000
    31 H31        1.8155   -18.5500    15.9068 H          1 BB1          0.0000
    32 H32        0.6886   -16.1350    12.7645 H          1 BB1          0.0000
    33 H33       -0.8340   -16.1347    10.8319 H          1 BB1          0.0000
    34 H34       -1.3913   -18.2424     9.6935 H          1 BB1          0.0000
    35 H35       -0.3710   -20.3592    10.4446 H          1 BB1          0.0000
    36 H36        2.5590   -20.5108    12.3856 H          1 BB1          0.0000
    37 H37        1.2397   -21.4990    11.7131 H          1 BB1          0.0000
    38 C1        -0.7700   -15.3204    14.0246 C.3        2 BB2          0.0000
    39 C2         0.0727   -15.1101    12.7931 C.2        2 BB2          0.0000
    40 N3        -0.2421   -14.3920    11.7410 N.2        2 BB2          0.0000
    41 N4         0.8308   -14.4777    10.8442 N.pl3      2 BB2          0.0000
    42 N5         1.7450   -15.2240    11.3580 N.2        2 BB2          0.0000
    43 C6         1.3531   -15.6405    12.5500 C.2        2 BB2          0.0000
    44 C7         2.1177   -16.5138    13.4588 C.2        2 BB2          0.0000
    45 O9         2.9226   -17.3146    13.0040 O.2        2 BB2          0.0000
    46 C10        0.8977   -13.8527     9.5916 C.ar       2 BB2          0.0000
    47 C11        0.5259   -12.5215     9.4582 C.ar       2 BB2          0.0000
    48 C12        0.5924   -11.9074     8.2232 C.ar       2 BB2          0.0000
    49 C13        1.0295   -12.6184     7.1179 C.ar       2 BB2          0.0000
    50 F14        1.0943   -12.0159     5.9105 F          2 BB2          0.0000
    51 C15        1.4008   -13.9464     7.2489 C.ar       2 BB2          0.0000
    52 C16        1.3411   -14.5623     8.4834 C.ar       2 BB2          0.0000
    53 H17       -1.4026   -16.1972    13.8866 H          2 BB2          0.0000
    54 H18       -0.1213   -15.4725    14.8873 H          2 BB2          0.0000
    55 H19       -1.3958   -14.4435    14.1908 H          2 BB2          0.0000
    56 H20        0.1845   -11.9668    10.3197 H          2 BB2          0.0000
    57 H21        0.3030   -10.8722     8.1189 H          2 BB2          0.0000
    58 H22        1.7414   -14.4992     6.3859 H          2 BB2          0.0000
    59 H23        1.6311   -15.5977     8.5852 H          2 BB2          0.0000
@<TRIPOS>BOND
     1      1      2 1
     2      1     19 1
     3      1     20 1
     4      1     21 1
     5      2      3 1
     6      2      4 1
     7      2      5 1
     8      3     22 1
     9      3     23 1
    10      3     24 1
    11      4     25 1
    12      4     26 1
    13      4     27 1
    14      5      6 1
    15      6      7 2
    16      6      8 am
    17      8      9 1
    18      8     18 1
    19      9     10 1
    20      9     28 1
    21      9     29 1
    22     10     11 1
    23     10     30 1
    24     10     31 1
    25     11     12 1
    26     12     13 ar
    27     12     17 ar
    28     13     14 ar
    29     13     32 1
    30     14     15 ar
    31     14     33 1
    32     15     16 ar
    33     15     34 1
    34     16     17 ar
    35     16     35 1
    36     17     18 1
    37     18     36 1
    38     18     37 1
    39     38     39 1
    40     38     53 1
    41     38     54 1
    42     38     55 1
    43     39     40 2
    44     39     43 1
    45     40     41 1
    46     41     42 1
    47     41     46 1
    48     42     43 2
    49     43     44 1
    50     44     45 2
    51     46     47 ar
    52     46     52 ar
    53     47     48 ar
    54     47     56 1
    55     48     49 ar
    56     48     57 1
    57     49     50 1
    58     49     51 ar
    59     51     52 ar
    60     51     58 1
    61     52     59 1
    62     11     44 am
@<TRIPOS>SUBSTRUCTURE
     1 BB1          11
     2 BB2          44
@<TRIPOS>MOLECULE
EN300-67628_i001_EN300-1231025_i001_9_1_1
  52   53   2   0   0
SMALL
USER_CHARGES
@<TRIPOS>ATOM
     1 C1        -0.3181   -24.5910    14.3952 C.3        1 BB1          0.0000
     2 C2        -1.2340   -23.6716    13.5849 C.3        1 BB1          0.0000
     3 C3        -1.6679   -24.3851    12.3028 C.3        1 BB1          0.0000
     4 C4        -2.4695   -23.3208    14.4164 C.3        1 BB1          0.0000
     5 O5        -0.5190   -22.4549    13.2433 O.3        1 BB1          0.0000
     6 C6         0.0867   -21.7985    14.2508 C.2        1 BB1          0.0000
     7 O7        -0.2332   -22.0231    15.4014 O.2        1 BB1          0.0000
     8 N8         1.0479   -20.8923    13.9831 N.am       1 BB1          0.0000
     9 C9         1.7010   -20.1832    15.0874 C.3        1 BB1          0.0000
    10 C10        1.3859   -18.6991    15.0506 C.3        1 BB1          0.0000
    11 N11        1.8647   -18.1187    13.7860 N.am       1 BB1          0.0000
    12 C12        1.0207   -18.1628    12.6798 C.ar       1 BB1          0.0000
    13 C13        0.4786   -16.9997    12.1502 C.ar       1 BB1          0.0000
    14 C14       -0.3997   -17.0735    11.0862 C.ar       1 BB1          0.0000
    15 C15       -0.7444   -18.3000    10.5490 C.ar       1 BB1          0.0000
    16 C16       -0.1897   -19.4618    11.0598 C.ar       1 BB1          0.0000
    17 C17        0.7051   -19.3892    12.1018 C.ar       1 BB1          0.0000
    18 C18        1.4295   -20.6340    12.5945 C.3        1 BB1          0.0000
    19 H19        0.5620   -24.8409    13.8028 H          1 BB1          0.0000
    20 H20       -0.0089   -24.0828    15.3085 H          1 BB1          0.0000
    21 H21       -0.8549   -25.5045    14.6515 H          1 BB1          0.0000
    22 H22       -2.2047   -25.2984    12.5592 H          1 BB1          0.0000
    23 H23       -2.3204   -23.7300    11.7256 H          1 BB1          0.0000
    24 H24       -0.7877   -24.6349    11.7104 H          1 BB1          0.0000
    25 H25       -2.1603   -22.8125    15.3298 H          1 BB1          0.0000
    26 H26       -3.1219   -22.6658    13.8392 H          1 BB1          0.0000
    27 H27       -3.0063   -24.2341    14.6728 H          1 BB1          0.0000
    28 H28        1.3540   -20.5987    16.0336 H          1 BB1          0.0000
    29 H29        2.7796   -20.3212    15.0122 H          1 BB1          0.0000
    30 H30        0.3083   -18.5554    15.1301 H          1 BB1          0.0000
    31 H31        1.8790   -18.2031    15.8865 H          1 BB1          0.0000
    32 H32        0.7422   -16.0399    12.5692 H          1 BB1          0.0000
    33 H33       -0.8192   -16.1686    10.6722 H          1 BB1          0.0000
    34 H34       -1.4466   -18.3522     9.7301 H          1 BB1          0.0000
    35 H35       -0.4587   -20.4207    10.6418 H          1 BB1          0.0000
    36 H36        2.5063   -20.4757    12.5342 H          1 BB1          0.0000
    37 H37        1.1518   -21.4859    11.9738 H          1 BB1          0.0000
    38 O1         1.5533   -15.7809    11.7534 O.3        2 BB2          0.0000
    39 C2         0.1671   -15.8328    12.0963 C.3        2 BB2          0.0000
    40 C3        -0.3909   -14.4108    12.1812 C.3        2 BB2          0.0000
    41 C4        -0.4040   -13.7839    10.7856 C.3        2 BB2          0.0000
    42 C5        -1.0947   -12.4851    10.8376 C.1        2 BB2          0.0000
    43 C6        -1.6456   -11.4492    10.8792 C.1        2 BB2          0.0000
    44 C7         0.0047   -16.5167    13.4294 C.2        2 BB2          0.0000
    45 O9        -0.6232   -17.5588    13.5075 O.2        2 BB2          0.0000
    46 H10       -0.3753   -16.3911    11.3332 H          2 BB2          0.0000
    47 H11       -1.4068   -14.4421    12.5750 H          2 BB2          0.0000
    48 H12        0.2367   -13.8131    12.8421 H          2 BB2          0.0000
    49 H13        0.6204   -13.6371    10.4436 H          2 BB2          0.0000
    50 H14       -0.9264   -14.4458    10.0948 H          2 BB2          0.0000
    51 H15       -2.1384   -10.5227    10.9163 H          2 BB2          0.0000
    52 H16        1.7824   -16.2892    10.9633 H          2 BB2          0.0000
@<TRIPOS>BOND
     1      1      2 1
     2      1     19 1
     3      1     20 1
     4      1     21 1
     5      2      3 1
     6      2      4 1
     7      2      5 1
     8      3     22 1
     9      3     23 1
    10      3     24 1
    11      4     25 1
    12      4     26 1
    13      4     27 1
    14      5      6 1
    15      6      7 2
    16      6      8 am
    17      8      9 1
    18      8     18 1
    19      9     10 1
    20      9     28 1
    21      9     29 1
    22     10     11 1
    23     10     30 1
    24     10     31 1
    25     11     12 1
    26     12     13 ar
    27     12     17 ar
    28     13     14 ar
    29     13     32 1
    30     14     15 ar
    31     14     33 1
    32     15     16 ar
    33     15     34 1
    34     16     17 ar
    35     16     35 1
    36     17     18 1
    37     18     36 1
    38     18     37 1
    39     38     39 1
    40     38     52 1
    41     39     40 1
    42     39     44 1
    43     39     46 1
    44     40     41 1
    45     40     47 1
    46     40     48 1
    47     41     42 1
    48     41     49 1
    49     41     50 1
    50     42     43 3
    51     43     51 1
    52     44     45 2
    53     11     44 am
@<TRIPOS>SUBSTRUCTURE
     1 BB1          11
     2 BB2          44
@<TRIPOS>MOLECULE
EN300-67628_i001_EN300-19857_i001_9_14_1
  50   52   2   0   0
SMALL
USER_CHARGES
@<TRIPOS>ATOM
     1 C1        -0.3181   -24.5910    14.3952 C.3        1 BB1          0.0000
     2 C2        -1.2340   -23.6716    13.5849 C.3        1 BB1          0.0000
     3 C3        -1.6679   -24.3851    12.3028 C.3        1 BB1          0.0000
     4 C4        -2.4695   -23.3208    14.4164 C.3        1 BB1          0.0000
     5 O5        -0.5190   -22.4549    13.2433 O.3        1 BB1          0.0000
     6 C6         0.0867   -21.7985    14.2508 C.2        1 BB1          0.0000
     7 O7        -0.2332   -22.0231    15.4014 O.2        1 BB1          0.0000
     8 N8         1.0479   -20.8923    13.9831 N.am       1 BB1          0.0000
     9 C9         1.7010   -20.1832    15.0874 C.3        1 BB1          0.0000
    10 C10        1.3859   -18.6991    15.0506 C.3        1 BB1          0.0000
    11 N11        1.8647   -18.1187    13.7860 N.am       1 BB1          0.0000
    12 C12        1.0207   -18.1628    12.6798 C.ar       1 BB1          0.0000
    13 C13        0.4786   -16.9997    12.1502 C.ar       1 BB1          0.0000
    14 C14       -0.3997   -17.0735    11.0862 C.ar       1 BB1          0.0000
    15 C15       -0.7444   -18.3000    10.5490 C.ar       1 BB1          0.0000
    16 C16       -0.1897   -19.4618    11.0598 C.ar       1 BB1          0.0000
    17 C17        0.7051   -19.3892    12.1018 C.ar       1 BB1          0.0000
    18 C18        1.4295   -20.6340    12.5945 C.3        1 BB1          0.0000
    19 H19        0.5620   -24.8409    13.8028 H          1 BB1          0.0000
    20 H20       -0.0089   -24.0828    15.3085 H          1 BB1          0.0000
    21 H21       -0.8549   -25.5045    14.6515 H          1 BB1          0.0000
    22 H22       -2.2047   -25.2984    12.5592 H          1 BB1          0.0000
    23 H23       -2.3204   -23.7300    11.7256 H          1 BB1          0.0000
    24 H24       -0.7877   -24.6349    11.7104 H          1 BB1          0.0000
    25 H25       -2.1603   -22.8125    15.3298 H          1 BB1          0.0000
    26 H26       -3.1219   -22.6658    13.8392 H          1 BB1          0.0000
    27 H27       -3.0063   -24.2341    14.6728 H          1 BB1          0.0000
    28 H28        1.3540   -20.5987    16.0336 H          1 BB1          0.0000
    29 H29        2.7796   -20.3212    15.0122 H          1 BB1          0.0000
    30 H30        0.3083   -18.5554    15.1301 H          1 BB1          0.0000
    31 H31        1.8790   -18.2031    15.8865 H          1 BB1          0.0000
    32 H32        0.7422   -16.0399    12.5692 H          1 BB1          0.0000
    33 H33       -0.8192   -16.1686    10.6722 H          1 BB1          0.0000
    34 H34       -1.4466   -18.3522     9.7301 H          1 BB1          0.0000
    35 H35       -0.4587   -20.4207    10.6418 H          1 BB1          0.0000
    36 H36        2.5063   -20.4757    12.5342 H          1 BB1          0.0000
    37 H37        1.1518   -21.4859    11.9738 H          1 BB1          0.0000
    38 O1        -0.5707   -17.3163    13.2432 O.2        2 BB2          0.0000
    39 C2        -0.2271   -16.1459    13.3298 C.2        2 BB2          0.0000
    40 C4        -0.2357   -15.2840    12.1323 C.ar       2 BB2          0.0000
    41 C5         0.2150   -15.7808    10.9070 C.ar       2 BB2          0.0000
    42 C6         0.2045   -14.9696     9.7912 C.ar       2 BB2          0.0000
    43 C7        -0.2510   -13.6665     9.8834 C.ar       2 BB2          0.0000
    44 C8        -0.6989   -13.1666    11.0947 C.ar       2 BB2          0.0000
    45 Br9       -1.3191   -11.3838    11.2084 Br         2 BB2          0.0000
    46 C10       -0.6998   -13.9688    12.2175 C.ar       2 BB2          0.0000
    47 H11        0.5712   -16.7977    10.8333 H          2 BB2          0.0000
    48 H12        0.5529   -15.3526     8.8435 H          2 BB2          0.0000
    49 H13       -0.2570   -13.0361     9.0065 H          2 BB2          0.0000
    50 H14       -1.0492   -13.5781    13.1619 H          2 BB2          0.0000
@<TRIPOS>BOND
     1      1      2 1
     2      1     19 1
     3      1     20 1
     4      1     21 1
     5      2      3 1
     6      2      4 1
     7      2      5 1
     8      3     22 1
     9      3     23 1
    10      3     24 1
    11      4     25 1
    12      4     26 1
    13      4     27 1
    14      5      6 1
    15      6      7 2
    16      6      8 am
    17      8      9 1
    18      8     18 1
    19      9     10 1
    20      9     28 1
    21      9     29 1
    22     10     11 1
    23     10     30 1
    24     10     31 1
    25     11     12 1
    26     12     13 ar
    27     12     17 ar
    28     13     14 ar
    29     13     32 1
    30     14     15 ar
    31     14     33 1
    32     15     16 ar
    33     15     34 1
    34     16     17 ar
    35     16     35 1
    36     17     18 1
    37     18     36 1
    38     18     37 1
    39     38     39 2
    40     39     40 1
    41     40     41 ar
    42     40     46 ar
    43     41     42 ar
    44     41     47 1
    45     42     43 ar
    46     42     48 1
    47     43     44 ar
    48     43     49 1
    49     44     45 1
    50     44     46 ar
    51     46     50 1
    52     11     39 am
@<TRIPOS>SUBSTRUCTURE
     1 BB1          11
     2 BB2          39
@<TRIPOS>MOLECULE
EN300-67628_i001_EN300-19857_i001_9_15_1
  50   52   2   0   0
SMALL
USER_CHARGES
@<TRIPOS>ATOM
     1 C1        -0.3181   -24.5910    14.3952 C.3        1 BB1          0.0000
     2 C2        -1.2340   -23.6716    13.5849 C.3        1 BB1          0.0000
     3 C3        -1.6679   -24.3851    12.3028 C.3        1 BB1          0.0000
     4 C4        -2.4695   -23.3208    14.4164 C.3        1 BB1          0.0000
     5 O5        -0.5190   -22.4549    13.2433 O.3        1 BB1          0.0000
     6 C6         0.0867   -21.7985    14.2508 C.2        1 BB1          0.0000
     7 O7        -0.2332   -22.0231    15.4014 O.2        1 BB1          0.0000
     8 N8         1.0479   -20.8923    13.9831 N.am       1 BB1          0.0000
     9 C9         1.7010   -20.1832    15.0874 C.3        1 BB1          0.0000
    10 C10        1.3859   -18.6991    15.0506 C.3        1 BB1          0.0000
    11 N11        1.8647   -18.1187    13.7860 N.am       1 BB1          0.0000
    12 C12        1.0207   -18.1628    12.6798 C.ar       1 BB1          0.0000
    13 C13        0.4786   -16.9997    12.1502 C.ar       1 BB1          0.0000
    14 C14       -0.3997   -17.0735    11.0862 C.ar       1 BB1          0.0000
    15 C15       -0.7444   -18.3000    10.5490 C.ar       1 BB1          0.0000
    16 C16       -0.1897   -19.4618    11.0598 C.ar       1 BB1          0.0000
    17 C17        0.7051   -19.3892    12.1018 C.ar       1 BB1          0.0000
    18 C18        1.4295   -20.6340    12.5945 C.3        1 BB1          0.0000
    19 H19        0.5620   -24.8409    13.8028 H          1 BB1          0.0000
    20 H20       -0.0089   -24.0828    15.3085 H          1 BB1          0.0000
    21 H21       -0.8549   -25.5045    14.6515 H          1 BB1          0.0000
    22 H22       -2.2047   -25.2984    12.5592 H          1 BB1          0.0000
    23 H23       -2.3204   -23.7300    11.7256 H          1 BB1          0.0000
    24 H24       -0.7877   -24.6349    11.7104 H          1 BB1          0.0000
    25 H25       -2.1603   -22.8125    15.3298 H          1 BB1          0.0000
    26 H26       -3.1219   -22.6658    13.8392 H          1 BB1          0.0000
    27 H27       -3.0063   -24.2341    14.6728 H          1 BB1          0.0000
    28 H28        1.3540   -20.5987    16.0336 H          1 BB1          0.0000
    29 H29        2.7796   -20.3212    15.0122 H          1 BB1          0.0000
    30 H30        0.3083   -18.5554    15.1301 H          1 BB1          0.0000
    31 H31        1.8790   -18.2031    15.8865 H          1 BB1          0.0000
    32 H32        0.7422   -16.0399    12.5692 H          1 BB1          0.0000
    33 H33       -0.8192   -16.1686    10.6722 H          1 BB1          0.0000
    34 H34       -1.4466   -18.3522     9.7301 H          1 BB1          0.0000
    35 H35       -0.4587   -20.4207    10.6418 H          1 BB1          0.0000
    36 H36        2.5063   -20.4757    12.5342 H          1 BB1          0.0000
    37 H37        1.1518   -21.4859    11.9738 H          1 BB1          0.0000
    38 C2         0.4308   -15.7600    12.9387 C.2        2 BB2          0.0000
    39 O3         0.9294   -16.8458    12.6777 O.2        2 BB2          0.0000
    40 C4         0.1148   -14.8131    11.8522 C.ar       2 BB2          0.0000
    41 C5        -0.7069   -13.7107    12.0991 C.ar       2 BB2          0.0000
    42 C6        -0.9985   -12.8293    11.0788 C.ar       2 BB2          0.0000
    43 C7        -0.4794   -13.0347     9.8130 C.ar       2 BB2          0.0000
    44 C8         0.3356   -14.1255     9.5602 C.ar       2 BB2          0.0000
    45 Br9        1.0393   -14.3958     7.8260 Br         2 BB2          0.0000
    46 C10        0.6406   -15.0118    10.5730 C.ar       2 BB2          0.0000
    47 H11       -1.1132   -13.5490    13.0866 H          2 BB2          0.0000
    48 H12       -1.6339   -11.9768    11.2686 H          2 BB2          0.0000
    49 H13       -0.7111   -12.3413     9.0181 H          2 BB2          0.0000
    50 H14        1.2763   -15.8623    10.3750 H          2 BB2          0.0000
@<TRIPOS>BOND
     1      1      2 1
     2      1     19 1
     3      1     20 1
     4      1     21 1
     5      2      3 1
     6      2      4 1
     7      2      5 1
     8      3     22 1
     9      3     23 1
    10      3     24 1
    11      4     25 1
    12      4     26 1
    13      4     27 1
    14      5      6 1
    15      6      7 2
    16      6      8 am
    17      8      9 1
    18      8     18 1
    19      9     10 1
    20      9     28 1
    21      9     29 1
    22     10     11 1
    23     10     30 1
    24     10     31 1
    25     11     12 1
    26     12     13 ar
    27     12     17 ar
    28     13     14 ar
    29     13     32 1
    30     14     15 ar
    31     14     33 1
    32     15     16 ar
    33     15     34 1
    34     16     17 ar
    35     16     35 1
    36     17     18 1
    37     18     36 1
    38     18     37 1
    39     38     39 2
    40     38     40 1
    41     40     41 ar
    42     40     46 ar
    43     41     42 ar
    44     41     47 1
    45     42     43 ar
    46     42     48 1
    47     43     44 ar
    48     43     49 1
    49     44     45 1
    50     44     46 ar
    51     46     50 1
    52     11     38 am
@<TRIPOS>SUBSTRUCTURE
     1 BB1          11
     2 BB2          38
@<TRIPOS>MOLECULE
EN300-67628_i001_EN300-194291_i002_9_10_1
  61   64   2   0   0
SMALL
USER_CHARGES
@<TRIPOS>ATOM
     1 C1        -0.3181   -24.5910    14.3952 C.3        1 BB1          0.0000
     2 C2        -1.2340   -23.6716    13.5849 C.3        1 BB1          0.0000
     3 C3        -1.6679   -24.3851    12.3028 C.3        1 BB1          0.0000
     4 C4        -2.4695   -23.3208    14.4164 C.3        1 BB1          0.0000
     5 O5        -0.5190   -22.4549    13.2433 O.3        1 BB1          0.0000
     6 C6         0.0867   -21.7985    14.2508 C.2        1 BB1          0.0000
     7 O7        -0.2332   -22.0231    15.4014 O.2        1 BB1          0.0000
     8 N8         1.0479   -20.8923    13.9831 N.am       1 BB1          0.0000
     9 C9         1.7010   -20.1832    15.0874 C.3        1 BB1          0.0000
    10 C10        1.3859   -18.6991    15.0506 C.3        1 BB1          0.0000
    11 N11        1.8647   -18.1187    13.7860 N.am       1 BB1          0.0000
    12 C12        1.0207   -18.1628    12.6798 C.ar       1 BB1          0.0000
    13 C13        0.4786   -16.9997    12.1502 C.ar       1 BB1          0.0000
    14 C14       -0.3997   -17.0735    11.0862 C.ar       1 BB1          0.0000
    15 C15       -0.7444   -18.3000    10.5490 C.ar       1 BB1          0.0000
    16 C16       -0.1897   -19.4618    11.0598 C.ar       1 BB1          0.0000
    17 C17        0.7051   -19.3892    12.1018 C.ar       1 BB1          0.0000
    18 C18        1.4295   -20.6340    12.5945 C.3        1 BB1          0.0000
    19 H19        0.5620   -24.8409    13.8028 H          1 BB1          0.0000
    20 H20       -0.0089   -24.0828    15.3085 H          1 BB1          0.0000
    21 H21       -0.8549   -25.5045    14.6515 H          1 BB1          0.0000
    22 H22       -2.2047   -25.2984    12.5592 H          1 BB1          0.0000
    23 H23       -2.3204   -23.7300    11.7256 H          1 BB1          0.0000
    24 H24       -0.7877   -24.6349    11.7104 H          1 BB1          0.0000
    25 H25       -2.1603   -22.8125    15.3298 H          1 BB1          0.0000
    26 H26       -3.1219   -22.6658    13.8392 H          1 BB1          0.0000
    27 H27       -3.0063   -24.2341    14.6728 H          1 BB1          0.0000
    28 H28        1.3540   -20.5987    16.0336 H          1 BB1          0.0000
    29 H29        2.7796   -20.3212    15.0122 H          1 BB1          0.0000
    30 H30        0.3083   -18.5554    15.1301 H          1 BB1          0.0000
    31 H31        1.8790   -18.2031    15.8865 H          1 BB1          0.0000
    32 H32        0.7422   -16.0399    12.5692 H          1 BB1          0.0000
    33 H33       -0.8192   -16.1686    10.6722 H          1 BB1          0.0000
    34 H34       -1.4466   -18.3522     9.7301 H          1 BB1          0.0000
    35 H35       -0.4587   -20.4207    10.6418 H          1 BB1          0.0000
    36 H36        2.5063   -20.4757    12.5342 H          1 BB1          0.0000
    37 H37        1.1518   -21.4859    11.9738 H          1 BB1          0.0000
    38 O1         1.3207   -17.2750    14.1270 O.2        2 BB2          0.0000
    39 C2         0.4763   -16.8160    13.3767 C.2        2 BB2          0.0000
    40 C4         0.6440   -15.4290    12.8118 C.3        2 BB2          0.0000
    41 C5         0.9682   -15.4824    11.3024 C.3        2 BB2          0.0000
    42 N6         0.2732   -14.3325    10.7117 N.am       2 BB2          0.0000
    43 C7        -0.6722   -13.8555    11.5396 C.2        2 BB2          0.0000
    44 O8        -1.3983   -12.9149    11.2964 O.2        2 BB2          0.0000
    45 C9        -0.6989   -14.6625    12.8189 C.3        2 BB2          0.0000
    46 C10        0.5580   -13.8011     9.4479 C.ar       2 BB2          0.0000
    47 C11        1.0908   -14.6136     8.4564 C.ar       2 BB2          0.0000
    48 C12        1.3712   -14.0886     7.2095 C.ar       2 BB2          0.0000
    49 C13        1.1219   -12.7527     6.9476 C.ar       2 BB2          0.0000
    50 F14        1.3968   -12.2416     5.7277 F          2 BB2          0.0000
    51 C15        0.5896   -11.9383     7.9363 C.ar       2 BB2          0.0000
    52 F16        0.3463   -10.6345     7.6789 F          2 BB2          0.0000
    53 C17        0.3026   -12.4621     9.1834 C.ar       2 BB2          0.0000
    54 H18        1.4110   -14.8784    13.3564 H          2 BB2          0.0000
    55 H19        2.0432   -15.3953    11.1442 H          2 BB2          0.0000
    56 H20        0.5965   -16.4110    10.8693 H          2 BB2          0.0000
    57 H21       -1.5364   -15.3602    12.8125 H          2 BB2          0.0000
    58 H22       -0.7572   -14.0031    13.6849 H          2 BB2          0.0000
    59 H23        1.2865   -15.6561     8.6598 H          2 BB2          0.0000
    60 H24        1.7856   -14.7212     6.4385 H          2 BB2          0.0000
    61 H25       -0.1119   -11.8285     9.9536 H          2 BB2          0.0000
@<TRIPOS>BOND
     1      1      2 1
     2      1     19 1
     3      1     20 1
     4      1     21 1
     5      2      3 1
     6      2      4 1
     7      2      5 1
     8      3     22 1
     9      3     23 1
    10      3     24 1
    11      4     25 1
    12      4     26 1
    13      4     27 1
    14      5      6 1
    15      6      7 2
    16      6      8 am
    17      8      9 1
    18      8     18 1
    19      9     10 1
    20      9     28 1
    21      9     29 1
    22     10     11 1
    23     10     30 1
    24     10     31 1
    25     11     12 1
    26     12     13 ar
    27     12     17 ar
    28     13     14 ar
    29     13     32 1
    30     14     15 ar
    31     14     33 1
    32     15     16 ar
    33     15     34 1
    34     16     17 ar
    35     16     35 1
    36     17     18 1
    37     18     36 1
    38     18     37 1
    39     38     39 2
    40     39     40 1
    41     40     41 1
    42     40     45 1
    43     40     54 1
    44     41     42 1
    45     41     55 1
    46     41     56 1
    47     42     43 am
    48     42     46 1
    49     43     44 2
    50     43     45 1
    51     45     57 1
    52     45     58 1
    53     46     47 ar
    54     46     53 ar
    55     47     48 ar
    56     47     59 1
    57     48     49 ar
    58     48     60 1
    59     49     50 1
    60     49     51 ar
    61     51     52 1
    62     51     53 ar
    63     53     61 1
    64     11     39 am
@<TRIPOS>SUBSTRUCTURE
     1 BB1          11
     2 BB2          39
@<TRIPOS>MOLECULE
EN300-67628_i001_EN300-194291_i002_9_13_1
  61   64   2   0   0
SMALL
USER_CHARGES
@<TRIPOS>ATOM
     1 C1        -0.3181   -24.5910    14.3952 C.3        1 BB1          0.0000
     2 C2        -1.2340   -23.6716    13.5849 C.3        1 BB1          0.0000
     3 C3        -1.6679   -24.3851    12.3028 C.3        1 BB1          0.0000
     4 C4        -2.4695   -23.3208    14.4164 C.3        1 BB1          0.0000
     5 O5        -0.5190   -22.4549    13.2433 O.3        1 BB1          0.0000
     6 C6         0.0867   -21.7985    14.2508 C.2        1 BB1          0.0000
     7 O7        -0.2332   -22.0231    15.4014 O.2        1 BB1          0.0000
     8 N8         1.0479   -20.8923    13.9831 N.am       1 BB1          0.0000
     9 C9         1.7010   -20.1832    15.0874 C.3        1 BB1          0.0000
    10 C10        1.3859   -18.6991    15.0506 C.3        1 BB1          0.0000
    11 N11        1.8647   -18.1187    13.7860 N.am       1 BB1          0.0000
    12 C12        1.0207   -18.1628    12.6798 C.ar       1 BB1          0.0000
    13 C13        0.4786   -16.9997    12.1502 C.ar       1 BB1          0.0000
    14 C14       -0.3997   -17.0735    11.0862 C.ar       1 BB1          0.0000
    15 C15       -0.7444   -18.3000    10.5490 C.ar       1 BB1          0.0000
    16 C16       -0.1897   -19.4618    11.0598 C.ar       1 BB1          0.0000
    17 C17        0.7051   -19.3892    12.1018 C.ar       1 BB1          0.0000
    18 C18        1.4295   -20.6340    12.5945 C.3        1 BB1          0.0000
    19 H19        0.5620   -24.8409    13.8028 H          1 BB1          0.0000
    20 H20       -0.0089   -24.0828    15.3085 H          1 BB1          0.0000
    21 H21       -0.8549   -25.5045    14.6515 H          1 BB1          0.0000
    22 H22       -2.2047   -25.2984    12.5592 H          1 BB1          0.0000
    23 H23       -2.3204   -23.7300    11.7256 H          1 BB1          0.0000
    24 H24       -0.7877   -24.6349    11.7104 H          1 BB1          0.0000
    25 H25       -2.1603   -22.8125    15.3298 H          1 BB1          0.0000
    26 H26       -3.1219   -22.6658    13.8392 H          1 BB1          0.0000
    27 H27       -3.0063   -24.2341    14.6728 H          1 BB1          0.0000
    28 H28        1.3540   -20.5987    16.0336 H          1 BB1          0.0000
    29 H29        2.7796   -20.3212    15.0122 H          1 BB1          0.0000
    30 H30        0.3083   -18.5554    15.1301 H          1 BB1          0.0000
    31 H31        1.8790   -18.2031    15.8865 H          1 BB1          0.0000
    32 H32        0.7422   -16.0399    12.5692 H          1 BB1          0.0000
    33 H33       -0.8192   -16.1686    10.6722 H          1 BB1          0.0000
    34 H34       -1.4466   -18.3522     9.7301 H          1 BB1          0.0000
    35 H35       -0.4587   -20.4207    10.6418 H          1 BB1          0.0000
    36 H36        2.5063   -20.4757    12.5342 H          1 BB1          0.0000
    37 H37        1.1518   -21.4859    11.9738 H          1 BB1          0.0000
    38 O1         1.5849   -17.9659    13.5861 O.2        2 BB2          0.0000
    39 C2         0.6432   -17.1940    13.6492 C.2        2 BB2          0.0000
    40 C4         0.7972   -15.7762    13.1623 C.3        2 BB2          0.0000
    41 C5         1.0164   -15.7373    11.6337 C.3        2 BB2          0.0000
    42 N6         0.3037   -14.5425    11.1662 N.am       2 BB2          0.0000
    43 C7        -0.5740   -14.1064    12.0861 C.2        2 BB2          0.0000
    44 O8        -1.2978   -13.1422    11.9535 O.2        2 BB2          0.0000
    45 C9        -0.5278   -14.9932    13.3109 C.3        2 BB2          0.0000
    46 C10        0.5111   -13.9353     9.9216 C.ar       2 BB2          0.0000
    47 C11        0.5196   -12.5510     9.8166 C.ar       2 BB2          0.0000
    48 C12        0.7248   -11.9526     8.5882 C.ar       2 BB2          0.0000
    49 C13        0.9213   -12.7319     7.4616 C.ar       2 BB2          0.0000
    50 F14        1.1217   -12.1445     6.2615 F          2 BB2          0.0000
    51 C15        0.9132   -14.1152     7.5632 C.ar       2 BB2          0.0000
    52 F16        1.1057   -14.8745     6.4624 F          2 BB2          0.0000
    53 C17        0.7139   -14.7171     8.7921 C.ar       2 BB2          0.0000
    54 H18        1.6096   -15.2722    13.6859 H          2 BB2          0.0000
    55 H19        2.0794   -15.6552    11.4071 H          2 BB2          0.0000
    56 H20        0.5990   -16.6311    11.1699 H          2 BB2          0.0000
    57 H21       -1.3764   -15.6773    13.3188 H          2 BB2          0.0000
    58 H22       -0.5147   -14.3897    14.2185 H          2 BB2          0.0000
    59 H23        0.3657   -11.9419    10.6950 H          2 BB2          0.0000
    60 H24        0.7314   -10.8757     8.5071 H          2 BB2          0.0000
    61 H25        0.7076   -15.7941     8.8719 H          2 BB2          0.0000
@<TRIPOS>BOND
     1      1      2 1
     2      1     19 1
     3      1     20 1
     4      1     21 1
     5      2      3 1
     6      2      4 1
     7      2      5 1
     8      3     22 1
     9      3     23 1
    10      3     24 1
    11      4     25 1
    12      4     26 1
    13      4     27 1
    14      5      6 1
    15      6      7 2
    16      6      8 am
    17      8      9 1
    18      8     18 1
    19      9     10 1
    20      9     28 1
    21      9     29 1
    22     10     11 1
    23     10     30 1
    24     10     31 1
    25     11     12 1
    26     12     13 ar
    27     12     17 ar
    28     13     14 ar
    29     13     32 1
    30     14     15 ar
    31     14     33 1
    32     15     16 ar
    33     15     34 1
    34     16     17 ar
    35     16     35 1
    36     17     18 1
    37     18     36 1
    38     18     37 1
    39     38     39 2
    40     39     40 1
    41     40     41 1
    42     40     45 1
    43     40     54 1
    44     41     42 1
    45     41     55 1
    46     41     56 1
    47     42     43 am
    48     42     46 1
    49     43     44 2
    50     43     45 1
    51     45     57 1
    52     45     58 1
    53     46     47 ar
    54     46     53 ar
    55     47     48 ar
    56     47     59 1
    57     48     49 ar
    58     48     60 1
    59     49     50 1
    60     49     51 ar
    61     51     52 1
    62     51     53 ar
    63     53     61 1
    64     11     39 am
@<TRIPOS>SUBSTRUCTURE
     1 BB1          11
     2 BB2          39
@<TRIPOS>MOLECULE
EN300-67628_i001_EN300-43851_i001_9_17_1
  59   62   2   0   0
SMALL
USER_CHARGES
@<TRIPOS>ATOM
     1 C1        -0.3181   -24.5910    14.3952 C.3        1 BB1          0.0000
     2 C2        -1.2340   -23.6716    13.5849 C.3        1 BB1          0.0000
     3 C3        -1.6679   -24.3851    12.3028 C.3        1 BB1          0.0000
     4 C4        -2.4695   -23.3208    14.4164 C.3        1 BB1          0.0000
     5 O5        -0.5190   -22.4549    13.2433 O.3        1 BB1          0.0000
     6 C6         0.0867   -21.7985    14.2508 C.2        1 BB1          0.0000
     7 O7        -0.2332   -22.0231    15.4014 O.2        1 BB1          0.0000
     8 N8         1.0479   -20.8923    13.9831 N.am       1 BB1          0.0000
     9 C9         1.7010   -20.1832    15.0874 C.3        1 BB1          0.0000
    10 C10        1.3859   -18.6991    15.0506 C.3        1 BB1          0.0000
    11 N11        1.8647   -18.1187    13.7860 N.am       1 BB1          0.0000
    12 C12        1.0207   -18.1628    12.6798 C.ar       1 BB1          0.0000
    13 C13        0.4786   -16.9997    12.1502 C.ar       1 BB1          0.0000
    14 C14       -0.3997   -17.0735    11.0862 C.ar       1 BB1          0.0000
    15 C15       -0.7444   -18.3000    10.5490 C.ar       1 BB1          0.0000
    16 C16       -0.1897   -19.4618    11.0598 C.ar       1 BB1          0.0000
    17 C17        0.7051   -19.3892    12.1018 C.ar       1 BB1          0.0000
    18 C18        1.4295   -20.6340    12.5945 C.3        1 BB1          0.0000
    19 H19        0.5620   -24.8409    13.8028 H          1 BB1          0.0000
    20 H20       -0.0089   -24.0828    15.3085 H          1 BB1          0.0000
    21 H21       -0.8549   -25.5045    14.6515 H          1 BB1          0.0000
    22 H22       -2.2047   -25.2984    12.5592 H          1 BB1          0.0000
    23 H23       -2.3204   -23.7300    11.7256 H          1 BB1          0.0000
    24 H24       -0.7877   -24.6349    11.7104 H          1 BB1          0.0000
    25 H25       -2.1603   -22.8125    15.3298 H          1 BB1          0.0000
    26 H26       -3.1219   -22.6658    13.8392 H          1 BB1          0.0000
    27 H27       -3.0063   -24.2341    14.6728 H          1 BB1          0.0000
    28 H28        1.3540   -20.5987    16.0336 H          1 BB1          0.0000
    29 H29        2.7796   -20.3212    15.0122 H          1 BB1          0.0000
    30 H30        0.3083   -18.5554    15.1301 H          1 BB1          0.0000
    31 H31        1.8790   -18.2031    15.8865 H          1 BB1          0.0000
    32 H32        0.7422   -16.0399    12.5692 H          1 BB1          0.0000
    33 H33       -0.8192   -16.1686    10.6722 H          1 BB1          0.0000
    34 H34       -1.4466   -18.3522     9.7301 H          1 BB1          0.0000
    35 H35       -0.4587   -20.4207    10.6418 H          1 BB1          0.0000
    36 H36        2.5063   -20.4757    12.5342 H          1 BB1          0.0000
    37 H37        1.1518   -21.4859    11.9738 H          1 BB1          0.0000
    38 C1        -0.7700   -15.3204    14.0246 C.3        2 BB2          0.0000
    39 C2         0.0727   -15.1101    12.7931 C.2        2 BB2          0.0000
    40 N3        -0.2421   -14.3920    11.7410 N.2        2 BB2          0.0000
    41 N4         0.8308   -14.4777    10.8442 N.pl3      2 BB2          0.0000
    42 N5         1.7450   -15.2240    11.3580 N.2        2 BB2          0.0000
    43 C6         1.3531   -15.6405    12.5500 C.2        2 BB2          0.0000
    44 C7         2.1177   -16.5138    13.4588 C.2        2 BB2          0.0000
    45 O9         2.9226   -17.3146    13.0040 O.2        2 BB2          0.0000
    46 C10        0.8977   -13.8527     9.5916 C.ar       2 BB2          0.0000
    47 C11        0.5259   -12.5215     9.4582 C.ar       2 BB2          0.0000
    48 C12        0.5924   -11.9074     8.2232 C.ar       2 BB2          0.0000
    49 C13        1.0295   -12.6184     7.1179 C.ar       2 BB2          0.0000
    50 F14        1.0943   -12.0159     5.9105 F          2 BB2          0.0000
    51 C15        1.4008   -13.9464     7.2489 C.ar       2 BB2          0.0000
    52 C16        1.3411   -14.5623     8.4834 C.ar       2 BB2          0.0000
    53 H17       -1.4026   -16.1972    13.8866 H          2 BB2          0.0000
    54 H18       -0.1213   -15.4725    14.8873 H          2 BB2          0.0000
    55 H19       -1.3958   -14.4435    14.1908 H          2 BB2          0.0000
    56 H20        0.1845   -11.9668    10.3197 H          2 BB2          0.0000
    57 H21        0.3030   -10.8722     8.1189 H          2 BB2          0.0000
    58 H22        1.7414   -14.4992     6.3859 H          2 BB2          0.0000
    59 H23        1.6311   -15.5977     8.5852 H          2 BB2          0.0000
@<TRIPOS>BOND
     1      1      2 1
     2      1     19 1
     3      1     20 1
     4      1     21 1
     5      2      3 1
     6      2      4 1
     7      2      5 1
     8      3     22 1
     9      3     23 1
    10      3     24 1
    11      4     25 1
    12      4     26 1
    13      4     27 1
    14      5      6 1
    15      6      7 2
    16      6      8 am
    17      8      9 1
    18      8     18 1
    19      9     10 1
    20      9     28 1
    21      9     29 1
    22     10     11 1
    23     10     30 1
    24     10     31 1
    25     11     12 1
    26     12     13 ar
    27     12     17 ar
    28     13     14 ar
    29     13     32 1
    30     14     15 ar
    31     14     33 1
    32     15     16 ar
    33     15     34 1
    34     16     17 ar
    35     16     35 1
    36     17     18 1
    37     18     36 1
    38     18     37 1
    39     38     39 1
    40     38     53 1
    41     38     54 1
    42     38     55 1
    43     39     40 2
    44     39     43 1
    45     40     41 1
    46     41     42 1
    47     41     46 1
    48     42     43 2
    49     43     44 1
    50     44     45 2
    51     46     47 ar
    52     46     52 ar
    53     47     48 ar
    54     47     56 1
    55     48     49 ar
    56     48     57 1
    57     49     50 1
    58     49     51 ar
    59     51     52 ar
    60     51     58 1
    61     52     59 1
    62     11     44 am
@<TRIPOS>SUBSTRUCTURE
     1 BB1          11
     2 BB2          44
@<TRIPOS>MOLECULE
EN300-395701_i002_EN300-1231025_i001_15_10_1
  56   56   2   0   0
SMALL
USER_CHARGES
@<TRIPOS>ATOM
     1 C1        -0.9570   -21.7709    13.7652 C.3        1 BB1          0.0000
     2 C2         0.5131   -21.7764    14.1892 C.3        1 BB1          0.0000
     3 C3         0.8092   -23.0486    14.9859 C.3        1 BB1          0.0000
     4 C4         1.4028   -21.7350    12.9451 C.3        1 BB1          0.0000
     5 O5         0.7827   -20.6138    15.0160 O.3        1 BB1          0.0000
     6 C6         0.7611   -19.4128    14.4078 C.2        1 BB1          0.0000
     7 O7         0.1977   -19.2831    13.3391 O.2        1 BB1          0.0000
     8 N8         1.3644   -18.3545    14.9844 N.am       1 BB1          0.0000
     9 C9         1.3409   -17.0477    14.3225 C.3        1 BB1          0.0000
    10 C10       -0.1101   -16.6241    14.0779 C.3        1 BB1          0.0000
    11 C11       -0.1275   -15.2877    13.3324 C.3        1 BB1          0.0000
    12 N12        0.5819   -15.4296    12.0545 N.3        1 BB1          0.0000
    13 C13        0.4667   -14.2060    11.2497 C.3        1 BB1          0.0000
    14 C14        0.4982   -14.5681     9.7635 C.3        1 BB1          0.0000
    15 N15        1.8877   -14.7957     9.3445 N.am       1 BB1          0.0000
    16 C16        1.9898   -15.7898    12.2657 C.3        1 BB1          0.0000
    17 C17        2.0703   -17.1411    12.9795 C.3        1 BB1          0.0000
    18 H18       -1.5909   -21.8004    14.6514 H          1 BB1          0.0000
    19 H19       -1.1680   -20.8644    13.1976 H          1 BB1          0.0000
    20 H20       -1.1595   -22.6436    13.1444 H          1 BB1          0.0000
    21 H21        0.6068   -23.9214    14.3651 H          1 BB1          0.0000
    22 H22        1.8565   -23.0527    15.2879 H          1 BB1          0.0000
    23 H23        0.1754   -23.0782    15.8721 H          1 BB1          0.0000
    24 H24        1.1918   -20.8286    12.3776 H          1 BB1          0.0000
    25 H25        2.4501   -21.7390    13.2472 H          1 BB1          0.0000
    26 H26        1.2003   -22.6078    12.3244 H          1 BB1          0.0000
    27 H27        1.8340   -16.3099    14.9555 H          1 BB1          0.0000
    28 H28       -0.6144   -17.3819    13.4784 H          1 BB1          0.0000
    29 H29       -0.6231   -16.5144    15.0334 H          1 BB1          0.0000
    30 H30       -1.1591   -14.9902    13.1441 H          1 BB1          0.0000
    31 H31        0.3648   -14.5272    13.9385 H          1 BB1          0.0000
    32 H32       -0.4734   -13.7056    11.4819 H          1 BB1          0.0000
    33 H33        1.2989   -13.5405    11.4793 H          1 BB1          0.0000
    34 H34       -0.0842   -15.4745     9.5979 H          1 BB1          0.0000
    35 H35        0.0723   -13.7510     9.1813 H          1 BB1          0.0000
    36 H36        2.4959   -15.8569    11.3027 H          1 BB1          0.0000
    37 H37        2.4721   -15.0269    12.8769 H          1 BB1          0.0000
    38 H38        3.1151   -17.4008    13.1501 H          1 BB1          0.0000
    39 H39        1.6004   -17.9071    12.3626 H          1 BB1          0.0000
    40 H40        1.8142   -18.4580    15.8376 H          1 BB1          0.0000
    41 H41        2.4703   -14.0488     9.6921 H          1 BB1          0.0000
    42 O1        -0.0108   -13.0788    10.2028 O.3        2 BB2          0.0000
    43 C2        -0.1427   -12.1356     9.1376 C.3        2 BB2          0.0000
    44 C3        -1.6029   -11.6929     9.0262 C.3        2 BB2          0.0000
    45 C4        -2.0558   -11.0892    10.3571 C.3        2 BB2          0.0000
    46 C5        -3.4878   -10.7565    10.2829 C.1        2 BB2          0.0000
    47 C6        -4.6299   -10.4911    10.2236 C.1        2 BB2          0.0000
    48 C7         0.2883   -12.7760     7.8433 C.2        2 BB2          0.0000
    49 O8        -0.2674   -13.7870     7.4487 O.2        2 BB2          0.0000
    50 H10        0.4855   -11.2681     9.3406 H          2 BB2          0.0000
    51 H11       -1.6970   -10.9462     8.2377 H          2 BB2          0.0000
    52 H12       -2.2265   -12.5543     8.7870 H          2 BB2          0.0000
    53 H13       -1.8914   -11.8102    11.1577 H          2 BB2          0.0000
    54 H14       -1.4826   -10.1844    10.5595 H          2 BB2          0.0000
    55 H15       -5.6514   -10.2538    10.1706 H          2 BB2          0.0000
    56 H16        0.6940   -13.7272    10.0691 H          2 BB2          0.0000
@<TRIPOS>BOND
     1      1      2 1
     2      1     18 1
     3      1     19 1
     4      1     20 1
     5      2      3 1
     6      2      4 1
     7      2      5 1
     8      3     21 1
     9      3     22 1
    10      3     23 1
    11      4     24 1
    12      4     25 1
    13      4     26 1
    14      5      6 1
    15      6      7 2
    16      6      8 am
    17      8      9 1
    18      8     40 1
    19      9     10 1
    20      9     17 1
    21      9     27 1
    22     10     11 1
    23     10     28 1
    24     10     29 1
    25     11     12 1
    26     11     30 1
    27     11     31 1
    28     12     13 1
    29     12     16 1
    30     13     14 1
    31     13     32 1
    32     13     33 1
    33     14     15 1
    34     14     34 1
    35     14     35 1
    36     15     41 1
    37     16     17 1
    38     16     36 1
    39     16     37 1
    40     17     38 1
    41     17     39 1
    42     42     43 1
    43     42     56 1
    44     43     44 1
    45     43     48 1
    46     43     50 1
    47     44     45 1
    48     44     51 1
    49     44     52 1
    50     45     46 1
    51     45     53 1
    52     45     54 1
    53     46     47 3
    54     47     55 1
    55     48     49 2
    56     15     48 am
@<TRIPOS>SUBSTRUCTURE
     1 BB1          15
     2 BB2          48
@<TRIPOS>MOLECULE
EN300-395701_i002_EN300-1231025_i001_15_7_1
  56   56   2   0   0
SMALL
USER_CHARGES
@<TRIPOS>ATOM
     1 C1        -0.9570   -21.7709    13.7652 C.3        1 BB1          0.0000
     2 C2         0.5131   -21.7764    14.1892 C.3        1 BB1          0.0000
     3 C3         0.8092   -23.0486    14.9859 C.3        1 BB1          0.0000
     4 C4         1.4028   -21.7350    12.9451 C.3        1 BB1          0.0000
     5 O5         0.7827   -20.6138    15.0160 O.3        1 BB1          0.0000
     6 C6         0.7611   -19.4128    14.4078 C.2        1 BB1          0.0000
     7 O7         0.1977   -19.2831    13.3391 O.2        1 BB1          0.0000
     8 N8         1.3644   -18.3545    14.9844 N.am       1 BB1          0.0000
     9 C9         1.3409   -17.0477    14.3225 C.3        1 BB1          0.0000
    10 C10       -0.1101   -16.6241    14.0779 C.3        1 BB1          0.0000
    11 C11       -0.1275   -15.2877    13.3324 C.3        1 BB1          0.0000
    12 N12        0.5819   -15.4296    12.0545 N.3        1 BB1          0.0000
    13 C13        0.4667   -14.2060    11.2497 C.3        1 BB1          0.0000
    14 C14        0.4982   -14.5681     9.7635 C.3        1 BB1          0.0000
    15 N15        1.8877   -14.7957     9.3445 N.am       1 BB1          0.0000
    16 C16        1.9898   -15.7898    12.2657 C.3        1 BB1          0.0000
    17 C17        2.0703   -17.1411    12.9795 C.3        1 BB1          0.0000
    18 H18       -1.5909   -21.8004    14.6514 H          1 BB1          0.0000
    19 H19       -1.1680   -20.8644    13.1976 H          1 BB1          0.0000
    20 H20       -1.1595   -22.6436    13.1444 H          1 BB1          0.0000
    21 H21        0.6068   -23.9214    14.3651 H          1 BB1          0.0000
    22 H22        1.8565   -23.0527    15.2879 H          1 BB1          0.0000
    23 H23        0.1754   -23.0782    15.8721 H          1 BB1          0.0000
    24 H24        1.1918   -20.8286    12.3776 H          1 BB1          0.0000
    25 H25        2.4501   -21.7390    13.2472 H          1 BB1          0.0000
    26 H26        1.2003   -22.6078    12.3244 H          1 BB1          0.0000
    27 H27        1.8340   -16.3099    14.9555 H          1 BB1          0.0000
    28 H28       -0.6144   -17.3819    13.4784 H          1 BB1          0.0000
    29 H29       -0.6231   -16.5144    15.0334 H          1 BB1          0.0000
    30 H30       -1.1591   -14.9902    13.1441 H          1 BB1          0.0000
    31 H31        0.3648   -14.5272    13.9385 H          1 BB1          0.0000
    32 H32       -0.4734   -13.7056    11.4819 H          1 BB1          0.0000
    33 H33        1.2989   -13.5405    11.4793 H          1 BB1          0.0000
    34 H34       -0.0842   -15.4745     9.5979 H          1 BB1          0.0000
    35 H35        0.0723   -13.7510     9.1813 H          1 BB1          0.0000
    36 H36        2.4959   -15.8569    11.3027 H          1 BB1          0.0000
    37 H37        2.4721   -15.0269    12.8769 H          1 BB1          0.0000
    38 H38        3.1151   -17.4008    13.1501 H          1 BB1          0.0000
    39 H39        1.6004   -17.9071    12.3626 H          1 BB1          0.0000
    40 H40        1.8142   -18.4580    15.8376 H          1 BB1          0.0000
    41 H41        2.4703   -14.0488     9.6921 H          1 BB1          0.0000
    42 O1         0.9936   -10.8074     9.6862 O.3        2 BB2          0.0000
    43 C2        -0.0092   -11.6993     9.1956 C.3        2 BB2          0.0000
    44 C3        -0.8010   -12.2733    10.3721 C.3        2 BB2          0.0000
    45 C4        -1.4824   -11.1339    11.1326 C.3        2 BB2          0.0000
    46 C5        -2.7640   -10.8095    10.4854 C.1        2 BB2          0.0000
    47 C6        -3.7863   -10.5508     9.9692 C.1        2 BB2          0.0000
    48 C7         0.6465   -12.8232     8.4353 C.2        2 BB2          0.0000
    49 O9         0.5504   -12.8753     7.2210 O.2        2 BB2          0.0000
    50 H10       -0.6843   -11.1578     8.5329 H          2 BB2          0.0000
    51 H11       -1.5570   -12.9641     9.9988 H          2 BB2          0.0000
    52 H12       -0.1237   -12.8032    11.0419 H          2 BB2          0.0000
    53 H13       -1.6631   -11.4415    12.1625 H          2 BB2          0.0000
    54 H14       -0.8381   -10.2547    11.1237 H          2 BB2          0.0000
    55 H15       -4.7005   -10.3194     9.5075 H          2 BB2          0.0000
    56 H16        1.1930   -10.0731     9.0894 H          2 BB2          0.0000
@<TRIPOS>BOND
     1      1      2 1
     2      1     18 1
     3      1     19 1
     4      1     20 1
     5      2      3 1
     6      2      4 1
     7      2      5 1
     8      3     21 1
     9      3     22 1
    10      3     23 1
    11      4     24 1
    12      4     25 1
    13      4     26 1
    14      5      6 1
    15      6      7 2
    16      6      8 am
    17      8      9 1
    18      8     40 1
    19      9     10 1
    20      9     17 1
    21      9     27 1
    22     10     11 1
    23     10     28 1
    24     10     29 1
    25     11     12 1
    26     11     30 1
    27     11     31 1
    28     12     13 1
    29     12     16 1
    30     13     14 1
    31     13     32 1
    32     13     33 1
    33     14     15 1
    34     14     34 1
    35     14     35 1
    36     15     41 1
    37     16     17 1
    38     16     36 1
    39     16     37 1
    40     17     38 1
    41     17     39 1
    42     42     43 1
    43     42     56 1
    44     43     44 1
    45     43     48 1
    46     43     50 1
    47     44     45 1
    48     44     51 1
    49     44     52 1
    50     45     46 1
    51     45     53 1
    52     45     54 1
    53     46     47 3
    54     47     55 1
    55     48     49 2
    56     15     48 am
@<TRIPOS>SUBSTRUCTURE
     1 BB1          15
     2 BB2          48
@<TRIPOS>MOLECULE
EN300-141346_i001_EN300-15782_i003_10_11_1
  49   49   2   0   0
SMALL
USER_CHARGES
@<TRIPOS>ATOM
     1 C1         1.4060   -13.9251     7.1693 C.3        1 BB1          0.0000
     2 C2         0.6844   -14.4053     8.4301 C.3        1 BB1          0.0000
     3 C3        -0.1434   -15.6493     8.1016 C.3        1 BB1          0.0000
     4 N4         1.6736   -14.7346     9.4650 N.am       1 BB1          0.0000
     5 C5        -0.2397   -13.2983     8.9417 C.3        1 BB1          0.0000
     6 F6         0.5074   -12.1394     9.1784 F          1 BB1          0.0000
     7 H7         0.6720   -13.6808     6.4013 H          1 BB1          0.0000
     8 H8         1.9957   -13.0388     7.4034 H          1 BB1          0.0000
     9 H9         2.0642   -14.7137     6.8048 H          1 BB1          0.0000
    10 H10        0.5149   -16.4379     7.7371 H          1 BB1          0.0000
    11 H11       -0.6574   -15.9913     8.9998 H          1 BB1          0.0000
    12 H12       -0.8774   -15.4049     7.3337 H          1 BB1          0.0000
    13 H13       -1.0058   -13.0905     8.1946 H          1 BB1          0.0000
    14 H14       -0.7141   -13.6204     9.8686 H          1 BB1          0.0000
    15 H17        2.0381   -15.6608     9.2994 H          1 BB1          0.0000
    16 C1         2.3888   -16.8238    14.4189 C.3        2 BB2          0.0000
    17 C2         1.9103   -16.1792    13.1165 C.3        2 BB2          0.0000
    18 O3         2.9070   -16.3493    12.1065 O.3        2 BB2          0.0000
    19 C4         0.6087   -16.8453    12.6658 C.3        2 BB2          0.0000
    20 N5         0.8534   -18.2651    12.4000 N.pl3      2 BB2          0.0000
    21 S6        -0.3647   -19.2187    11.8092 S.o2       2 BB2          0.0000
    22 O7        -1.5814   -18.6453    12.2674 O.2        2 BB2          0.0000
    23 O8        -0.0757   -19.4327    10.4344 O.2        2 BB2          0.0000
    24 C9        -0.2267   -20.7888    12.5969 C.ar       2 BB2          0.0000
    25 C10        0.9570   -21.1520    13.2110 C.ar       2 BB2          0.0000
    26 C11        1.0653   -22.3840    13.8291 C.ar       2 BB2          0.0000
    27 C12       -0.0101   -23.2521    13.8331 C.ar       2 BB2          0.0000
    28 C13        0.1082   -24.5951    14.5064 C.3        2 BB2          0.0000
    29 C14       -1.1946   -22.8882    13.2199 C.ar       2 BB2          0.0000
    30 C15       -2.3673   -23.8345    13.2247 C.3        2 BB2          0.0000
    31 C16       -1.3041   -21.6550    12.6054 C.ar       2 BB2          0.0000
    32 C17        0.1114   -16.1775    11.4097 C.2        2 BB2          0.0000
    33 O18       -0.0451   -14.9687    11.3830 O.2        2 BB2          0.0000
    34 H20        3.3161   -16.3492    14.7399 H          2 BB2          0.0000
    35 H21        1.6286   -16.6940    15.1892 H          2 BB2          0.0000
    36 H22        2.5626   -17.8873    14.2555 H          2 BB2          0.0000
    37 H23        1.7365   -15.1155    13.2799 H          2 BB2          0.0000
    38 H24       -0.1407   -16.7465    13.4510 H          2 BB2          0.0000
    39 H25        1.7974   -20.4736    13.2080 H          2 BB2          0.0000
    40 H26        1.9905   -22.6682    14.3085 H          2 BB2          0.0000
    41 H27       -0.1932   -24.5062    15.5500 H          2 BB2          0.0000
    42 H28       -0.5383   -25.3129    14.0014 H          2 BB2          0.0000
    43 H29        1.1417   -24.9378    14.4545 H          2 BB2          0.0000
    44 H30       -2.9797   -23.6499    14.1073 H          2 BB2          0.0000
    45 H31       -2.9659   -23.6760    12.3276 H          2 BB2          0.0000
    46 H32       -2.0048   -24.8623    13.2426 H          2 BB2          0.0000
    47 H33       -2.2295   -21.3707    12.1264 H          2 BB2          0.0000
    48 H34        2.5702   -16.7226    11.2806 H          2 BB2          0.0000
    49 H35        1.7288   -18.6466    12.5701 H          2 BB2          0.0000
@<TRIPOS>BOND
     1      1      2 1
     2      1      7 1
     3      1      8 1
     4      1      9 1
     5      2      3 1
     6      2      4 1
     7      2      5 1
     8      3     10 1
     9      3     11 1
    10      3     12 1
    11      4     15 1
    12      5      6 1
    13      5     13 1
    14      5     14 1
    15     16     17 1
    16     16     34 1
    17     16     35 1
    18     16     36 1
    19     17     18 1
    20     17     19 1
    21     17     37 1
    22     18     48 1
    23     19     20 1
    24     19     32 1
    25     19     38 1
    26     20     21 1
    27     20     49 1
    28     21     22 2
    29     21     23 2
    30     21     24 1
    31     24     25 ar
    32     24     31 ar
    33     25     26 ar
    34     25     39 1
    35     26     27 ar
    36     26     40 1
    37     27     28 1
    38     27     29 ar
    39     28     41 1
    40     28     42 1
    41     28     43 1
    42     29     30 1
    43     29     31 ar
    44     30     44 1
    45     30     45 1
    46     30     46 1
    47     31     47 1
    48     32     33 2
    49      4     32 am
@<TRIPOS>SUBSTRUCTURE
     1 BB1           4
     2 BB2          32
@<TRIPOS>MOLECULE
EN300-141346_i001_EN300-15782_i003_10_6_1
  49   49   2   0   0
SMALL
USER_CHARGES
@<TRIPOS>ATOM
     1 C1         1.4060   -13.9251     7.1693 C.3        1 BB1          0.0000
     2 C2         0.6844   -14.4053     8.4301 C.3        1 BB1          0.0000
     3 C3        -0.1434   -15.6493     8.1016 C.3        1 BB1          0.0000
     4 N4         1.6736   -14.7346     9.4650 N.am       1 BB1          0.0000
     5 C5        -0.2397   -13.2983     8.9417 C.3        1 BB1          0.0000
     6 F6         0.5074   -12.1394     9.1784 F          1 BB1          0.0000
     7 H7         0.6720   -13.6808     6.4013 H          1 BB1          0.0000
     8 H8         1.9957   -13.0388     7.4034 H          1 BB1          0.0000
     9 H9         2.0642   -14.7137     6.8048 H          1 BB1          0.0000
    10 H10        0.5149   -16.4379     7.7371 H          1 BB1          0.0000
    11 H11       -0.6574   -15.9913     8.9998 H          1 BB1          0.0000
    12 H12       -0.8774   -15.4049     7.3337 H          1 BB1          0.0000
    13 H13       -1.0058   -13.0905     8.1946 H          1 BB1          0.0000
    14 H14       -0.7141   -13.6204     9.8686 H          1 BB1          0.0000
    15 H17        2.0381   -15.6608     9.2994 H          1 BB1          0.0000
    16 C1         2.0709   -17.5199    14.3312 C.3        2 BB2          0.0000
    17 C2         2.1075   -16.5245    13.1698 C.3        2 BB2          0.0000
    18 O3         3.2140   -16.8273    12.3176 O.3        2 BB2          0.0000
    19 C4         0.8063   -16.6246    12.3711 C.3        2 BB2          0.0000
    20 N5         0.9157   -17.7103    11.3936 N.pl3      2 BB2          0.0000
    21 S6        -0.3271   -18.7896    11.2125 S.o2       2 BB2          0.0000
    22 O7        -1.4574   -18.2108    11.8500 O.2        2 BB2          0.0000
    23 O8        -0.3215   -19.1825     9.8469 O.2        2 BB2          0.0000
    24 C9         0.0891   -20.2255    12.1449 C.ar       2 BB2          0.0000
    25 C10        1.2108   -20.2238    12.9525 C.ar       2 BB2          0.0000
    26 C11        1.5374   -21.3506    13.6842 C.ar       2 BB2          0.0000
    27 C12        0.7421   -22.4784    13.6083 C.ar       2 BB2          0.0000
    28 C13        1.0985   -23.7067    14.4054 C.3        2 BB2          0.0000
    29 C14       -0.3806   -22.4796    12.8015 C.ar       2 BB2          0.0000
    30 C15       -1.2480   -23.7091    12.7192 C.3        2 BB2          0.0000
    31 C16       -0.7093   -21.3519    12.0731 C.ar       2 BB2          0.0000
    32 C17        0.5573   -15.3240    11.6517 C.2        2 BB2          0.0000
    33 O19       -0.4202   -14.6507    11.9302 O.2        2 BB2          0.0000
    34 H20        2.9979   -17.4487    14.9001 H          2 BB2          0.0000
    35 H21        1.2269   -17.2891    14.9811 H          2 BB2          0.0000
    36 H22        1.9618   -18.5313    13.9395 H          2 BB2          0.0000
    37 H23        2.2166   -15.5131    13.5614 H          2 BB2          0.0000
    38 H24       -0.0217   -16.8287    13.0498 H          2 BB2          0.0000
    39 H25        1.8323   -19.3425    13.0118 H          2 BB2          0.0000
    40 H26        2.4143   -21.3496    14.3147 H          2 BB2          0.0000
    41 H27        0.6192   -23.6571    15.3831 H          2 BB2          0.0000
    42 H28        0.7542   -24.5955    13.8767 H          2 BB2          0.0000
    43 H29        2.1799   -23.7560    14.5330 H          2 BB2          0.0000
    44 H30       -2.0221   -23.6597    13.4850 H          2 BB2          0.0000
    45 H31       -1.7135   -23.7602    11.7349 H          2 BB2          0.0000
    46 H32       -0.6359   -24.5969    12.8782 H          2 BB2          0.0000
    47 H33       -1.5864   -21.3528    11.4429 H          2 BB2          0.0000
    48 H34        2.9957   -16.8297    11.3756 H          2 BB2          0.0000
    49 H35        1.7160   -17.7969    10.8524 H          2 BB2          0.0000
@<TRIPOS>BOND
     1      1      2 1
     2      1      7 1
     3      1      8 1
     4      1      9 1
     5      2      3 1
     6      2      4 1
     7      2      5 1
     8      3     10 1
     9      3     11 1
    10      3     12 1
    11      4     15 1
    12      5      6 1
    13      5     13 1
    14      5     14 1
    15     16     17 1
    16     16     34 1
    17     16     35 1
    18     16     36 1
    19     17     18 1
    20     17     19 1
    21     17     37 1
    22     18     48 1
    23     19     20 1
    24     19     32 1
    25     19     38 1
    26     20     21 1
    27     20     49 1
    28     21     22 2
    29     21     23 2
    30     21     24 1
    31     24     25 ar
    32     24     31 ar
    33     25     26 ar
    34     25     39 1
    35     26     27 ar
    36     26     40 1
    37     27     28 1
    38     27     29 ar
    39     28     41 1
    40     28     42 1
    41     28     43 1
    42     29     30 1
    43     29     31 ar
    44     30     44 1
    45     30     45 1
    46     30     46 1
    47     31     47 1
    48     32     33 2
    49      4     32 am
@<TRIPOS>SUBSTRUCTURE
     1 BB1           4
     2 BB2          32
@<TRIPOS>MOLECULE
EN300-141346_i001_EN300-1198129_i001_13_10_1
  39   39   2   0   0
SMALL
USER_CHARGES
@<TRIPOS>ATOM
     1 C1        -0.6988    -9.7737    11.1615 C.3        1 BB1          0.0000
     2 C2        -1.3880   -10.5013    10.0055 C.3        1 BB1          0.0000
     3 C3        -2.4739    -9.6020     9.4116 C.3        1 BB1          0.0000
     4 N4        -0.3975   -10.8227     8.9693 N.am       1 BB1          0.0000
     5 C5        -2.0228   -11.7939    10.5226 C.3        1 BB1          0.0000
     6 F6        -1.0352   -12.6010    11.0975 F          1 BB1          0.0000
     7 H7        -1.4338    -9.5351    11.9304 H          1 BB1          0.0000
     8 H8         0.0748   -10.4144    11.5846 H          1 BB1          0.0000
     9 H9        -0.2466    -8.8528    10.7931 H          1 BB1          0.0000
    10 H10       -2.0217    -8.6812     9.0432 H          1 BB1          0.0000
    11 H11       -2.9648   -10.1205     8.5881 H          1 BB1          0.0000
    12 H12       -3.2088    -9.3635    10.1805 H          1 BB1          0.0000
    13 H13       -2.7772   -11.5536    11.2718 H          1 BB1          0.0000
    14 H14       -2.4901   -12.3260     9.6941 H          1 BB1          0.0000
    15 H16       -0.8479   -11.3217     8.2168 H          1 BB1          0.0000
    16 C2         0.7766   -11.6864     8.8536 C.2        2 BB2          0.0000
    17 O3         0.7605   -11.0157     9.8765 O.2        2 BB2          0.0000
    18 C4         0.5610   -13.1423     8.9236 C.ar       2 BB2          0.0000
    19 C5         0.4826   -13.7823    10.1638 C.ar       2 BB2          0.0000
    20 C6         0.2808   -15.1446    10.2217 C.ar       2 BB2          0.0000
    21 C7         0.1559   -15.8811     9.0558 C.ar       2 BB2          0.0000
    22 C8         0.2320   -15.2581     7.8239 C.ar       2 BB2          0.0000
    23 C9         0.4278   -13.8915     7.7482 C.ar       2 BB2          0.0000
    24 F10        0.5021   -13.2829     6.5444 F          2 BB2          0.0000
    25 S11        0.1818   -15.9518    11.7847 S.o2       2 BB2          0.0000
    26 O12       -0.6527   -15.1059    12.5638 O.2        2 BB2          0.0000
    27 O13       -0.2120   -17.2801    11.4689 O.2        2 BB2          0.0000
    28 C14        1.8821   -15.9252    12.4162 C.3        2 BB2          0.0000
    29 C15        1.8701   -16.1827    13.9244 C.3        2 BB2          0.0000
    30 C16        1.7754   -17.6303    14.1742 C.1        2 BB2          0.0000
    31 C17        1.6998   -18.7848    14.3735 C.1        2 BB2          0.0000
    32 H18        0.5802   -13.2106    11.0749 H          2 BB2          0.0000
    33 H19       -0.0013   -16.9483     9.1090 H          2 BB2          0.0000
    34 H20        0.1337   -15.8395     6.9191 H          2 BB2          0.0000
    35 H21        2.4663   -16.7002    11.9200 H          2 BB2          0.0000
    36 H22        2.3284   -14.9508    12.2176 H          2 BB2          0.0000
    37 H23        2.7890   -15.7972    14.3661 H          2 BB2          0.0000
    38 H24        1.0129   -15.6800    14.3721 H          2 BB2          0.0000
    39 H25        1.6324   -19.8174    14.5518 H          2 BB2          0.0000
@<TRIPOS>BOND
     1      1      2 1
     2      1      7 1
     3      1      8 1
     4      1      9 1
     5      2      3 1
     6      2      4 1
     7      2      5 1
     8      3     10 1
     9      3     11 1
    10      3     12 1
    11      4     15 1
    12      5      6 1
    13      5     13 1
    14      5     14 1
    15     16     17 2
    16     16     18 1
    17     18     19 ar
    18     18     23 ar
    19     19     20 ar
    20     19     32 1
    21     20     21 ar
    22     20     25 1
    23     21     22 ar
    24     21     33 1
    25     22     23 ar
    26     22     34 1
    27     23     24 1
    28     25     26 2
    29     25     27 2
    30     25     28 1
    31     28     29 1
    32     28     35 1
    33     28     36 1
    34     29     30 1
    35     29     37 1
    36     29     38 1
    37     30     31 3
    38     31     39 1
    39      4     16 am
@<TRIPOS>SUBSTRUCTURE
     1 BB1           4
     2 BB2          16
@<TRIPOS>MOLECULE
EN300-141346_i001_EN300-315786_i001_13_7_1
  43   44   2   0   0
SMALL
USER_CHARGES
@<TRIPOS>ATOM
     1 C1        -0.6988    -9.7737    11.1615 C.3        1 BB1          0.0000
     2 C2        -1.3880   -10.5013    10.0055 C.3        1 BB1          0.0000
     3 C3        -2.4739    -9.6020     9.4116 C.3        1 BB1          0.0000
     4 N4        -0.3975   -10.8227     8.9693 N.am       1 BB1          0.0000
     5 C5        -2.0228   -11.7939    10.5226 C.3        1 BB1          0.0000
     6 F6        -1.0352   -12.6010    11.0975 F          1 BB1          0.0000
     7 H7        -1.4338    -9.5351    11.9304 H          1 BB1          0.0000
     8 H8         0.0748   -10.4144    11.5846 H          1 BB1          0.0000
     9 H9        -0.2466    -8.8528    10.7931 H          1 BB1          0.0000
    10 H10       -2.0217    -8.6812     9.0432 H          1 BB1          0.0000
    11 H11       -2.9648   -10.1205     8.5881 H          1 BB1          0.0000
    12 H12       -3.2088    -9.3635    10.1805 H          1 BB1          0.0000
    13 H13       -2.7772   -11.5536    11.2718 H          1 BB1          0.0000
    14 H14       -2.4901   -12.3260     9.6941 H          1 BB1          0.0000
    15 H15        0.3301   -11.3981     9.3663 H          1 BB1          0.0000
    16 O1         1.3500   -12.9541     6.7816 O.2        2 BB2          0.0000
    17 C2         0.8585   -12.5198     7.8134 C.2        2 BB2          0.0000
    18 C4         0.5242   -13.4428     8.9181 C.ar       2 BB2          0.0000
    19 C5         0.7711   -14.8109     8.7844 C.ar       2 BB2          0.0000
    20 C6         0.4590   -15.6710     9.8151 C.ar       2 BB2          0.0000
    21 C7        -0.1035   -15.1754    10.9919 C.ar       2 BB2          0.0000
    22 C8        -0.3504   -13.8086    11.1261 C.ar       2 BB2          0.0000
    23 C9        -0.0335   -12.9465    10.0985 C.ar       2 BB2          0.0000
    24 C10       -0.4390   -16.1003    12.0987 C.2        2 BB2          0.0000
    25 O11       -1.5350   -16.6234    12.1423 O.2        2 BB2          0.0000
    26 N12        0.4712   -16.3621    13.0576 N.am       2 BB2          0.0000
    27 C13        0.1915   -17.3404    14.1207 C.3        2 BB2          0.0000
    28 C14        1.3690   -18.3187    14.1994 C.3        2 BB2          0.0000
    29 O15        2.5872   -17.5805    14.3205 O.3        2 BB2          0.0000
    30 C16        2.8746   -16.7379    13.2018 C.3        2 BB2          0.0000
    31 C17        1.7764   -15.6826    13.0688 C.3        2 BB2          0.0000
    32 H18        1.2061   -15.1947     7.8735 H          2 BB2          0.0000
    33 H19        0.6496   -16.7291     9.7116 H          2 BB2          0.0000
    34 H20       -0.7861   -13.4257    12.0371 H          2 BB2          0.0000
    35 H21       -0.2244   -11.8886    10.2026 H          2 BB2          0.0000
    36 H22        0.0787   -16.8242    15.0741 H          2 BB2          0.0000
    37 H23       -0.7233   -17.8849    13.8871 H          2 BB2          0.0000
    38 H24        1.2475   -18.9656    15.0683 H          2 BB2          0.0000
    39 H25        1.3994   -18.9254    13.2943 H          2 BB2          0.0000
    40 H26        3.8361   -16.2474    13.3530 H          2 BB2          0.0000
    41 H27        2.9104   -17.3388    12.2932 H          2 BB2          0.0000
    42 H28        1.9110   -15.1277    12.1404 H          2 BB2          0.0000
    43 H29        1.8205   -14.9982    13.9160 H          2 BB2          0.0000
@<TRIPOS>BOND
     1      1      2 1
     2      1      7 1
     3      1      8 1
     4      1      9 1
     5      2      3 1
     6      2      4 1
     7      2      5 1
     8      3     10 1
     9      3     11 1
    10      3     12 1
    11      4     15 1
    12      5      6 1
    13      5     13 1
    14      5     14 1
    15     16     17 2
    16     17     18 1
    17     18     19 ar
    18     18     23 ar
    19     19     20 ar
    20     19     32 1
    21     20     21 ar
    22     20     33 1
    23     21     22 ar
    24     21     24 1
    25     22     23 ar
    26     22     34 1
    27     23     35 1
    28     24     25 2
    29     24     26 am
    30     26     27 1
    31     26     31 1
    32     27     28 1
    33     27     36 1
    34     27     37 1
    35     28     29 1
    36     28     38 1
    37     28     39 1
    38     29     30 1
    39     30     31 1
    40     30     40 1
    41     30     41 1
    42     31     42 1
    43     31     43 1
    44      4     17 am
@<TRIPOS>SUBSTRUCTURE
     1 BB1           4
     2 BB2          17
@<TRIPOS>MOLECULE
EN300-141346_i001_EN300-218565_i001_14_13_1
  44   45   2   0   0
SMALL
USER_CHARGES
@<TRIPOS>ATOM
     1 C1        -1.7110   -10.7750    11.5158 C.3        1 BB1          0.0000
     2 C2        -2.4698   -10.6220    10.1960 C.3        1 BB1          0.0000
     3 C3        -3.9715   -10.7649    10.4514 C.3        1 BB1          0.0000
     4 N4        -2.1943    -9.2974     9.6236 N.am       1 BB1          0.0000
     5 C5        -2.0136   -11.7057     9.2169 C.3        1 BB1          0.0000
     6 F6        -0.6556   -11.5321     8.9287 F          1 BB1          0.0000
     7 H7        -1.9155   -11.7579    11.9406 H          1 BB1          0.0000
     8 H8        -0.6412   -10.6732    11.3339 H          1 BB1          0.0000
     9 H9        -2.0361   -10.0031    12.2133 H          1 BB1          0.0000
    10 H10       -4.2964    -9.9930    11.1489 H          1 BB1          0.0000
    11 H11       -4.5119   -10.6559     9.5111 H          1 BB1          0.0000
    12 H12       -4.1759   -11.7478    10.8761 H          1 BB1          0.0000
    13 H13       -2.1674   -12.6876     9.6644 H          1 BB1          0.0000
    14 H14       -2.5928   -11.6311     8.2966 H          1 BB1          0.0000
    15 H15       -2.5817    -9.2458     8.6933 H          1 BB1          0.0000
    16 O1        -0.4214   -10.6970    10.9568 O.2        2 BB2          0.0000
    17 C2        -0.5105   -10.9631     9.7693 C.2        2 BB2          0.0000
    18 C4        -0.0028   -12.2743     9.2558 C.2        2 BB2          0.0000
    19 O5         0.6546   -12.3131     8.2369 O.2        2 BB2          0.0000
    20 N6        -0.2759   -13.4116     9.9253 N.am       2 BB2          0.0000
    21 C7         0.2357   -14.7071     9.4530 C.3        2 BB2          0.0000
    22 C8         0.9354   -15.4096    10.6215 C.3        2 BB2          0.0000
    23 N9         0.0162   -15.4843    11.7648 N.3        2 BB2          0.0000
    24 C10       -0.3415   -14.1445    12.2496 C.3        2 BB2          0.0000
    25 C11       -1.0883   -13.3894    11.1512 C.3        2 BB2          0.0000
    26 C12        0.5574   -16.2603    12.7924 C.ar       2 BB2          0.0000
    27 C13        1.7648   -15.8982    13.3761 C.ar       2 BB2          0.0000
    28 C14        2.2968   -16.6675    14.3922 C.ar       2 BB2          0.0000
    29 C15        1.6290   -17.7971    14.8287 C.ar       2 BB2          0.0000
    30 C16        0.4268   -18.1603    14.2498 C.ar       2 BB2          0.0000
    31 C17       -0.1135   -17.3926    13.2368 C.ar       2 BB2          0.0000
    32 H18       -0.5926   -15.3211     9.0996 H          2 BB2          0.0000
    33 H19        0.9475   -14.5465     8.6433 H          2 BB2          0.0000
    34 H20        1.2240   -16.4166    10.3203 H          2 BB2          0.0000
    35 H21        1.8240   -14.8457    10.9054 H          2 BB2          0.0000
    36 H22       -0.9789   -14.2341    13.1291 H          2 BB2          0.0000
    37 H23        0.5648   -13.5983    12.5108 H          2 BB2          0.0000
    38 H24       -1.2545   -12.3584    11.4635 H          2 BB2          0.0000
    39 H25       -2.0448   -13.8752    10.9582 H          2 BB2          0.0000
    40 H26        2.2870   -15.0164    13.0355 H          2 BB2          0.0000
    41 H27        3.2357   -16.3868    14.8462 H          2 BB2          0.0000
    42 H28        2.0475   -18.3970    15.6232 H          2 BB2          0.0000
    43 H29       -0.0921   -19.0431    14.5930 H          2 BB2          0.0000
    44 H30       -1.0526   -17.6767    12.7853 H          2 BB2          0.0000
@<TRIPOS>BOND
     1      1      2 1
     2      1      7 1
     3      1      8 1
     4      1      9 1
     5      2      3 1
     6      2      4 1
     7      2      5 1
     8      3     10 1
     9      3     11 1
    10      3     12 1
    11      4     15 1
    12      5      6 1
    13      5     13 1
    14      5     14 1
    15     16     17 2
    16     17     18 1
    17     18     19 2
    18     18     20 am
    19     20     21 1
    20     20     25 1
    21     21     22 1
    22     21     32 1
    23     21     33 1
    24     22     23 1
    25     22     34 1
    26     22     35 1
    27     23     24 1
    28     23     26 1
    29     24     25 1
    30     24     36 1
    31     24     37 1
    32     25     38 1
    33     25     39 1
    34     26     27 ar
    35     26     31 ar
    36     27     28 ar
    37     27     40 1
    38     28     29 ar
    39     28     41 1
    40     29     30 ar
    41     29     42 1
    42     30     31 ar
    43     30     43 1
    44     31     44 1
    45      4     17 am
@<TRIPOS>SUBSTRUCTURE
     1 BB1           4
     2 BB2          17
@<TRIPOS>MOLECULE
EN300-141346_i001_EN300-1198129_i001_16_11_1
  39   39   2   0   0
SMALL
USER_CHARGES
@<TRIPOS>ATOM
     1 C1        -0.0906   -15.5244    13.5065 C.3        1 BB1          0.0000
     2 C2         0.9217   -16.3737    12.7352 C.3        1 BB1          0.0000
     3 C3         0.2579   -17.6774    12.2874 C.3        1 BB1          0.0000
     4 N4         1.3868   -15.6308    11.5562 N.am       1 BB1          0.0000
     5 C5         2.1138   -16.6929    13.6397 C.3        1 BB1          0.0000
     6 F6         3.0933   -17.3647    12.9005 F          1 BB1          0.0000
     7 H7        -0.4357   -16.0756    14.3813 H          1 BB1          0.0000
     8 H8         0.3824   -14.5956    13.8255 H          1 BB1          0.0000
     9 H9        -0.9398   -15.2971    12.8621 H          1 BB1          0.0000
    10 H10       -0.5913   -17.4499    11.6431 H          1 BB1          0.0000
    11 H11        0.9791   -18.2823    11.7380 H          1 BB1          0.0000
    12 H12       -0.0871   -18.2285    13.1623 H          1 BB1          0.0000
    13 H13        2.5288   -15.7655    14.0346 H          1 BB1          0.0000
    14 H14        1.7848   -17.3241    14.4652 H          1 BB1          0.0000
    15 H16        0.6510   -15.0218    11.2307 H          1 BB1          0.0000
    16 C2        -0.1070   -15.9082     9.4535 C.2        2 BB2          0.0000
    17 O3        -0.3959   -16.7803     8.6460 O.2        2 BB2          0.0000
    18 C4         0.0888   -14.5199     9.0003 C.ar       2 BB2          0.0000
    19 C5        -0.2536   -13.4529     9.8358 C.ar       2 BB2          0.0000
    20 C6        -0.0676   -12.1568     9.4051 C.ar       2 BB2          0.0000
    21 C7         0.4567   -11.9083     8.1479 C.ar       2 BB2          0.0000
    22 C8         0.7986   -12.9562     7.3134 C.ar       2 BB2          0.0000
    23 C9         0.6244   -14.2623     7.7324 C.ar       2 BB2          0.0000
    24 F10        0.9586   -15.2862     6.9169 F          2 BB2          0.0000
    25 S11       -0.4990   -10.8115    10.4579 S.o2       2 BB2          0.0000
    26 O12       -0.9885   -11.4332    11.6382 O.2        2 BB2          0.0000
    27 O13        0.6677   -10.0009    10.4867 O.2        2 BB2          0.0000
    28 C14       -1.8418    -9.9635     9.5814 C.3        2 BB2          0.0000
    29 C15       -3.0735    -9.8878    10.4860 C.3        2 BB2          0.0000
    30 C16       -4.1017   -10.8192     9.9938 C.1        2 BB2          0.0000
    31 C17       -4.9218   -11.5619     9.6012 C.1        2 BB2          0.0000
    32 H18       -0.6632   -13.6436    10.8167 H          2 BB2          0.0000
    33 H19        0.5988   -10.8901     7.8170 H          2 BB2          0.0000
    34 H20        1.2070   -12.7542     6.3343 H          2 BB2          0.0000
    35 H21       -1.5232    -8.9553     9.3166 H          2 BB2          0.0000
    36 H22       -2.0901   -10.5158     8.6751 H          2 BB2          0.0000
    37 H23       -2.7940   -10.1601    11.5037 H          2 BB2          0.0000
    38 H24       -3.4691    -8.8722    10.4771 H          2 BB2          0.0000
    39 H25       -5.6553   -12.2263     9.2502 H          2 BB2          0.0000
@<TRIPOS>BOND
     1      1      2 1
     2      1      7 1
     3      1      8 1
     4      1      9 1
     5      2      3 1
     6      2      4 1
     7      2      5 1
     8      3     10 1
     9      3     11 1
    10      3     12 1
    11      4     15 1
    12      5      6 1
    13      5     13 1
    14      5     14 1
    15     16     17 2
    16     16     18 1
    17     18     19 ar
    18     18     23 ar
    19     19     20 ar
    20     19     32 1
    21     20     21 ar
    22     20     25 1
    23     21     22 ar
    24     21     33 1
    25     22     23 ar
    26     22     34 1
    27     23     24 1
    28     25     26 2
    29     25     27 2
    30     25     28 1
    31     28     29 1
    32     28     35 1
    33     28     36 1
    34     29     30 1
    35     29     37 1
    36     29     38 1
    37     30     31 3
    38     31     39 1
    39      4     16 am
@<TRIPOS>SUBSTRUCTURE
     1 BB1           4
     2 BB2          16
@<TRIPOS>MOLECULE
EN300-141346_i001_EN300-1198129_i001_16_19_1
  39   39   2   0   0
SMALL
USER_CHARGES
@<TRIPOS>ATOM
     1 C1        -0.0906   -15.5244    13.5065 C.3        1 BB1          0.0000
     2 C2         0.9217   -16.3737    12.7352 C.3        1 BB1          0.0000
     3 C3         0.2579   -17.6774    12.2874 C.3        1 BB1          0.0000
     4 N4         1.3868   -15.6308    11.5562 N.am       1 BB1          0.0000
     5 C5         2.1138   -16.6929    13.6397 C.3        1 BB1          0.0000
     6 F6         3.0933   -17.3647    12.9005 F          1 BB1          0.0000
     7 H7        -0.4357   -16.0756    14.3813 H          1 BB1          0.0000
     8 H8         0.3824   -14.5956    13.8255 H          1 BB1          0.0000
     9 H9        -0.9398   -15.2971    12.8621 H          1 BB1          0.0000
    10 H10       -0.5913   -17.4499    11.6431 H          1 BB1          0.0000
    11 H11        0.9791   -18.2823    11.7380 H          1 BB1          0.0000
    12 H12       -0.0871   -18.2285    13.1623 H          1 BB1          0.0000
    13 H13        2.5288   -15.7655    14.0346 H          1 BB1          0.0000
    14 H14        1.7848   -17.3241    14.4652 H          1 BB1          0.0000
    15 H17        2.1950   -15.0797    11.8033 H          1 BB1          0.0000
    16 O1        -0.3046   -17.2320    10.9820 O.2        2 BB2          0.0000
    17 C2        -0.0992   -16.0437    11.1864 C.2        2 BB2          0.0000
    18 C4        -0.0979   -15.0920    10.0614 C.ar       2 BB2          0.0000
    19 C5        -0.0950   -13.7157    10.3052 C.ar       2 BB2          0.0000
    20 C6        -0.0937   -12.8313     9.2479 C.ar       2 BB2          0.0000
    21 C7        -0.0957   -13.3016     7.9456 C.ar       2 BB2          0.0000
    22 C8        -0.0987   -14.6609     7.6932 C.ar       2 BB2          0.0000
    23 C9        -0.0936   -15.5616     8.7423 C.ar       2 BB2          0.0000
    24 F10       -0.0964   -16.8898     8.4955 F          2 BB2          0.0000
    25 S11       -0.0901   -11.0963     9.5546 S.o2       2 BB2          0.0000
    26 O12        1.2590   -10.8027     9.8907 O.2        2 BB2          0.0000
    27 O13       -0.6960   -10.5347     8.3985 O.2        2 BB2          0.0000
    28 C14       -1.1656   -10.8901    11.0008 C.3        2 BB2          0.0000
    29 C15       -2.3179    -9.9470    10.6491 C.3        2 BB2          0.0000
    30 C16       -3.4317   -10.7237    10.0809 C.1        2 BB2          0.0000
    31 C17       -4.3201   -11.3431     9.6277 C.1        2 BB2          0.0000
    32 H18       -0.0940   -13.3459    11.3199 H          2 BB2          0.0000
    33 H19       -0.0955   -12.6026     7.1222 H          2 BB2          0.0000
    34 H20       -0.1002   -15.0199     6.6747 H          2 BB2          0.0000
    35 H21       -1.5669   -11.8595    11.2963 H          2 BB2          0.0000
    36 H22       -0.5898   -10.4688    11.8248 H          2 BB2          0.0000
    37 H23       -2.6551    -9.4338    11.5497 H          2 BB2          0.0000
    38 H24       -1.9769    -9.2132     9.9188 H          2 BB2          0.0000
    39 H25       -5.1147   -11.8971     9.2224 H          2 BB2          0.0000
@<TRIPOS>BOND
     1      1      2 1
     2      1      7 1
     3      1      8 1
     4      1      9 1
     5      2      3 1
     6      2      4 1
     7      2      5 1
     8      3     10 1
     9      3     11 1
    10      3     12 1
    11      4     15 1
    12      5      6 1
    13      5     13 1
    14      5     14 1
    15     16     17 2
    16     17     18 1
    17     18     19 ar
    18     18     23 ar
    19     19     20 ar
    20     19     32 1
    21     20     21 ar
    22     20     25 1
    23     21     22 ar
    24     21     33 1
    25     22     23 ar
    26     22     34 1
    27     23     24 1
    28     25     26 2
    29     25     27 2
    30     25     28 1
    31     28     29 1
    32     28     35 1
    33     28     36 1
    34     29     30 1
    35     29     37 1
    36     29     38 1
    37     30     31 3
    38     31     39 1
    39      4     17 am
@<TRIPOS>SUBSTRUCTURE
     1 BB1           4
     2 BB2          17
@<TRIPOS>MOLECULE
EN300-141346_i001_EN300-4287209_i001_16_3_1
  30   30   2   0   0
SMALL
USER_CHARGES
@<TRIPOS>ATOM
     1 C1        -0.0906   -15.5244    13.5065 C.3        1 BB1          0.0000
     2 C2         0.9217   -16.3737    12.7352 C.3        1 BB1          0.0000
     3 C3         0.2579   -17.6774    12.2874 C.3        1 BB1          0.0000
     4 N4         1.3868   -15.6308    11.5562 N.am       1 BB1          0.0000
     5 C5         2.1138   -16.6929    13.6397 C.3        1 BB1          0.0000
     6 F6         3.0933   -17.3647    12.9005 F          1 BB1          0.0000
     7 H7        -0.4357   -16.0756    14.3813 H          1 BB1          0.0000
     8 H8         0.3824   -14.5956    13.8255 H          1 BB1          0.0000
     9 H9        -0.9398   -15.2971    12.8621 H          1 BB1          0.0000
    10 H10       -0.5913   -17.4499    11.6431 H          1 BB1          0.0000
    11 H11        0.9791   -18.2823    11.7380 H          1 BB1          0.0000
    12 H12       -0.0871   -18.2285    13.1623 H          1 BB1          0.0000
    13 H13        2.5288   -15.7655    14.0346 H          1 BB1          0.0000
    14 H14        1.7848   -17.3241    14.4652 H          1 BB1          0.0000
    15 H15        1.6336   -16.2808    10.8250 H          1 BB1          0.0000
    16 C2        -0.0043   -14.5201    11.5040 C.2        2 BB2          0.0000
    17 O3        -0.5778   -14.6411    12.5774 O.2        2 BB2          0.0000
    18 C4        -0.4017   -13.4480    10.5724 C.ar       2 BB2          0.0000
    19 C5        -1.5033   -12.6425    10.8617 C.ar       2 BB2          0.0000
    20 C6        -1.8709   -11.6325     9.9767 C.ar       2 BB2          0.0000
    21 C7        -3.0001   -10.8010    10.2667 C.1        2 BB2          0.0000
    22 C8        -3.9259   -10.1193    10.5044 C.1        2 BB2          0.0000
    23 C9        -1.1364   -11.4311     8.8058 C.ar       2 BB2          0.0000
    24 C10       -0.0472   -12.2308     8.5230 C.ar       2 BB2          0.0000
    25 C11        0.3287   -13.2319     9.3982 C.ar       2 BB2          0.0000
    26 Cl12       1.6998   -14.2324     9.0338 Cl         2 BB2          0.0000
    27 H13       -2.0687   -12.8018    11.7680 H          2 BB2          0.0000
    28 H14       -4.7538    -9.5095    10.7170 H          2 BB2          0.0000
    29 H15       -1.4217   -10.6476     8.1195 H          2 BB2          0.0000
    30 H16        0.5164   -12.0702     7.6158 H          2 BB2          0.0000
@<TRIPOS>BOND
     1      1      2 1
     2      1      7 1
     3      1      8 1
     4      1      9 1
     5      2      3 1
     6      2      4 1
     7      2      5 1
     8      3     10 1
     9      3     11 1
    10      3     12 1
    11      4     15 1
    12      5      6 1
    13      5     13 1
    14      5     14 1
    15     16     17 2
    16     16     18 1
    17     18     19 ar
    18     18     25 ar
    19     19     20 ar
    20     19     27 1
    21     20     21 1
    22     20     23 ar
    23     21     22 3
    24     22     28 1
    25     23     24 ar
    26     23     29 1
    27     24     25 ar
    28     24     30 1
    29     25     26 1
    30      4     16 am
@<TRIPOS>SUBSTRUCTURE
     1 BB1           4
     2 BB2          16
@<TRIPOS>MOLECULE
EN300-141346_i001_EN300-19857_i001_16_20_1
  28   28   2   0   0
SMALL
USER_CHARGES
@<TRIPOS>ATOM
     1 C1        -0.0906   -15.5244    13.5065 C.3        1 BB1          0.0000
     2 C2         0.9217   -16.3737    12.7352 C.3        1 BB1          0.0000
     3 C3         0.2579   -17.6774    12.2874 C.3        1 BB1          0.0000
     4 N4         1.3868   -15.6308    11.5562 N.am       1 BB1          0.0000
     5 C5         2.1138   -16.6929    13.6397 C.3        1 BB1          0.0000
     6 F6         3.0933   -17.3647    12.9005 F          1 BB1          0.0000
     7 H7        -0.4357   -16.0756    14.3813 H          1 BB1          0.0000
     8 H8         0.3824   -14.5956    13.8255 H          1 BB1          0.0000
     9 H9        -0.9398   -15.2971    12.8621 H          1 BB1          0.0000
    10 H10       -0.5913   -17.4499    11.6431 H          1 BB1          0.0000
    11 H11        0.9791   -18.2823    11.7380 H          1 BB1          0.0000
    12 H12       -0.0871   -18.2285    13.1623 H          1 BB1          0.0000
    13 H13        2.5288   -15.7655    14.0346 H          1 BB1          0.0000
    14 H14        1.7848   -17.3241    14.4652 H          1 BB1          0.0000
    15 H15        1.6336   -16.2808    10.8250 H          1 BB1          0.0000
    16 O1        -0.6801   -14.7334    12.2748 O.2        2 BB2          0.0000
    17 C2        -0.0612   -14.3703    11.2846 C.2        2 BB2          0.0000
    18 C4        -0.4899   -13.1665    10.5471 C.ar       2 BB2          0.0000
    19 C5         0.2870   -12.6738     9.4958 C.ar       2 BB2          0.0000
    20 C6        -0.1195   -11.5478     8.8104 C.ar       2 BB2          0.0000
    21 C7        -1.2938   -10.9062     9.1618 C.ar       2 BB2          0.0000
    22 C8        -2.0692   -11.3882    10.2031 C.ar       2 BB2          0.0000
    23 Br9       -3.6723   -10.5028    10.6742 Br         2 BB2          0.0000
    24 C10       -1.6778   -12.5173    10.8933 C.ar       2 BB2          0.0000
    25 H11        1.2041   -13.1732     9.2205 H          2 BB2          0.0000
    26 H12        0.4805   -11.1659     7.9978 H          2 BB2          0.0000
    27 H13       -1.6071   -10.0250     8.6216 H          2 BB2          0.0000
    28 H14       -2.2830   -12.8926    11.7053 H          2 BB2          0.0000
@<TRIPOS>BOND
     1      1      2 1
     2      1      7 1
     3      1      8 1
     4      1      9 1
     5      2      3 1
     6      2      4 1
     7      2      5 1
     8      3     10 1
     9      3     11 1
    10      3     12 1
    11      4     15 1
    12      5      6 1
    13      5     13 1
    14      5     14 1
    15     16     17 2
    16     17     18 1
    17     18     19 ar
    18     18     24 ar
    19     19     20 ar
    20     19     25 1
    21     20     21 ar
    22     20     26 1
    23     21     22 ar
    24     21     27 1
    25     22     23 1
    26     22     24 ar
    27     24     28 1
    28      4     17 am
@<TRIPOS>SUBSTRUCTURE
     1 BB1           4
     2 BB2          17
@<TRIPOS>MOLECULE
EN300-141346_i001_EN300-222254_i002_16_7_1
  38   39   2   0   0
SMALL
USER_CHARGES
@<TRIPOS>ATOM
     1 C1        -0.0906   -15.5244    13.5065 C.3        1 BB1          0.0000
     2 C2         0.9217   -16.3737    12.7352 C.3        1 BB1          0.0000
     3 C3         0.2579   -17.6774    12.2874 C.3        1 BB1          0.0000
     4 N4         1.3868   -15.6308    11.5562 N.am       1 BB1          0.0000
     5 C5         2.1138   -16.6929    13.6397 C.3        1 BB1          0.0000
     6 F6         3.0933   -17.3647    12.9005 F          1 BB1          0.0000
     7 H7        -0.4357   -16.0756    14.3813 H          1 BB1          0.0000
     8 H8         0.3824   -14.5956    13.8255 H          1 BB1          0.0000
     9 H9        -0.9398   -15.2971    12.8621 H          1 BB1          0.0000
    10 H10       -0.5913   -17.4499    11.6431 H          1 BB1          0.0000
    11 H11        0.9791   -18.2823    11.7380 H          1 BB1          0.0000
    12 H12       -0.0871   -18.2285    13.1623 H          1 BB1          0.0000
    13 H13        2.5288   -15.7655    14.0346 H          1 BB1          0.0000
    14 H14        1.7848   -17.3241    14.4652 H          1 BB1          0.0000
    15 H15        1.6336   -16.2808    10.8250 H          1 BB1          0.0000
    16 C2         0.0691   -14.5794    11.3943 C.2        2 BB2          0.0000
    17 O3        -0.6133   -14.3621    12.3811 O.2        2 BB2          0.0000
    18 C4        -0.3286   -14.0010    10.0609 C.3        2 BB2          0.0000
    19 C5         0.7881   -14.0614     9.0053 C.3        2 BB2          0.0000
    20 C6         0.3404   -12.6575     8.5654 C.3        2 BB2          0.0000
    21 C7        -0.2035   -12.4698     9.9915 C.3        2 BB2          0.0000
    22 C8        -1.5280   -11.7529    10.0428 C.ar       2 BB2          0.0000
    23 C9        -2.6243   -12.2791     9.3866 C.ar       2 BB2          0.0000
    24 C10       -3.8397   -11.6218     9.4328 C.ar       2 BB2          0.0000
    25 C11       -3.9599   -10.4369    10.1366 C.ar       2 BB2          0.0000
    26 Cl12      -5.4867    -9.6127    10.1944 Cl         2 BB2          0.0000
    27 C13       -2.8635    -9.9090    10.7946 C.ar       2 BB2          0.0000
    28 C14       -1.6479   -10.5698    10.7526 C.ar       2 BB2          0.0000
    29 F15       -0.5765   -10.0555    11.3951 F          2 BB2          0.0000
    30 H16       -1.2870   -14.3786     9.7046 H          2 BB2          0.0000
    31 H17        1.7910   -14.0862     9.4316 H          2 BB2          0.0000
    32 H18        0.6306   -14.8277     8.2463 H          2 BB2          0.0000
    33 H19        1.1683   -11.9913     8.3226 H          2 BB2          0.0000
    34 H20       -0.4354   -12.6666     7.7998 H          2 BB2          0.0000
    35 H21        0.5283   -12.0595    10.6874 H          2 BB2          0.0000
    36 H22       -2.5316   -13.2041     8.8369 H          2 BB2          0.0000
    37 H23       -4.6958   -12.0336     8.9190 H          2 BB2          0.0000
    38 H24       -2.9569    -8.9840    11.3440 H          2 BB2          0.0000
@<TRIPOS>BOND
     1      1      2 1
     2      1      7 1
     3      1      8 1
     4      1      9 1
     5      2      3 1
     6      2      4 1
     7      2      5 1
     8      3     10 1
     9      3     11 1
    10      3     12 1
    11      4     15 1
    12      5      6 1
    13      5     13 1
    14      5     14 1
    15     16     17 2
    16     16     18 1
    17     18     19 1
    18     18     21 1
    19     18     30 1
    20     19     20 1
    21     19     31 1
    22     19     32 1
    23     20     21 1
    24     20     33 1
    25     20     34 1
    26     21     22 1
    27     21     35 1
    28     22     23 ar
    29     22     28 ar
    30     23     24 ar
    31     23     36 1
    32     24     25 ar
    33     24     37 1
    34     25     26 1
    35     25     27 ar
    36     27     28 ar
    37     27     38 1
    38     28     29 1
    39      4     16 am
@<TRIPOS>SUBSTRUCTURE
     1 BB1           4
     2 BB2          16
@<TRIPOS>MOLECULE
EN300-141346_i001_EN300-306118_i001_16_10_1
  37   38   2   0   0
SMALL
USER_CHARGES
@<TRIPOS>ATOM
     1 C1        -0.0906   -15.5244    13.5065 C.3        1 BB1          0.0000
     2 C2         0.9217   -16.3737    12.7352 C.3        1 BB1          0.0000
     3 C3         0.2579   -17.6774    12.2874 C.3        1 BB1          0.0000
     4 N4         1.3868   -15.6308    11.5562 N.am       1 BB1          0.0000
     5 C5         2.1138   -16.6929    13.6397 C.3        1 BB1          0.0000
     6 F6         3.0933   -17.3647    12.9005 F          1 BB1          0.0000
     7 H7        -0.4357   -16.0756    14.3813 H          1 BB1          0.0000
     8 H8         0.3824   -14.5956    13.8255 H          1 BB1          0.0000
     9 H9        -0.9398   -15.2971    12.8621 H          1 BB1          0.0000
    10 H10       -0.5913   -17.4499    11.6431 H          1 BB1          0.0000
    11 H11        0.9791   -18.2823    11.7380 H          1 BB1          0.0000
    12 H12       -0.0871   -18.2285    13.1623 H          1 BB1          0.0000
    13 H13        2.5288   -15.7655    14.0346 H          1 BB1          0.0000
    14 H14        1.7848   -17.3241    14.4652 H          1 BB1          0.0000
    15 H15        1.6336   -16.2808    10.8250 H          1 BB1          0.0000
    16 O1        -0.6922   -13.8017    11.4451 O.2        2 BB2          0.0000
    17 C2         0.1195   -14.4038    10.7566 C.2        2 BB2          0.0000
    18 C4         0.4114   -13.9416     9.3863 C.ar       2 BB2          0.0000
    19 C5         0.5717   -14.8674     8.3525 C.ar       2 BB2          0.0000
    20 C6         0.8445   -14.4280     7.0737 C.ar       2 BB2          0.0000
    21 C7         0.9599   -13.0739     6.8139 C.ar       2 BB2          0.0000
    22 C8         0.8024   -12.1509     7.8331 C.ar       2 BB2          0.0000
    23 C9         0.5231   -12.5754     9.1151 C.ar       2 BB2          0.0000
    24 C10        0.3514   -11.5687    10.2234 C.3        2 BB2          0.0000
    25 N11       -1.0436   -11.1231    10.2665 N.pl3      2 BB2          0.0000
    26 C12       -1.4690    -9.8410    10.1885 C.2        2 BB2          0.0000
    27 C13       -2.8194    -9.8863    10.2682 C.2        2 BB2          0.0000
    28 N14       -3.1497   -11.1769    10.3896 N.2        2 BB2          0.0000
    29 N15       -2.0753   -11.8843    10.3797 N.2        2 BB2          0.0000
    30 H16        0.4826   -15.9247     8.5541 H          2 BB2          0.0000
    31 H17        0.9688   -15.1425     6.2735 H          2 BB2          0.0000
    32 H18        1.1744   -12.7356     5.8108 H          2 BB2          0.0000
    33 H19        0.8941   -11.0955     7.6231 H          2 BB2          0.0000
    34 H20        0.6156   -12.0283    11.1758 H          2 BB2          0.0000
    35 H21        1.0008   -10.7127    10.0405 H          2 BB2          0.0000
    36 H22       -0.8546    -8.9590    10.0839 H          2 BB2          0.0000
    37 H23       -3.4970    -9.0458    10.2398 H          2 BB2          0.0000
@<TRIPOS>BOND
     1      1      2 1
     2      1      7 1
     3      1      8 1
     4      1      9 1
     5      2      3 1
     6      2      4 1
     7      2      5 1
     8      3     10 1
     9      3     11 1
    10      3     12 1
    11      4     15 1
    12      5      6 1
    13      5     13 1
    14      5     14 1
    15     16     17 2
    16     17     18 1
    17     18     19 ar
    18     18     23 ar
    19     19     20 ar
    20     19     30 1
    21     20     21 ar
    22     20     31 1
    23     21     22 ar
    24     21     32 1
    25     22     23 ar
    26     22     33 1
    27     23     24 1
    28     24     25 1
    29     24     34 1
    30     24     35 1
    31     25     26 1
    32     25     29 1
    33     26     27 2
    34     26     36 1
    35     27     28 1
    36     27     37 1
    37     28     29 2
    38      4     17 am
@<TRIPOS>SUBSTRUCTURE
     1 BB1           4
     2 BB2          17
@<TRIPOS>MOLECULE
EN300-141346_i001_EN300-306118_i001_16_13_1
  37   38   2   0   0
SMALL
USER_CHARGES
@<TRIPOS>ATOM
     1 C1        -0.0906   -15.5244    13.5065 C.3        1 BB1          0.0000
     2 C2         0.9217   -16.3737    12.7352 C.3        1 BB1          0.0000
     3 C3         0.2579   -17.6774    12.2874 C.3        1 BB1          0.0000
     4 N4         1.3868   -15.6308    11.5562 N.am       1 BB1          0.0000
     5 C5         2.1138   -16.6929    13.6397 C.3        1 BB1          0.0000
     6 F6         3.0933   -17.3647    12.9005 F          1 BB1          0.0000
     7 H7        -0.4357   -16.0756    14.3813 H          1 BB1          0.0000
     8 H8         0.3824   -14.5956    13.8255 H          1 BB1          0.0000
     9 H9        -0.9398   -15.2971    12.8621 H          1 BB1          0.0000
    10 H10       -0.5913   -17.4499    11.6431 H          1 BB1          0.0000
    11 H11        0.9791   -18.2823    11.7380 H          1 BB1          0.0000
    12 H12       -0.0871   -18.2285    13.1623 H          1 BB1          0.0000
    13 H13        2.5288   -15.7655    14.0346 H          1 BB1          0.0000
    14 H14        1.7848   -17.3241    14.4652 H          1 BB1          0.0000
    15 H15        1.6336   -16.2808    10.8250 H          1 BB1          0.0000
    16 C2        -0.2542   -14.4147    11.0220 C.2        2 BB2          0.0000
    17 O3        -0.3346   -13.9939    12.1675 O.2        2 BB2          0.0000
    18 C4        -0.0888   -13.4717     9.8995 C.ar       2 BB2          0.0000
    19 C5         0.7755   -13.7793     8.8460 C.ar       2 BB2          0.0000
    20 C6         0.9252   -12.8927     7.7999 C.ar       2 BB2          0.0000
    21 C7         0.2221   -11.7011     7.7926 C.ar       2 BB2          0.0000
    22 C8        -0.6359   -11.3897     8.8329 C.ar       2 BB2          0.0000
    23 C9        -0.8003   -12.2692     9.8823 C.ar       2 BB2          0.0000
    24 C10       -1.7356   -11.9285    11.0138 C.3        2 BB2          0.0000
    25 N11       -2.8881   -11.1914    10.4898 N.pl3      2 BB2          0.0000
    26 C12       -3.9824   -11.7380     9.9113 C.2        2 BB2          0.0000
    27 C13       -4.7891   -10.7036     9.5780 C.2        2 BB2          0.0000
    28 N14       -4.1572    -9.5894     9.9637 N.2        2 BB2          0.0000
    29 N15       -3.0361    -9.9129    10.5053 N.2        2 BB2          0.0000
    30 H16        1.3254   -14.7088     8.8509 H          2 BB2          0.0000
    31 H17        1.5931   -13.1291     6.9848 H          2 BB2          0.0000
    32 H18        0.3438   -11.0104     6.9712 H          2 BB2          0.0000
    33 H19       -1.1813   -10.4576     8.8207 H          2 BB2          0.0000
    34 H20       -2.0780   -12.8466    11.4912 H          2 BB2          0.0000
    35 H21       -1.2121   -11.3124    11.7448 H          2 BB2          0.0000
    36 H22       -4.1735   -12.7883     9.7481 H          2 BB2          0.0000
    37 H23       -5.7532   -10.7654     9.0952 H          2 BB2          0.0000
@<TRIPOS>BOND
     1      1      2 1
     2      1      7 1
     3      1      8 1
     4      1      9 1
     5      2      3 1
     6      2      4 1
     7      2      5 1
     8      3     10 1
     9      3     11 1
    10      3     12 1
    11      4     15 1
    12      5      6 1
    13      5     13 1
    14      5     14 1
    15     16     17 2
    16     16     18 1
    17     18     19 ar
    18     18     23 ar
    19     19     20 ar
    20     19     30 1
    21     20     21 ar
    22     20     31 1
    23     21     22 ar
    24     21     32 1
    25     22     23 ar
    26     22     33 1
    27     23     24 1
    28     24     25 1
    29     24     34 1
    30     24     35 1
    31     25     26 1
    32     25     29 1
    33     26     27 2
    34     26     36 1
    35     27     28 1
    36     27     37 1
    37     28     29 2
    38      4     16 am
@<TRIPOS>SUBSTRUCTURE
     1 BB1           4
     2 BB2          16
@<TRIPOS>MOLECULE
EN300-141346_i001_EN300-306118_i001_16_17_1
  37   38   2   0   0
SMALL
USER_CHARGES
@<TRIPOS>ATOM
     1 C1        -0.0906   -15.5244    13.5065 C.3        1 BB1          0.0000
     2 C2         0.9217   -16.3737    12.7352 C.3        1 BB1          0.0000
     3 C3         0.2579   -17.6774    12.2874 C.3        1 BB1          0.0000
     4 N4         1.3868   -15.6308    11.5562 N.am       1 BB1          0.0000
     5 C5         2.1138   -16.6929    13.6397 C.3        1 BB1          0.0000
     6 F6         3.0933   -17.3647    12.9005 F          1 BB1          0.0000
     7 H7        -0.4357   -16.0756    14.3813 H          1 BB1          0.0000
     8 H8         0.3824   -14.5956    13.8255 H          1 BB1          0.0000
     9 H9        -0.9398   -15.2971    12.8621 H          1 BB1          0.0000
    10 H10       -0.5913   -17.4499    11.6431 H          1 BB1          0.0000
    11 H11        0.9791   -18.2823    11.7380 H          1 BB1          0.0000
    12 H12       -0.0871   -18.2285    13.1623 H          1 BB1          0.0000
    13 H13        2.5288   -15.7655    14.0346 H          1 BB1          0.0000
    14 H14        1.7848   -17.3241    14.4652 H          1 BB1          0.0000
    15 H17        2.1950   -15.0797    11.8033 H          1 BB1          0.0000
    16 O1        -0.1025   -16.2314     9.1013 O.2        2 BB2          0.0000
    17 C2         0.1377   -15.1500     9.6193 C.2        2 BB2          0.0000
    18 C4         0.3036   -13.9496     8.7778 C.ar       2 BB2          0.0000
    19 C5         0.9945   -14.0317     7.5664 C.ar       2 BB2          0.0000
    20 C6         1.1457   -12.9052     6.7847 C.ar       2 BB2          0.0000
    21 C7         0.6154   -11.6960     7.1982 C.ar       2 BB2          0.0000
    22 C8        -0.0703   -11.6071     8.3972 C.ar       2 BB2          0.0000
    23 C9        -0.2347   -12.7263     9.1858 C.ar       2 BB2          0.0000
    24 C10       -0.9821   -12.6276    10.4908 C.3        2 BB2          0.0000
    25 N11       -2.0934   -11.6839    10.3468 N.pl3      2 BB2          0.0000
    26 C12       -1.9923   -10.3346    10.3447 C.2        2 BB2          0.0000
    27 C13       -3.2511    -9.8624    10.1881 C.2        2 BB2          0.0000
    28 N14       -4.0501   -10.9319    10.1033 N.2        2 BB2          0.0000
    29 N15       -3.3329   -11.9958    10.1953 N.2        2 BB2          0.0000
    30 H16        1.4095   -14.9748     7.2428 H          2 BB2          0.0000
    31 H17        1.6796   -12.9671     5.8480 H          2 BB2          0.0000
    32 H18        0.7375   -10.8170     6.5825 H          2 BB2          0.0000
    33 H19       -0.4813   -10.6599     8.7138 H          2 BB2          0.0000
    34 H20       -1.3716   -13.6090    10.7615 H          2 BB2          0.0000
    35 H21       -0.3064   -12.2770    11.2708 H          2 BB2          0.0000
    36 H22       -1.0890    -9.7516    10.4475 H          2 BB2          0.0000
    37 H23       -3.5514    -8.8261    10.1412 H          2 BB2          0.0000
@<TRIPOS>BOND
     1      1      2 1
     2      1      7 1
     3      1      8 1
     4      1      9 1
     5      2      3 1
     6      2      4 1
     7      2      5 1
     8      3     10 1
     9      3     11 1
    10      3     12 1
    11      4     15 1
    12      5      6 1
    13      5     13 1
    14      5     14 1
    15     16     17 2
    16     17     18 1
    17     18     19 ar
    18     18     23 ar
    19     19     20 ar
    20     19     30 1
    21     20     21 ar
    22     20     31 1
    23     21     22 ar
    24     21     32 1
    25     22     23 ar
    26     22     33 1
    27     23     24 1
    28     24     25 1
    29     24     34 1
    30     24     35 1
    31     25     26 1
    32     25     29 1
    33     26     27 2
    34     26     36 1
    35     27     28 1
    36     27     37 1
    37     28     29 2
    38      4     17 am
@<TRIPOS>SUBSTRUCTURE
     1 BB1           4
     2 BB2          17
@<TRIPOS>MOLECULE
EN300-141346_i001_EN300-306118_i001_16_2_1
  37   38   2   0   0
SMALL
USER_CHARGES
@<TRIPOS>ATOM
     1 C1        -0.0906   -15.5244    13.5065 C.3        1 BB1          0.0000
     2 C2         0.9217   -16.3737    12.7352 C.3        1 BB1          0.0000
     3 C3         0.2579   -17.6774    12.2874 C.3        1 BB1          0.0000
     4 N4         1.3868   -15.6308    11.5562 N.am       1 BB1          0.0000
     5 C5         2.1138   -16.6929    13.6397 C.3        1 BB1          0.0000
     6 F6         3.0933   -17.3647    12.9005 F          1 BB1          0.0000
     7 H7        -0.4357   -16.0756    14.3813 H          1 BB1          0.0000
     8 H8         0.3824   -14.5956    13.8255 H          1 BB1          0.0000
     9 H9        -0.9398   -15.2971    12.8621 H          1 BB1          0.0000
    10 H10       -0.5913   -17.4499    11.6431 H          1 BB1          0.0000
    11 H11        0.9791   -18.2823    11.7380 H          1 BB1          0.0000
    12 H12       -0.0871   -18.2285    13.1623 H          1 BB1          0.0000
    13 H13        2.5288   -15.7655    14.0346 H          1 BB1          0.0000
    14 H14        1.7848   -17.3241    14.4652 H          1 BB1          0.0000
    15 H17        2.1950   -15.0797    11.8033 H          1 BB1          0.0000
    16 O1        -0.3996   -15.0968    11.7939 O.2        2 BB2          0.0000
    17 C2         0.6326   -14.8679    11.1794 C.2        2 BB2          0.0000
    18 C4         0.5817   -14.1401     9.8971 C.ar       2 BB2          0.0000
    19 C5         1.3893   -14.5408     8.8300 C.ar       2 BB2          0.0000
    20 C6         1.3364   -13.8555     7.6340 C.ar       2 BB2          0.0000
    21 C7         0.4864   -12.7733     7.4900 C.ar       2 BB2          0.0000
    22 C8        -0.3166   -12.3706     8.5429 C.ar       2 BB2          0.0000
    23 C9        -0.2789   -13.0501     9.7423 C.ar       2 BB2          0.0000
    24 C10       -1.1546   -12.6104    10.8873 C.3        2 BB2          0.0000
    25 N11       -2.0673   -11.5601    10.4288 N.pl3      2 BB2          0.0000
    26 C12       -1.7295   -10.2775    10.1613 C.2        2 BB2          0.0000
    27 C13       -2.8693    -9.6610     9.7705 C.2        2 BB2          0.0000
    28 N14       -3.8360   -10.5845     9.8175 N.2        2 BB2          0.0000
    29 N15       -3.3272   -11.7003    10.2060 N.2        2 BB2          0.0000
    30 H16        2.0538   -15.3849     8.9414 H          2 BB2          0.0000
    31 H17        1.9603   -14.1641     6.8083 H          2 BB2          0.0000
    32 H18        0.4497   -12.2400     6.5515 H          2 BB2          0.0000
    33 H19       -0.9775   -11.5248     8.4234 H          2 BB2          0.0000
    34 H20       -1.7320   -13.4605    11.2504 H          2 BB2          0.0000
    35 H21       -0.5313   -12.2235    11.6935 H          2 BB2          0.0000
    36 H22       -0.7479    -9.8347    10.2433 H          2 BB2          0.0000
    37 H23       -2.9773    -8.6269     9.4786 H          2 BB2          0.0000
@<TRIPOS>BOND
     1      1      2 1
     2      1      7 1
     3      1      8 1
     4      1      9 1
     5      2      3 1
     6      2      4 1
     7      2      5 1
     8      3     10 1
     9      3     11 1
    10      3     12 1
    11      4     15 1
    12      5      6 1
    13      5     13 1
    14      5     14 1
    15     16     17 2
    16     17     18 1
    17     18     19 ar
    18     18     23 ar
    19     19     20 ar
    20     19     30 1
    21     20     21 ar
    22     20     31 1
    23     21     22 ar
    24     21     32 1
    25     22     23 ar
    26     22     33 1
    27     23     24 1
    28     24     25 1
    29     24     34 1
    30     24     35 1
    31     25     26 1
    32     25     29 1
    33     26     27 2
    34     26     36 1
    35     27     28 1
    36     27     37 1
    37     28     29 2
    38      4     17 am
@<TRIPOS>SUBSTRUCTURE
     1 BB1           4
     2 BB2          17
@<TRIPOS>MOLECULE
EN300-141346_i001_EN300-306118_i001_16_4_1
  37   38   2   0   0
SMALL
USER_CHARGES
@<TRIPOS>ATOM
     1 C1        -0.0906   -15.5244    13.5065 C.3        1 BB1          0.0000
     2 C2         0.9217   -16.3737    12.7352 C.3        1 BB1          0.0000
     3 C3         0.2579   -17.6774    12.2874 C.3        1 BB1          0.0000
     4 N4         1.3868   -15.6308    11.5562 N.am       1 BB1          0.0000
     5 C5         2.1138   -16.6929    13.6397 C.3        1 BB1          0.0000
     6 F6         3.0933   -17.3647    12.9005 F          1 BB1          0.0000
     7 H7        -0.4357   -16.0756    14.3813 H          1 BB1          0.0000
     8 H8         0.3824   -14.5956    13.8255 H          1 BB1          0.0000
     9 H9        -0.9398   -15.2971    12.8621 H          1 BB1          0.0000
    10 H10       -0.5913   -17.4499    11.6431 H          1 BB1          0.0000
    11 H11        0.9791   -18.2823    11.7380 H          1 BB1          0.0000
    12 H12       -0.0871   -18.2285    13.1623 H          1 BB1          0.0000
    13 H13        2.5288   -15.7655    14.0346 H          1 BB1          0.0000
    14 H14        1.7848   -17.3241    14.4652 H          1 BB1          0.0000
    15 H15        1.6336   -16.2808    10.8250 H          1 BB1          0.0000
    16 O1        -0.6959   -13.8083    11.5483 O.2        2 BB2          0.0000
    17 C2         0.0232   -14.5029    10.8440 C.2        2 BB2          0.0000
    18 C4         0.1943   -14.1761     9.4156 C.ar       2 BB2          0.0000
    19 C5         0.2000   -15.1937     8.4585 C.ar       2 BB2          0.0000
    20 C6         0.3606   -14.8807     7.1247 C.ar       2 BB2          0.0000
    21 C7         0.5162   -13.5625     6.7340 C.ar       2 BB2          0.0000
    22 C8         0.5116   -12.5491     7.6766 C.ar       2 BB2          0.0000
    23 C9         0.3458   -12.8466     9.0128 C.ar       2 BB2          0.0000
    24 C10        0.3405   -11.7416    10.0376 C.3        2 BB2          0.0000
    25 N11       -0.8775   -10.9417     9.8869 N.pl3      2 BB2          0.0000
    26 C12       -1.9601   -10.9853    10.6975 C.2        2 BB2          0.0000
    27 C13       -2.8435   -10.0913    10.1954 C.2        2 BB2          0.0000
    28 N14       -2.2659    -9.5516     9.1162 N.2        2 BB2          0.0000
    29 N15       -1.0997   -10.0726     8.9638 N.2        2 BB2          0.0000
    30 H16        0.0794   -16.2231     8.7623 H          2 BB2          0.0000
    31 H17        0.3653   -15.6663     6.3837 H          2 BB2          0.0000
    32 H18        0.6423   -13.3234     5.6883 H          2 BB2          0.0000
    33 H19        0.6339   -11.5225     7.3644 H          2 BB2          0.0000
    34 H20        0.3700   -12.1736    11.0379 H          2 BB2          0.0000
    35 H21        1.2134   -11.1056     9.8906 H          2 BB2          0.0000
    36 H22       -2.0926   -11.6083    11.5697 H          2 BB2          0.0000
    37 H23       -3.8224    -9.8595    10.5883 H          2 BB2          0.0000
@<TRIPOS>BOND
     1      1      2 1
     2      1      7 1
     3      1      8 1
     4      1      9 1
     5      2      3 1
     6      2      4 1
     7      2      5 1
     8      3     10 1
     9      3     11 1
    10      3     12 1
    11      4     15 1
    12      5      6 1
    13      5     13 1
    14      5     14 1
    15     16     17 2
    16     17     18 1
    17     18     19 ar
    18     18     23 ar
    19     19     20 ar
    20     19     30 1
    21     20     21 ar
    22     20     31 1
    23     21     22 ar
    24     21     32 1
    25     22     23 ar
    26     22     33 1
    27     23     24 1
    28     24     25 1
    29     24     34 1
    30     24     35 1
    31     25     26 1
    32     25     29 1
    33     26     27 2
    34     26     36 1
    35     27     28 1
    36     27     37 1
    37     28     29 2
    38      4     17 am
@<TRIPOS>SUBSTRUCTURE
     1 BB1           4
     2 BB2          17
@<TRIPOS>MOLECULE
EN300-141346_i001_EN300-306118_i001_16_6_1
  37   38   2   0   0
SMALL
USER_CHARGES
@<TRIPOS>ATOM
     1 C1        -0.0906   -15.5244    13.5065 C.3        1 BB1          0.0000
     2 C2         0.9217   -16.3737    12.7352 C.3        1 BB1          0.0000
     3 C3         0.2579   -17.6774    12.2874 C.3        1 BB1          0.0000
     4 N4         1.3868   -15.6308    11.5562 N.am       1 BB1          0.0000
     5 C5         2.1138   -16.6929    13.6397 C.3        1 BB1          0.0000
     6 F6         3.0933   -17.3647    12.9005 F          1 BB1          0.0000
     7 H7        -0.4357   -16.0756    14.3813 H          1 BB1          0.0000
     8 H8         0.3824   -14.5956    13.8255 H          1 BB1          0.0000
     9 H9        -0.9398   -15.2971    12.8621 H          1 BB1          0.0000
    10 H10       -0.5913   -17.4499    11.6431 H          1 BB1          0.0000
    11 H11        0.9791   -18.2823    11.7380 H          1 BB1          0.0000
    12 H12       -0.0871   -18.2285    13.1623 H          1 BB1          0.0000
    13 H13        2.5288   -15.7655    14.0346 H          1 BB1          0.0000
    14 H14        1.7848   -17.3241    14.4652 H          1 BB1          0.0000
    15 H15        1.6336   -16.2808    10.8250 H          1 BB1          0.0000
    16 O1        -1.2486   -12.9840    11.2797 O.2        2 BB2          0.0000
    17 C2        -0.3996   -13.7304    10.8133 C.2        2 BB2          0.0000
    18 C4         0.1276   -13.4914     9.4563 C.ar       2 BB2          0.0000
    19 C5         0.3583   -14.5656     8.5936 C.ar       2 BB2          0.0000
    20 C6         0.8514   -14.3346     7.3262 C.ar       2 BB2          0.0000
    21 C7         1.1179   -13.0426     6.9090 C.ar       2 BB2          0.0000
    22 C8         0.8918   -11.9734     7.7582 C.ar       2 BB2          0.0000
    23 C9         0.3932   -12.1888     9.0257 C.ar       2 BB2          0.0000
    24 C10        0.1472   -11.0231     9.9488 C.3        2 BB2          0.0000
    25 N11       -1.2932   -10.7753    10.0492 N.pl3      2 BB2          0.0000
    26 C12       -2.2529   -11.3618     9.2971 C.2        2 BB2          0.0000
    27 C13       -3.4309   -10.8465     9.7198 C.2        2 BB2          0.0000
    28 N14       -3.1380    -9.9810    10.6969 N.2        2 BB2          0.0000
    29 N15       -1.8637    -9.9660    10.8717 N.2        2 BB2          0.0000
    30 H16        0.1514   -15.5747     8.9183 H          2 BB2          0.0000
    31 H17        1.0303   -15.1641     6.6582 H          2 BB2          0.0000
    32 H18        1.5046   -12.8676     5.9157 H          2 BB2          0.0000
    33 H19        1.1024   -10.9676     7.4259 H          2 BB2          0.0000
    34 H20        0.5463   -11.2516    10.9369 H          2 BB2          0.0000
    35 H21        0.6418   -10.1360     9.5534 H          2 BB2          0.0000
    36 H22       -2.1081   -12.0939     8.5164 H          2 BB2          0.0000
    37 H23       -4.4139   -11.0863     9.3423 H          2 BB2          0.0000
@<TRIPOS>BOND
     1      1      2 1
     2      1      7 1
     3      1      8 1
     4      1      9 1
     5      2      3 1
     6      2      4 1
     7      2      5 1
     8      3     10 1
     9      3     11 1
    10      3     12 1
    11      4     15 1
    12      5      6 1
    13      5     13 1
    14      5     14 1
    15     16     17 2
    16     17     18 1
    17     18     19 ar
    18     18     23 ar
    19     19     20 ar
    20     19     30 1
    21     20     21 ar
    22     20     31 1
    23     21     22 ar
    24     21     32 1
    25     22     23 ar
    26     22     33 1
    27     23     24 1
    28     24     25 1
    29     24     34 1
    30     24     35 1
    31     25     26 1
    32     25     29 1
    33     26     27 2
    34     26     36 1
    35     27     28 1
    36     27     37 1
    37     28     29 2
    38      4     17 am
@<TRIPOS>SUBSTRUCTURE
     1 BB1           4
     2 BB2          17
@<TRIPOS>MOLECULE
EN300-141346_i001_EN300-306118_i001_16_7_1
  37   38   2   0   0
SMALL
USER_CHARGES
@<TRIPOS>ATOM
     1 C1        -0.0906   -15.5244    13.5065 C.3        1 BB1          0.0000
     2 C2         0.9217   -16.3737    12.7352 C.3        1 BB1          0.0000
     3 C3         0.2579   -17.6774    12.2874 C.3        1 BB1          0.0000
     4 N4         1.3868   -15.6308    11.5562 N.am       1 BB1          0.0000
     5 C5         2.1138   -16.6929    13.6397 C.3        1 BB1          0.0000
     6 F6         3.0933   -17.3647    12.9005 F          1 BB1          0.0000
     7 H7        -0.4357   -16.0756    14.3813 H          1 BB1          0.0000
     8 H8         0.3824   -14.5956    13.8255 H          1 BB1          0.0000
     9 H9        -0.9398   -15.2971    12.8621 H          1 BB1          0.0000
    10 H10       -0.5913   -17.4499    11.6431 H          1 BB1          0.0000
    11 H11        0.9791   -18.2823    11.7380 H          1 BB1          0.0000
    12 H12       -0.0871   -18.2285    13.1623 H          1 BB1          0.0000
    13 H13        2.5288   -15.7655    14.0346 H          1 BB1          0.0000
    14 H14        1.7848   -17.3241    14.4652 H          1 BB1          0.0000
    15 H15        1.6336   -16.2808    10.8250 H          1 BB1          0.0000
    16 O1        -0.6971   -14.7557    11.9521 O.2        2 BB2          0.0000
    17 C2         0.3107   -14.7692    11.2595 C.2        2 BB2          0.0000
    18 C4         0.2910   -14.1590     9.9165 C.ar       2 BB2          0.0000
    19 C5         0.9400   -14.7869     8.8506 C.ar       2 BB2          0.0000
    20 C6         0.9175   -14.2104     7.5976 C.ar       2 BB2          0.0000
    21 C7         0.2545   -13.0130     7.3953 C.ar       2 BB2          0.0000
    22 C8        -0.3907   -12.3851     8.4465 C.ar       2 BB2          0.0000
    23 C9        -0.3818   -12.9530     9.7032 C.ar       2 BB2          0.0000
    24 C10       -1.0854   -12.2680    10.8464 C.3        2 BB2          0.0000
    25 N11       -1.9001   -11.1660    10.3286 N.pl3      2 BB2          0.0000
    26 C12       -3.2480   -11.0736    10.4030 C.2        2 BB2          0.0000
    27 C13       -3.5794    -9.9055     9.8051 C.2        2 BB2          0.0000
    28 N14       -2.4331    -9.3478     9.3992 N.2        2 BB2          0.0000
    29 N15       -1.4563   -10.1169     9.7294 N.2        2 BB2          0.0000
    30 H16        1.4585   -15.7213     9.0074 H          2 BB2          0.0000
    31 H17        1.4188   -14.6947     6.7727 H          2 BB2          0.0000
    32 H18        0.2408   -12.5658     6.4122 H          2 BB2          0.0000
    33 H19       -0.9059   -11.4505     8.2813 H          2 BB2          0.0000
    34 H20       -1.7270   -12.9843    11.3596 H          2 BB2          0.0000
    35 H21       -0.3465   -11.8763    11.5454 H          2 BB2          0.0000
    36 H22       -3.9235   -11.7882    10.8496 H          2 BB2          0.0000
    37 H23       -4.5737    -9.5029     9.6797 H          2 BB2          0.0000
@<TRIPOS>BOND
     1      1      2 1
     2      1      7 1
     3      1      8 1
     4      1      9 1
     5      2      3 1
     6      2      4 1
     7      2      5 1
     8      3     10 1
     9      3     11 1
    10      3     12 1
    11      4     15 1
    12      5      6 1
    13      5     13 1
    14      5     14 1
    15     16     17 2
    16     17     18 1
    17     18     19 ar
    18     18     23 ar
    19     19     20 ar
    20     19     30 1
    21     20     21 ar
    22     20     31 1
    23     21     22 ar
    24     21     32 1
    25     22     23 ar
    26     22     33 1
    27     23     24 1
    28     24     25 1
    29     24     34 1
    30     24     35 1
    31     25     26 1
    32     25     29 1
    33     26     27 2
    34     26     36 1
    35     27     28 1
    36     27     37 1
    37     28     29 2
    38      4     17 am
@<TRIPOS>SUBSTRUCTURE
     1 BB1           4
     2 BB2          17
@<TRIPOS>MOLECULE
EN300-141346_i001_EN300-344045_i001_16_2_1
  44   45   2   0   0
SMALL
USER_CHARGES
@<TRIPOS>ATOM
     1 C1        -0.0906   -15.5244    13.5065 C.3        1 BB1          0.0000
     2 C2         0.9217   -16.3737    12.7352 C.3        1 BB1          0.0000
     3 C3         0.2579   -17.6774    12.2874 C.3        1 BB1          0.0000
     4 N4         1.3868   -15.6308    11.5562 N.am       1 BB1          0.0000
     5 C5         2.1138   -16.6929    13.6397 C.3        1 BB1          0.0000
     6 F6         3.0933   -17.3647    12.9005 F          1 BB1          0.0000
     7 H7        -0.4357   -16.0756    14.3813 H          1 BB1          0.0000
     8 H8         0.3824   -14.5956    13.8255 H          1 BB1          0.0000
     9 H9        -0.9398   -15.2971    12.8621 H          1 BB1          0.0000
    10 H10       -0.5913   -17.4499    11.6431 H          1 BB1          0.0000
    11 H11        0.9791   -18.2823    11.7380 H          1 BB1          0.0000
    12 H12       -0.0871   -18.2285    13.1623 H          1 BB1          0.0000
    13 H13        2.5288   -15.7655    14.0346 H          1 BB1          0.0000
    14 H14        1.7848   -17.3241    14.4652 H          1 BB1          0.0000
    15 H15        1.6336   -16.2808    10.8250 H          1 BB1          0.0000
    16 C2         0.2489   -14.5943    11.0019 C.2        2 BB2          0.0000
    17 O3        -0.6663   -14.2364    11.7237 O.2        2 BB2          0.0000
    18 C4         0.9922   -13.5817    10.1694 C.3        2 BB2          0.0000
    19 C5         0.0568   -13.0163     9.0988 C.3        2 BB2          0.0000
    20 C6         0.8768   -12.3025     8.0042 C.3        2 BB2          0.0000
    21 C7         1.0511   -13.3749     6.9002 C.3        2 BB2          0.0000
    22 C8        -0.3163   -14.1023     6.9114 C.3        2 BB2          0.0000
    23 C9        -0.7017   -14.1605     8.4040 C.3        2 BB2          0.0000
    24 C10       -0.9194   -12.0528     9.7233 C.ar       2 BB2          0.0000
    25 C11       -0.7018   -11.5818    11.0046 C.ar       2 BB2          0.0000
    26 C12       -1.5972   -10.6981    11.5774 C.ar       2 BB2          0.0000
    27 C13       -2.7099   -10.2850    10.8687 C.ar       2 BB2          0.0000
    28 C14       -2.9270   -10.7553     9.5871 C.ar       2 BB2          0.0000
    29 C15       -2.0292   -11.6357     9.0126 C.ar       2 BB2          0.0000
    30 H16        1.3431   -12.7722    10.8096 H          2 BB2          0.0000
    31 H17        1.8455   -14.0614     9.6898 H          2 BB2          0.0000
    32 H18        0.3298   -11.4425     7.6177 H          2 BB2          0.0000
    33 H19        1.8472   -11.9949     8.3939 H          2 BB2          0.0000
    34 H20        1.2319   -12.9071     5.9324 H          2 BB2          0.0000
    35 H21        1.8570   -14.0634     7.1543 H          2 BB2          0.0000
    36 H22       -1.0559   -13.5330     6.3483 H          2 BB2          0.0000
    37 H23       -0.2166   -15.1082     6.5036 H          2 BB2          0.0000
    38 H24       -0.4034   -15.1187     8.8294 H          2 BB2          0.0000
    39 H25       -1.7765   -14.0194     8.5179 H          2 BB2          0.0000
    40 H26        0.1674   -11.9045    11.5583 H          2 BB2          0.0000
    41 H27       -1.4278   -10.3307    12.5787 H          2 BB2          0.0000
    42 H28       -3.4099    -9.5951    11.3165 H          2 BB2          0.0000
    43 H29       -3.7964   -10.4328     9.0334 H          2 BB2          0.0000
    44 H30       -2.1987   -12.0032     8.0113 H          2 BB2          0.0000
@<TRIPOS>BOND
     1      1      2 1
     2      1      7 1
     3      1      8 1
     4      1      9 1
     5      2      3 1
     6      2      4 1
     7      2      5 1
     8      3     10 1
     9      3     11 1
    10      3     12 1
    11      4     15 1
    12      5      6 1
    13      5     13 1
    14      5     14 1
    15     16     17 2
    16     16     18 1
    17     18     19 1
    18     18     30 1
    19     18     31 1
    20     19     20 1
    21     19     23 1
    22     19     24 1
    23     20     21 1
    24     20     32 1
    25     20     33 1
    26     21     22 1
    27     21     34 1
    28     21     35 1
    29     22     23 1
    30     22     36 1
    31     22     37 1
    32     23     38 1
    33     23     39 1
    34     24     25 ar
    35     24     29 ar
    36     25     26 ar
    37     25     40 1
    38     26     27 ar
    39     26     41 1
    40     27     28 ar
    41     27     42 1
    42     28     29 ar
    43     28     43 1
    44     29     44 1
    45      4     16 am
@<TRIPOS>SUBSTRUCTURE
     1 BB1           4
     2 BB2          16
@<TRIPOS>MOLECULE
EN300-141346_i001_EN300-344045_i001_16_3_1
  44   45   2   0   0
SMALL
USER_CHARGES
@<TRIPOS>ATOM
     1 C1        -0.0906   -15.5244    13.5065 C.3        1 BB1          0.0000
     2 C2         0.9217   -16.3737    12.7352 C.3        1 BB1          0.0000
     3 C3         0.2579   -17.6774    12.2874 C.3        1 BB1          0.0000
     4 N4         1.3868   -15.6308    11.5562 N.am       1 BB1          0.0000
     5 C5         2.1138   -16.6929    13.6397 C.3        1 BB1          0.0000
     6 F6         3.0933   -17.3647    12.9005 F          1 BB1          0.0000
     7 H7        -0.4357   -16.0756    14.3813 H          1 BB1          0.0000
     8 H8         0.3824   -14.5956    13.8255 H          1 BB1          0.0000
     9 H9        -0.9398   -15.2971    12.8621 H          1 BB1          0.0000
    10 H10       -0.5913   -17.4499    11.6431 H          1 BB1          0.0000
    11 H11        0.9791   -18.2823    11.7380 H          1 BB1          0.0000
    12 H12       -0.0871   -18.2285    13.1623 H          1 BB1          0.0000
    13 H13        2.5288   -15.7655    14.0346 H          1 BB1          0.0000
    14 H14        1.7848   -17.3241    14.4652 H          1 BB1          0.0000
    15 H17        2.1950   -15.0797    11.8033 H          1 BB1          0.0000
    16 C2         0.5459   -14.5453    10.1019 C.2        2 BB2          0.0000
    17 O3         0.1752   -15.4776     9.4091 O.2        2 BB2          0.0000
    18 C4        -0.4230   -13.4540    10.4780 C.3        2 BB2          0.0000
    19 C5        -0.6345   -12.5251     9.2809 C.3        2 BB2          0.0000
    20 C6         0.6374   -11.6890     9.0294 C.3        2 BB2          0.0000
    21 C7         1.4011   -12.4785     7.9373 C.3        2 BB2          0.0000
    22 C8         0.2593   -12.9923     7.0255 C.3        2 BB2          0.0000
    23 C9        -0.8749   -13.3536     8.0068 C.3        2 BB2          0.0000
    24 C10       -1.8085   -11.6149     9.5352 C.ar       2 BB2          0.0000
    25 C11       -3.0826   -12.1418     9.6348 C.ar       2 BB2          0.0000
    26 C12       -4.1594   -11.3070     9.8680 C.ar       2 BB2          0.0000
    27 C13       -3.9620    -9.9453    10.0023 C.ar       2 BB2          0.0000
    28 C14       -2.6878    -9.4186     9.9036 C.ar       2 BB2          0.0000
    29 C15       -1.6104   -10.2540     9.6747 C.ar       2 BB2          0.0000
    30 H16       -1.3759   -13.8977    10.7665 H          2 BB2          0.0000
    31 H17       -0.0201   -12.8827    11.3144 H          2 BB2          0.0000
    32 H18        0.3751   -10.6947     8.6682 H          2 BB2          0.0000
    33 H19        1.2348   -11.6204     9.9386 H          2 BB2          0.0000
    34 H20        2.0718   -11.8214     7.3835 H          2 BB2          0.0000
    35 H21        1.9500   -13.3119     8.3758 H          2 BB2          0.0000
    36 H22       -0.0641   -12.2083     6.3407 H          2 BB2          0.0000
    37 H23        0.5807   -13.8747     6.4723 H          2 BB2          0.0000
    38 H24       -0.8408   -14.4175     8.2413 H          2 BB2          0.0000
    39 H25       -1.8409   -13.0975     7.5716 H          2 BB2          0.0000
    40 H26       -3.2369   -13.2055     9.5299 H          2 BB2          0.0000
    41 H27       -5.1549   -11.7185     9.9450 H          2 BB2          0.0000
    42 H28       -4.8033    -9.2931    10.1838 H          2 BB2          0.0000
    43 H29       -2.5335    -8.3548    10.0082 H          2 BB2          0.0000
    44 H30       -0.6148    -9.8425     9.5976 H          2 BB2          0.0000
@<TRIPOS>BOND
     1      1      2 1
     2      1      7 1
     3      1      8 1
     4      1      9 1
     5      2      3 1
     6      2      4 1
     7      2      5 1
     8      3     10 1
     9      3     11 1
    10      3     12 1
    11      4     15 1
    12      5      6 1
    13      5     13 1
    14      5     14 1
    15     16     17 2
    16     16     18 1
    17     18     19 1
    18     18     30 1
    19     18     31 1
    20     19     20 1
    21     19     23 1
    22     19     24 1
    23     20     21 1
    24     20     32 1
    25     20     33 1
    26     21     22 1
    27     21     34 1
    28     21     35 1
    29     22     23 1
    30     22     36 1
    31     22     37 1
    32     23     38 1
    33     23     39 1
    34     24     25 ar
    35     24     29 ar
    36     25     26 ar
    37     25     40 1
    38     26     27 ar
    39     26     41 1
    40     27     28 ar
    41     27     42 1
    42     28     29 ar
    43     28     43 1
    44     29     44 1
    45      4     16 am
@<TRIPOS>SUBSTRUCTURE
     1 BB1           4
     2 BB2          16
@<TRIPOS>MOLECULE
EN300-141346_i001_EN300-15782_i003_18_6_1
  49   49   2   0   0
SMALL
USER_CHARGES
@<TRIPOS>ATOM
     1 C1        -0.1011   -14.0443    10.2524 C.3        1 BB1          0.0000
     2 C2         0.7249   -14.2315     8.9782 C.3        1 BB1          0.0000
     3 C3         0.8280   -12.8973     8.2364 C.3        1 BB1          0.0000
     4 N4         2.0714   -14.7004     9.3320 N.am       1 BB1          0.0000
     5 C5         0.0454   -15.2647     8.0772 C.3        1 BB1          0.0000
     6 F6         0.8000   -15.4351     6.9115 F          1 BB1          0.0000
     7 H7        -1.1002   -13.6963     9.9899 H          1 BB1          0.0000
     8 H8        -0.1745   -14.9948    10.7808 H          1 BB1          0.0000
     9 H9         0.3829   -13.3082    10.8942 H          1 BB1          0.0000
    10 H10        1.3120   -12.1613     8.8783 H          1 BB1          0.0000
    11 H11        1.4164   -13.0308     7.3287 H          1 BB1          0.0000
    12 H12       -0.1712   -12.5494     7.9739 H          1 BB1          0.0000
    13 H13       -0.0271   -16.2155     8.6053 H          1 BB1          0.0000
    14 H14       -0.9540   -14.9174     7.8155 H          1 BB1          0.0000
    15 H15        2.0739   -15.7081     9.3835 H          1 BB1          0.0000
    16 C1         2.0709   -17.5199    14.3312 C.3        2 BB2          0.0000
    17 C2         2.1075   -16.5245    13.1698 C.3        2 BB2          0.0000
    18 O3         3.2140   -16.8273    12.3176 O.3        2 BB2          0.0000
    19 C4         0.8063   -16.6246    12.3711 C.3        2 BB2          0.0000
    20 N5         0.9157   -17.7103    11.3936 N.pl3      2 BB2          0.0000
    21 S6        -0.3271   -18.7896    11.2125 S.o2       2 BB2          0.0000
    22 O7        -1.4574   -18.2108    11.8500 O.2        2 BB2          0.0000
    23 O8        -0.3215   -19.1825     9.8469 O.2        2 BB2          0.0000
    24 C9         0.0891   -20.2255    12.1449 C.ar       2 BB2          0.0000
    25 C10        1.2108   -20.2238    12.9525 C.ar       2 BB2          0.0000
    26 C11        1.5374   -21.3506    13.6842 C.ar       2 BB2          0.0000
    27 C12        0.7421   -22.4784    13.6083 C.ar       2 BB2          0.0000
    28 C13        1.0985   -23.7067    14.4054 C.3        2 BB2          0.0000
    29 C14       -0.3806   -22.4796    12.8015 C.ar       2 BB2          0.0000
    30 C15       -1.2480   -23.7091    12.7192 C.3        2 BB2          0.0000
    31 C16       -0.7093   -21.3519    12.0731 C.ar       2 BB2          0.0000
    32 C17        0.5573   -15.3240    11.6517 C.2        2 BB2          0.0000
    33 O19       -0.4202   -14.6507    11.9302 O.2        2 BB2          0.0000
    34 H20        2.9979   -17.4487    14.9001 H          2 BB2          0.0000
    35 H21        1.2269   -17.2891    14.9811 H          2 BB2          0.0000
    36 H22        1.9618   -18.5313    13.9395 H          2 BB2          0.0000
    37 H23        2.2166   -15.5131    13.5614 H          2 BB2          0.0000
    38 H24       -0.0217   -16.8287    13.0498 H          2 BB2          0.0000
    39 H25        1.8323   -19.3425    13.0118 H          2 BB2          0.0000
    40 H26        2.4143   -21.3496    14.3147 H          2 BB2          0.0000
    41 H27        0.6192   -23.6571    15.3831 H          2 BB2          0.0000
    42 H28        0.7542   -24.5955    13.8767 H          2 BB2          0.0000
    43 H29        2.1799   -23.7560    14.5330 H          2 BB2          0.0000
    44 H30       -2.0221   -23.6597    13.4850 H          2 BB2          0.0000
    45 H31       -1.7135   -23.7602    11.7349 H          2 BB2          0.0000
    46 H32       -0.6359   -24.5969    12.8782 H          2 BB2          0.0000
    47 H33       -1.5864   -21.3528    11.4429 H          2 BB2          0.0000
    48 H34        2.9957   -16.8297    11.3756 H          2 BB2          0.0000
    49 H35        1.7160   -17.7969    10.8524 H          2 BB2          0.0000
@<TRIPOS>BOND
     1      1      2 1
     2      1      7 1
     3      1      8 1
     4      1      9 1
     5      2      3 1
     6      2      4 1
     7      2      5 1
     8      3     10 1
     9      3     11 1
    10      3     12 1
    11      4     15 1
    12      5      6 1
    13      5     13 1
    14      5     14 1
    15     16     17 1
    16     16     34 1
    17     16     35 1
    18     16     36 1
    19     17     18 1
    20     17     19 1
    21     17     37 1
    22     18     48 1
    23     19     20 1
    24     19     32 1
    25     19     38 1
    26     20     21 1
    27     20     49 1
    28     21     22 2
    29     21     23 2
    30     21     24 1
    31     24     25 ar
    32     24     31 ar
    33     25     26 ar
    34     25     39 1
    35     26     27 ar
    36     26     40 1
    37     27     28 1
    38     27     29 ar
    39     28     41 1
    40     28     42 1
    41     28     43 1
    42     29     30 1
    43     29     31 ar
    44     30     44 1
    45     30     45 1
    46     30     46 1
    47     31     47 1
    48     32     33 2
    49      4     32 am
@<TRIPOS>SUBSTRUCTURE
     1 BB1           4
     2 BB2          32
@<TRIPOS>MOLECULE
EN300-141346_i001_EN300-1071101_i001_20_8_1
  55   55   2   0   0
SMALL
USER_CHARGES
@<TRIPOS>ATOM
     1 C1         1.0147   -18.1800    12.8444 C.3        1 BB1          0.0000
     2 C2         1.8799   -16.9773    13.2263 C.3        1 BB1          0.0000
     3 C3         2.2971   -17.0943    14.6936 C.3        1 BB1          0.0000
     4 N4         3.0784   -16.9470    12.3773 N.am       1 BB1          0.0000
     5 C5         1.0796   -15.6889    13.0248 C.3        1 BB1          0.0000
     6 F6        -0.0889   -15.7408    13.7924 F          1 BB1          0.0000
     7 H7         0.1254   -18.2025    13.4744 H          1 BB1          0.0000
     8 H8         0.7175   -18.0966    11.7991 H          1 BB1          0.0000
     9 H9         1.5848   -19.0978    12.9880 H          1 BB1          0.0000
    10 H10        2.8671   -18.0121    14.8371 H          1 BB1          0.0000
    11 H11        2.9134   -16.2374    14.9655 H          1 BB1          0.0000
    12 H12        1.4077   -17.1167    15.3235 H          1 BB1          0.0000
    13 H13        1.6813   -14.8350    13.3364 H          1 BB1          0.0000
    14 H14        0.8182   -15.5843    11.9719 H          1 BB1          0.0000
    15 H15        2.8040   -16.8480    11.4114 H          1 BB1          0.0000
    16 C1         0.3515   -13.6135     6.6485 C.3        2 BB2          0.0000
    17 O2        -0.0879   -14.3590     7.7857 O.3        2 BB2          0.0000
    18 C3         0.9245   -14.5635     8.7732 C.3        2 BB2          0.0000
    19 C4         0.2818   -15.0750    10.0640 C.3        2 BB2          0.0000
    20 N5        -0.8631   -14.2283    10.4085 N.am       2 BB2          0.0000
    21 C6        -0.6994   -12.8977    10.5475 C.2        2 BB2          0.0000
    22 O7         0.3977   -12.4005    10.3872 O.2        2 BB2          0.0000
    23 O8        -1.7515   -12.1196    10.8640 O.3        2 BB2          0.0000
    24 C9        -1.7329   -10.7537    10.3717 C.3        2 BB2          0.0000
    25 C10       -0.7441    -9.9276    11.1967 C.3        2 BB2          0.0000
    26 C11       -1.3028   -10.7467     8.9034 C.3        2 BB2          0.0000
    27 C12       -3.1322   -10.1476    10.4961 C.3        2 BB2          0.0000
    28 C13        1.2931   -15.0310    11.1804 C.2        2 BB2          0.0000
    29 O15        0.9626   -15.3326    12.3146 O.2        2 BB2          0.0000
    30 C16       -0.1850   -16.4941     9.8647 C.ar       2 BB2          0.0000
    31 C17       -0.3964   -16.9791     8.5876 C.ar       2 BB2          0.0000
    32 C18       -0.8246   -18.2807     8.4047 C.ar       2 BB2          0.0000
    33 C19       -1.0410   -19.0973     9.4989 C.ar       2 BB2          0.0000
    34 C20       -0.8286   -18.6125    10.7758 C.ar       2 BB2          0.0000
    35 C21       -0.3963   -17.3123    10.9586 C.ar       2 BB2          0.0000
    36 H22       -0.4744   -13.5016     5.9461 H          2 BB2          0.0000
    37 H23        0.6919   -12.6288     6.9690 H          2 BB2          0.0000
    38 H24        1.1724   -14.1414     6.1631 H          2 BB2          0.0000
    39 H25        1.6436   -15.2975     8.4097 H          2 BB2          0.0000
    40 H26        1.4353   -13.6211     8.9704 H          2 BB2          0.0000
    41 H27        0.2528   -10.3594    11.1081 H          2 BB2          0.0000
    42 H28       -0.7302    -8.9022    10.8272 H          2 BB2          0.0000
    43 H29       -1.0506    -9.9327    12.2427 H          2 BB2          0.0000
    44 H30       -2.0073   -11.3352     8.3156 H          2 BB2          0.0000
    45 H31       -1.2888    -9.7213     8.5338 H          2 BB2          0.0000
    46 H32       -0.3059   -11.1785     8.8148 H          2 BB2          0.0000
    47 H33       -3.4387   -10.1527    11.5421 H          2 BB2          0.0000
    48 H34       -3.1183    -9.1222    10.1265 H          2 BB2          0.0000
    49 H35       -3.8367   -10.7361     9.9082 H          2 BB2          0.0000
    50 H36       -0.2274   -16.3411     7.7327 H          2 BB2          0.0000
    51 H37       -0.9904   -18.6594     7.4070 H          2 BB2          0.0000
    52 H38       -1.3762   -20.1140     9.3560 H          2 BB2          0.0000
    53 H39       -0.9980   -19.2505    11.6307 H          2 BB2          0.0000
    54 H40       -0.2304   -16.9335    11.9563 H          2 BB2          0.0000
    55 H41       -1.7388   -14.6253    10.5365 H          2 BB2          0.0000
@<TRIPOS>BOND
     1      1      2 1
     2      1      7 1
     3      1      8 1
     4      1      9 1
     5      2      3 1
     6      2      4 1
     7      2      5 1
     8      3     10 1
     9      3     11 1
    10      3     12 1
    11      4     15 1
    12      5      6 1
    13      5     13 1
    14      5     14 1
    15     16     17 1
    16     16     36 1
    17     16     37 1
    18     16     38 1
    19     17     18 1
    20     18     19 1
    21     18     39 1
    22     18     40 1
    23     19     20 1
    24     19     28 1
    25     19     30 1
    26     20     21 am
    27     20     55 1
    28     21     22 2
    29     21     23 1
    30     23     24 1
    31     24     25 1
    32     24     26 1
    33     24     27 1
    34     25     41 1
    35     25     42 1
    36     25     43 1
    37     26     44 1
    38     26     45 1
    39     26     46 1
    40     27     47 1
    41     27     48 1
    42     27     49 1
    43     28     29 2
    44     30     31 ar
    45     30     35 ar
    46     31     32 ar
    47     31     50 1
    48     32     33 ar
    49     32     51 1
    50     33     34 ar
    51     33     52 1
    52     34     35 ar
    53     34     53 1
    54     35     54 1
    55      4     28 am
@<TRIPOS>SUBSTRUCTURE
     1 BB1           4
     2 BB2          28
@<TRIPOS>MOLECULE
EN300-141346_i001_EN300-315786_i001_4_13_1
  43   44   2   0   0
SMALL
USER_CHARGES
@<TRIPOS>ATOM
     1 C1        -1.1206   -12.0931    11.0144 C.3        1 BB1          0.0000
     2 C2        -0.9678   -10.7092    10.3802 C.3        1 BB1          0.0000
     3 C3        -0.1101    -9.8243    11.2869 C.3        1 BB1          0.0000
     4 N4        -0.3194   -10.8405     9.0686 N.am       1 BB1          0.0000
     5 C5        -2.3485   -10.0732    10.2051 C.3        1 BB1          0.0000
     6 F6        -3.2126   -10.9933     9.6019 F          1 BB1          0.0000
     7 H7        -1.6018   -11.9957    11.9877 H          1 BB1          0.0000
     8 H8        -1.7316   -12.7235    10.3685 H          1 BB1          0.0000
     9 H9        -0.1371   -12.5461    11.1392 H          1 BB1          0.0000
    10 H10        0.8733   -10.2773    11.4116 H          1 BB1          0.0000
    11 H11       -0.0014    -8.8384    10.8350 H          1 BB1          0.0000
    12 H12       -0.5914    -9.7268    12.2601 H          1 BB1          0.0000
    13 H13       -2.7437    -9.7889    11.1803 H          1 BB1          0.0000
    14 H14       -2.2635    -9.1877     9.5753 H          1 BB1          0.0000
    15 H17        0.3921   -11.5544     9.1152 H          1 BB1          0.0000
    16 O1        -2.0323   -11.4171     9.6869 O.2        2 BB2          0.0000
    17 C2        -0.8528   -11.7216     9.5834 C.2        2 BB2          0.0000
    18 C4        -0.3329   -12.9129    10.2865 C.ar       2 BB2          0.0000
    19 C5        -1.0075   -13.4163    11.4009 C.ar       2 BB2          0.0000
    20 C6        -0.5221   -14.5274    12.0561 C.ar       2 BB2          0.0000
    21 C7         0.6432   -15.1494    11.6064 C.ar       2 BB2          0.0000
    22 C8         1.3178   -14.6470    10.4930 C.ar       2 BB2          0.0000
    23 C9         0.8303   -13.5394     9.8333 C.ar       2 BB2          0.0000
    24 C10        1.1645   -16.3429    12.3113 C.2        2 BB2          0.0000
    25 O11        2.1971   -16.2699    12.9478 O.2        2 BB2          0.0000
    26 N12        0.4937   -17.5101    12.2470 N.am       2 BB2          0.0000
    27 C13       -0.7132   -17.6454    11.4160 C.3        2 BB2          0.0000
    28 C14       -0.5560   -18.8894    10.5342 C.3        2 BB2          0.0000
    29 O15       -0.2225   -20.0102    11.3565 O.3        2 BB2          0.0000
    30 C16        1.0231   -19.8803    12.0460 C.3        2 BB2          0.0000
    31 C17        0.9500   -18.6886    13.0009 C.3        2 BB2          0.0000
    32 H18       -1.9093   -12.9348    11.7494 H          2 BB2          0.0000
    33 H19       -1.0436   -14.9165    12.9183 H          2 BB2          0.0000
    34 H20        2.2198   -15.1287    10.1456 H          2 BB2          0.0000
    35 H21        1.3523   -13.1509     8.9714 H          2 BB2          0.0000
    36 H22       -1.5887   -17.7570    12.0556 H          2 BB2          0.0000
    37 H23       -0.8272   -16.7620    10.7877 H          2 BB2          0.0000
    38 H24       -1.4925   -19.0865    10.0124 H          2 BB2          0.0000
    39 H25        0.2386   -18.7222     9.8069 H          2 BB2          0.0000
    40 H26        1.2226   -20.7901    12.6120 H          2 BB2          0.0000
    41 H27        1.8233   -19.7166    11.3243 H          2 BB2          0.0000
    42 H28        1.9359   -18.4962    13.4242 H          2 BB2          0.0000
    43 H29        0.2416   -18.9024    13.8013 H          2 BB2          0.0000
@<TRIPOS>BOND
     1      1      2 1
     2      1      7 1
     3      1      8 1
     4      1      9 1
     5      2      3 1
     6      2      4 1
     7      2      5 1
     8      3     10 1
     9      3     11 1
    10      3     12 1
    11      4     15 1
    12      5      6 1
    13      5     13 1
    14      5     14 1
    15     16     17 2
    16     17     18 1
    17     18     19 ar
    18     18     23 ar
    19     19     20 ar
    20     19     32 1
    21     20     21 ar
    22     20     33 1
    23     21     22 ar
    24     21     24 1
    25     22     23 ar
    26     22     34 1
    27     23     35 1
    28     24     25 2
    29     24     26 am
    30     26     27 1
    31     26     31 1
    32     27     28 1
    33     27     36 1
    34     27     37 1
    35     28     29 1
    36     28     38 1
    37     28     39 1
    38     29     30 1
    39     30     31 1
    40     30     40 1
    41     30     41 1
    42     31     42 1
    43     31     43 1
    44      4     17 am
@<TRIPOS>SUBSTRUCTURE
     1 BB1           4
     2 BB2          17
@<TRIPOS>MOLECULE
EN300-141346_i001_EN300-15782_i003_5_6_1
  49   49   2   0   0
SMALL
USER_CHARGES
@<TRIPOS>ATOM
     1 C1         1.1001   -15.7563     6.8934 C.3        1 BB1          0.0000
     2 C2         0.4996   -14.8092     7.9343 C.3        1 BB1          0.0000
     3 C3        -0.9081   -14.3983     7.4982 C.3        1 BB1          0.0000
     4 N4         0.4304   -15.4904     9.2339 N.am       1 BB1          0.0000
     5 C5         1.3793   -13.5633     8.0576 C.3        1 BB1          0.0000
     6 F6         1.2510   -12.7856     6.9018 F          1 BB1          0.0000
     7 H7         1.1514   -15.2509     5.9290 H          1 BB1          0.0000
     8 H8         2.1030   -16.0490     7.2041 H          1 BB1          0.0000
     9 H9         0.4734   -16.6438     6.8054 H          1 BB1          0.0000
    10 H10       -1.5347   -15.2858     7.4102 H          1 BB1          0.0000
    11 H11       -1.3357   -13.7236     8.2397 H          1 BB1          0.0000
    12 H12       -0.8567   -13.8928     6.5338 H          1 BB1          0.0000
    13 H13        1.0651   -12.9812     8.9240 H          1 BB1          0.0000
    14 H14        2.4198   -13.8638     8.1798 H          1 BB1          0.0000
    15 H15        1.2707   -16.0307     9.3757 H          1 BB1          0.0000
    16 C1         2.0709   -17.5199    14.3312 C.3        2 BB2          0.0000
    17 C2         2.1075   -16.5245    13.1698 C.3        2 BB2          0.0000
    18 O3         3.2140   -16.8273    12.3176 O.3        2 BB2          0.0000
    19 C4         0.8063   -16.6246    12.3711 C.3        2 BB2          0.0000
    20 N5         0.9157   -17.7103    11.3936 N.pl3      2 BB2          0.0000
    21 S6        -0.3271   -18.7896    11.2125 S.o2       2 BB2          0.0000
    22 O7        -1.4574   -18.2108    11.8500 O.2        2 BB2          0.0000
    23 O8        -0.3215   -19.1825     9.8469 O.2        2 BB2          0.0000
    24 C9         0.0891   -20.2255    12.1449 C.ar       2 BB2          0.0000
    25 C10        1.2108   -20.2238    12.9525 C.ar       2 BB2          0.0000
    26 C11        1.5374   -21.3506    13.6842 C.ar       2 BB2          0.0000
    27 C12        0.7421   -22.4784    13.6083 C.ar       2 BB2          0.0000
    28 C13        1.0985   -23.7067    14.4054 C.3        2 BB2          0.0000
    29 C14       -0.3806   -22.4796    12.8015 C.ar       2 BB2          0.0000
    30 C15       -1.2480   -23.7091    12.7192 C.3        2 BB2          0.0000
    31 C16       -0.7093   -21.3519    12.0731 C.ar       2 BB2          0.0000
    32 C17        0.5573   -15.3240    11.6517 C.2        2 BB2          0.0000
    33 O19       -0.4202   -14.6507    11.9302 O.2        2 BB2          0.0000
    34 H20        2.9979   -17.4487    14.9001 H          2 BB2          0.0000
    35 H21        1.2269   -17.2891    14.9811 H          2 BB2          0.0000
    36 H22        1.9618   -18.5313    13.9395 H          2 BB2          0.0000
    37 H23        2.2166   -15.5131    13.5614 H          2 BB2          0.0000
    38 H24       -0.0217   -16.8287    13.0498 H          2 BB2          0.0000
    39 H25        1.8323   -19.3425    13.0118 H          2 BB2          0.0000
    40 H26        2.4143   -21.3496    14.3147 H          2 BB2          0.0000
    41 H27        0.6192   -23.6571    15.3831 H          2 BB2          0.0000
    42 H28        0.7542   -24.5955    13.8767 H          2 BB2          0.0000
    43 H29        2.1799   -23.7560    14.5330 H          2 BB2          0.0000
    44 H30       -2.0221   -23.6597    13.4850 H          2 BB2          0.0000
    45 H31       -1.7135   -23.7602    11.7349 H          2 BB2          0.0000
    46 H32       -0.6359   -24.5969    12.8782 H          2 BB2          0.0000
    47 H33       -1.5864   -21.3528    11.4429 H          2 BB2          0.0000
    48 H34        2.9957   -16.8297    11.3756 H          2 BB2          0.0000
    49 H35        1.7160   -17.7969    10.8524 H          2 BB2          0.0000
@<TRIPOS>BOND
     1      1      2 1
     2      1      7 1
     3      1      8 1
     4      1      9 1
     5      2      3 1
     6      2      4 1
     7      2      5 1
     8      3     10 1
     9      3     11 1
    10      3     12 1
    11      4     15 1
    12      5      6 1
    13      5     13 1
    14      5     14 1
    15     16     17 1
    16     16     34 1
    17     16     35 1
    18     16     36 1
    19     17     18 1
    20     17     19 1
    21     17     37 1
    22     18     48 1
    23     19     20 1
    24     19     32 1
    25     19     38 1
    26     20     21 1
    27     20     49 1
    28     21     22 2
    29     21     23 2
    30     21     24 1
    31     24     25 ar
    32     24     31 ar
    33     25     26 ar
    34     25     39 1
    35     26     27 ar
    36     26     40 1
    37     27     28 1
    38     27     29 ar
    39     28     41 1
    40     28     42 1
    41     28     43 1
    42     29     30 1
    43     29     31 ar
    44     30     44 1
    45     30     45 1
    46     30     46 1
    47     31     47 1
    48     32     33 2
    49      4     32 am
@<TRIPOS>SUBSTRUCTURE
     1 BB1           4
     2 BB2          32
@<TRIPOS>MOLECULE
EN300-141346_i001_EN300-1198129_i001_8_10_1
  39   39   2   0   0
SMALL
USER_CHARGES
@<TRIPOS>ATOM
     1 C1        -0.6431   -12.0381    10.2439 C.3        1 BB1          0.0000
     2 C2        -1.4245   -10.7563     9.9486 C.3        1 BB1          0.0000
     3 C3        -1.0346    -9.6766    10.9600 C.3        1 BB1          0.0000
     4 N4        -1.1091   -10.2923     8.5909 N.am       1 BB1          0.0000
     5 C5        -2.9247   -11.0376    10.0557 C.3        1 BB1          0.0000
     6 F6        -3.6413    -9.9017     9.6638 F          1 BB1          0.0000
     7 H7        -0.8770   -12.3823    11.2514 H          1 BB1          0.0000
     8 H8        -0.9208   -12.8073     9.5234 H          1 BB1          0.0000
     9 H9         0.4256   -11.8377    10.1676 H          1 BB1          0.0000
    10 H10        0.0340    -9.4763    10.8837 H          1 BB1          0.0000
    11 H11       -1.5914    -8.7635    10.7495 H          1 BB1          0.0000
    12 H12       -1.2687   -10.0209    11.9674 H          1 BB1          0.0000
    13 H13       -3.1849   -11.8734     9.4062 H          1 BB1          0.0000
    14 H14       -3.1749   -11.2872    11.0868 H          1 BB1          0.0000
    15 H15       -1.1004   -11.0796     7.9599 H          1 BB1          0.0000
    16 C2         0.7766   -11.6864     8.8536 C.2        2 BB2          0.0000
    17 O3         0.7605   -11.0157     9.8765 O.2        2 BB2          0.0000
    18 C4         0.5610   -13.1423     8.9236 C.ar       2 BB2          0.0000
    19 C5         0.4826   -13.7823    10.1638 C.ar       2 BB2          0.0000
    20 C6         0.2808   -15.1446    10.2217 C.ar       2 BB2          0.0000
    21 C7         0.1559   -15.8811     9.0558 C.ar       2 BB2          0.0000
    22 C8         0.2320   -15.2581     7.8239 C.ar       2 BB2          0.0000
    23 C9         0.4278   -13.8915     7.7482 C.ar       2 BB2          0.0000
    24 F10        0.5021   -13.2829     6.5444 F          2 BB2          0.0000
    25 S11        0.1818   -15.9518    11.7847 S.o2       2 BB2          0.0000
    26 O12       -0.6527   -15.1059    12.5638 O.2        2 BB2          0.0000
    27 O13       -0.2120   -17.2801    11.4689 O.2        2 BB2          0.0000
    28 C14        1.8821   -15.9252    12.4162 C.3        2 BB2          0.0000
    29 C15        1.8701   -16.1827    13.9244 C.3        2 BB2          0.0000
    30 C16        1.7754   -17.6303    14.1742 C.1        2 BB2          0.0000
    31 C17        1.6998   -18.7848    14.3735 C.1        2 BB2          0.0000
    32 H18        0.5802   -13.2106    11.0749 H          2 BB2          0.0000
    33 H19       -0.0013   -16.9483     9.1090 H          2 BB2          0.0000
    34 H20        0.1337   -15.8395     6.9191 H          2 BB2          0.0000
    35 H21        2.4663   -16.7002    11.9200 H          2 BB2          0.0000
    36 H22        2.3284   -14.9508    12.2176 H          2 BB2          0.0000
    37 H23        2.7890   -15.7972    14.3661 H          2 BB2          0.0000
    38 H24        1.0129   -15.6800    14.3721 H          2 BB2          0.0000
    39 H25        1.6324   -19.8174    14.5518 H          2 BB2          0.0000
@<TRIPOS>BOND
     1      1      2 1
     2      1      7 1
     3      1      8 1
     4      1      9 1
     5      2      3 1
     6      2      4 1
     7      2      5 1
     8      3     10 1
     9      3     11 1
    10      3     12 1
    11      4     15 1
    12      5      6 1
    13      5     13 1
    14      5     14 1
    15     16     17 2
    16     16     18 1
    17     18     19 ar
    18     18     23 ar
    19     19     20 ar
    20     19     32 1
    21     20     21 ar
    22     20     25 1
    23     21     22 ar
    24     21     33 1
    25     22     23 ar
    26     22     34 1
    27     23     24 1
    28     25     26 2
    29     25     27 2
    30     25     28 1
    31     28     29 1
    32     28     35 1
    33     28     36 1
    34     29     30 1
    35     29     37 1
    36     29     38 1
    37     30     31 3
    38     31     39 1
    39      4     16 am
@<TRIPOS>SUBSTRUCTURE
     1 BB1           4
     2 BB2          16
@<TRIPOS>MOLECULE
EN300-193626_i001_EN300-34862_i002_14_1_1
  44   45   2   0   0
SMALL
USER_CHARGES
@<TRIPOS>ATOM
     1 C1        -1.8841    -9.7676     9.5596 C.3        1 BB1          0.0000
     2 C2        -1.8601   -11.1817    10.1433 C.3        1 BB1          0.0000
     3 C3        -1.6015   -11.1073    11.6494 C.3        1 BB1          0.0000
     4 C4        -3.2074   -11.8609     9.8899 C.3        1 BB1          0.0000
     5 O5        -0.8207   -11.9373     9.5182 O.3        1 BB1          0.0000
     6 C6        -0.8022   -13.3174     9.8884 C.3        1 BB1          0.0000
     7 C7         0.0376   -13.6073    11.1436 C.3        1 BB1          0.0000
     8 C8         0.5275   -14.8765    10.4267 C.3        1 BB1          0.0000
     9 N9         1.9554   -15.1541    10.6318 N.am       1 BB1          0.0000
    10 C10        0.2245   -14.1518     9.1046 C.3        1 BB1          0.0000
    11 C11       -0.4033   -15.0546     8.0408 C.3        1 BB1          0.0000
    12 C12        1.4013   -13.3323     8.5712 C.3        1 BB1          0.0000
    13 H13       -0.9242    -9.2837     9.7401 H          1 BB1          0.0000
    14 H14       -2.0683    -9.8205     8.4865 H          1 BB1          0.0000
    15 H15       -2.6770    -9.1912    10.0364 H          1 BB1          0.0000
    16 H16       -2.3943   -10.5309    12.1261 H          1 BB1          0.0000
    17 H17       -1.5844   -12.1148    12.0653 H          1 BB1          0.0000
    18 H18       -0.6416   -10.6235    11.8299 H          1 BB1          0.0000
    19 H19       -3.3916   -11.9139     8.8170 H          1 BB1          0.0000
    20 H20       -3.1903   -12.8684    10.3058 H          1 BB1          0.0000
    21 H21       -4.0003   -11.2845    10.3667 H          1 BB1          0.0000
    22 H22       -1.7974   -13.7614     9.9168 H          1 BB1          0.0000
    23 H23        0.8248   -12.8746    11.3210 H          1 BB1          0.0000
    24 H24       -0.5606   -13.8109    12.0318 H          1 BB1          0.0000
    25 H25       -0.1026   -15.7483    10.6027 H          1 BB1          0.0000
    26 H26       -1.1326   -15.7154     8.5093 H          1 BB1          0.0000
    27 H27       -0.8996   -14.4401     7.2897 H          1 BB1          0.0000
    28 H28        0.3751   -15.6515     7.5654 H          1 BB1          0.0000
    29 H29        2.1106   -13.9951     8.0756 H          1 BB1          0.0000
    30 H30        1.0358   -12.5930     7.8586 H          1 BB1          0.0000
    31 H31        1.8958   -12.8250     9.3996 H          1 BB1          0.0000
    32 H32        2.1862   -16.0479    10.2244 H          1 BB1          0.0000
    33 O1         0.9775   -15.9087    14.1996 O.2        2 BB2          0.0000
    34 C2         1.7110   -16.2827    13.3004 C.2        2 BB2          0.0000
    35 C4         2.4553   -17.5868    13.4281 C.3        2 BB2          0.0000
    36 C5         2.0008   -18.2992    14.7086 C.3        2 BB2          0.0000
    37 S6         1.3339   -19.8858    14.1146 S.3        2 BB2          0.0000
    38 C7         1.6432   -19.5854    12.4010 C.2        2 BB2          0.0000
    39 O8         1.3812   -20.3543    11.4960 O.2        2 BB2          0.0000
    40 N9         2.2058   -18.3893    12.2522 N.am       2 BB2          0.0000
    41 H10        3.5235   -17.3808    13.4958 H          2 BB2          0.0000
    42 H11        2.8475   -18.4656    15.3747 H          2 BB2          0.0000
    43 H12        1.2247   -17.7226    15.2121 H          2 BB2          0.0000
    44 H13        2.4438   -18.0617    11.3709 H          2 BB2          0.0000
@<TRIPOS>BOND
     1      1      2 1
     2      1     13 1
     3      1     14 1
     4      1     15 1
     5      2      3 1
     6      2      4 1
     7      2      5 1
     8      3     16 1
     9      3     17 1
    10      3     18 1
    11      4     19 1
    12      4     20 1
    13      4     21 1
    14      5      6 1
    15      6      7 1
    16      6     10 1
    17      6     22 1
    18      7      8 1
    19      7     23 1
    20      7     24 1
    21      8      9 1
    22      8     10 1
    23      8     25 1
    24      9     32 1
    25     10     11 1
    26     10     12 1
    27     11     26 1
    28     11     27 1
    29     11     28 1
    30     12     29 1
    31     12     30 1
    32     12     31 1
    33     33     34 2
    34     34     35 1
    35     35     36 1
    36     35     40 1
    37     35     41 1
    38     36     37 1
    39     36     42 1
    40     36     43 1
    41     37     38 1
    42     38     39 2
    43     38     40 am
    44     40     44 1
    45      9     34 am
@<TRIPOS>SUBSTRUCTURE
     1 BB1           9
     2 BB2          34
@<TRIPOS>MOLECULE
EN300-193626_i001_EN300-1087079_i001_18_11_1
  58   59   2   0   0
SMALL
USER_CHARGES
@<TRIPOS>ATOM
     1 C1        -2.6254   -11.6693    10.3142 C.3        1 BB1          0.0000
     2 C2        -1.1407   -11.3292    10.1693 C.3        1 BB1          0.0000
     3 C3        -0.7275   -11.4640     8.7024 C.3        1 BB1          0.0000
     4 C4        -0.8985    -9.8929    10.6375 C.3        1 BB1          0.0000
     5 O5        -0.3664   -12.2271    10.9668 O.3        1 BB1          0.0000
     6 C6        -0.7168   -13.6024    10.8002 C.3        1 BB1          0.0000
     7 C7        -0.3690   -14.4783    12.0153 C.3        1 BB1          0.0000
     8 C8         0.0734   -15.5567    11.0122 C.3        1 BB1          0.0000
     9 N9         1.2936   -16.2693    11.4143 N.am       1 BB1          0.0000
    10 C10        0.3277   -14.4136    10.0156 C.3        1 BB1          0.0000
    11 C11       -0.1006   -14.7421     8.5839 C.3        1 BB1          0.0000
    12 C12        1.7411   -13.8334    10.0960 C.3        1 BB1          0.0000
    13 H13       -2.7980   -12.6926     9.9806 H          1 BB1          0.0000
    14 H14       -2.9198   -11.5732    11.3593 H          1 BB1          0.0000
    15 H15       -3.2161   -10.9844     9.7058 H          1 BB1          0.0000
    16 H16       -1.3182   -10.7792     8.0940 H          1 BB1          0.0000
    17 H17        0.3303   -11.2217     8.5991 H          1 BB1          0.0000
    18 H18       -0.9000   -12.4873     8.3688 H          1 BB1          0.0000
    19 H19       -1.1930    -9.7968    11.6825 H          1 BB1          0.0000
    20 H20        0.1592    -9.6505    10.5342 H          1 BB1          0.0000
    21 H21       -1.4893    -9.2079    10.0291 H          1 BB1          0.0000
    22 H22       -1.7371   -13.7387    10.4414 H          1 BB1          0.0000
    23 H23        0.4475   -14.0826    12.6194 H          1 BB1          0.0000
    24 H24       -1.2365   -14.7646    12.6099 H          1 BB1          0.0000
    25 H25       -0.7298   -16.2293    10.7116 H          1 BB1          0.0000
    26 H26       -1.0469   -15.2827     8.6027 H          1 BB1          0.0000
    27 H27       -0.2215   -13.8175     8.0196 H          1 BB1          0.0000
    28 H28        0.6616   -15.3604     8.1095 H          1 BB1          0.0000
    29 H29        2.4328   -14.4863     9.5638 H          1 BB1          0.0000
    30 H30        1.7536   -12.8428     9.6413 H          1 BB1          0.0000
    31 H31        2.0438   -13.7575    11.1404 H          1 BB1          0.0000
    32 H33        1.9810   -15.6042    11.7355 H          1 BB1          0.0000
    33 C1        -0.7723   -22.7048    12.2406 C.3        2 BB2          0.0000
    34 C2        -0.4916   -21.3064    11.6867 C.3        2 BB2          0.0000
    35 C3         0.7974   -20.7620    12.3055 C.3        2 BB2          0.0000
    36 C4         0.7267   -20.8124    13.8546 C.3        2 BB2          0.0000
    37 C5         1.6998   -19.6731    14.2476 C.3        2 BB2          0.0000
    38 N6         1.4862   -18.6268    13.2312 N.am       2 BB2          0.0000
    39 C7         0.9478   -19.2538    12.0152 C.3        2 BB2          0.0000
    40 C8        -0.3967   -18.6589    11.6843 C.2        2 BB2          0.0000
    41 O10       -0.6014   -18.1942    10.5758 O.2        2 BB2          0.0000
    42 C11        1.7415   -17.3131    13.3906 C.2        2 BB2          0.0000
    43 O12        1.5260   -16.5389    12.4822 O.2        2 BB2          0.0000
    44 C13        2.2948   -16.8061    14.6973 C.3        2 BB2          0.0000
    45 H14       -1.6906   -23.0926    11.7998 H          2 BB2          0.0000
    46 H15        0.0574   -23.3668    11.9931 H          2 BB2          0.0000
    47 H16       -0.8836   -22.6510    13.3236 H          2 BB2          0.0000
    48 H17       -0.3804   -21.3602    10.6038 H          2 BB2          0.0000
    49 H18       -1.3213   -20.6443    11.9342 H          2 BB2          0.0000
    50 H19        1.6624   -21.3158    11.9408 H          2 BB2          0.0000
    51 H20       -0.2833   -20.6023    14.2066 H          2 BB2          0.0000
    52 H21        1.0778   -21.7733    14.2307 H          2 BB2          0.0000
    53 H22        1.4578   -19.2928    15.2401 H          2 BB2          0.0000
    54 H23        2.7304   -20.0270    14.2170 H          2 BB2          0.0000
    55 H24        1.6369   -19.1031    11.1842 H          2 BB2          0.0000
    56 H25        2.4212   -17.6409    15.3868 H          2 BB2          0.0000
    57 H26        3.2595   -16.3295    14.5231 H          2 BB2          0.0000
    58 H27        1.6038   -16.0811    15.1277 H          2 BB2          0.0000
@<TRIPOS>BOND
     1      1      2 1
     2      1     13 1
     3      1     14 1
     4      1     15 1
     5      2      3 1
     6      2      4 1
     7      2      5 1
     8      3     16 1
     9      3     17 1
    10      3     18 1
    11      4     19 1
    12      4     20 1
    13      4     21 1
    14      5      6 1
    15      6      7 1
    16      6     10 1
    17      6     22 1
    18      7      8 1
    19      7     23 1
    20      7     24 1
    21      8      9 1
    22      8     10 1
    23      8     25 1
    24      9     32 1
    25     10     11 1
    26     10     12 1
    27     11     26 1
    28     11     27 1
    29     11     28 1
    30     12     29 1
    31     12     30 1
    32     12     31 1
    33     33     34 1
    34     33     45 1
    35     33     46 1
    36     33     47 1
    37     34     35 1
    38     34     48 1
    39     34     49 1
    40     35     36 1
    41     35     39 1
    42     35     50 1
    43     36     37 1
    44     36     51 1
    45     36     52 1
    46     37     38 1
    47     37     53 1
    48     37     54 1
    49     38     39 1
    50     38     42 am
    51     39     40 1
    52     39     55 1
    53     40     41 2
    54     42     43 2
    55     42     44 1
    56     44     56 1
    57     44     57 1
    58     44     58 1
    59      9     40 am
@<TRIPOS>SUBSTRUCTURE
     1 BB1           9
     2 BB2          40
@<TRIPOS>MOLECULE
EN300-193626_i001_EN300-1087079_i001_18_3_1
  58   59   2   0   0
SMALL
USER_CHARGES
@<TRIPOS>ATOM
     1 C1        -2.6254   -11.6693    10.3142 C.3        1 BB1          0.0000
     2 C2        -1.1407   -11.3292    10.1693 C.3        1 BB1          0.0000
     3 C3        -0.7275   -11.4640     8.7024 C.3        1 BB1          0.0000
     4 C4        -0.8985    -9.8929    10.6375 C.3        1 BB1          0.0000
     5 O5        -0.3664   -12.2271    10.9668 O.3        1 BB1          0.0000
     6 C6        -0.7168   -13.6024    10.8002 C.3        1 BB1          0.0000
     7 C7        -0.3690   -14.4783    12.0153 C.3        1 BB1          0.0000
     8 C8         0.0734   -15.5567    11.0122 C.3        1 BB1          0.0000
     9 N9         1.2936   -16.2693    11.4143 N.am       1 BB1          0.0000
    10 C10        0.3277   -14.4136    10.0156 C.3        1 BB1          0.0000
    11 C11       -0.1006   -14.7421     8.5839 C.3        1 BB1          0.0000
    12 C12        1.7411   -13.8334    10.0960 C.3        1 BB1          0.0000
    13 H13       -2.7980   -12.6926     9.9806 H          1 BB1          0.0000
    14 H14       -2.9198   -11.5732    11.3593 H          1 BB1          0.0000
    15 H15       -3.2161   -10.9844     9.7058 H          1 BB1          0.0000
    16 H16       -1.3182   -10.7792     8.0940 H          1 BB1          0.0000
    17 H17        0.3303   -11.2217     8.5991 H          1 BB1          0.0000
    18 H18       -0.9000   -12.4873     8.3688 H          1 BB1          0.0000
    19 H19       -1.1930    -9.7968    11.6825 H          1 BB1          0.0000
    20 H20        0.1592    -9.6505    10.5342 H          1 BB1          0.0000
    21 H21       -1.4893    -9.2079    10.0291 H          1 BB1          0.0000
    22 H22       -1.7371   -13.7387    10.4414 H          1 BB1          0.0000
    23 H23        0.4475   -14.0826    12.6194 H          1 BB1          0.0000
    24 H24       -1.2365   -14.7646    12.6099 H          1 BB1          0.0000
    25 H25       -0.7298   -16.2293    10.7116 H          1 BB1          0.0000
    26 H26       -1.0469   -15.2827     8.6027 H          1 BB1          0.0000
    27 H27       -0.2215   -13.8175     8.0196 H          1 BB1          0.0000
    28 H28        0.6616   -15.3604     8.1095 H          1 BB1          0.0000
    29 H29        2.4328   -14.4863     9.5638 H          1 BB1          0.0000
    30 H30        1.7536   -12.8428     9.6413 H          1 BB1          0.0000
    31 H31        2.0438   -13.7575    11.1404 H          1 BB1          0.0000
    32 H32        1.6614   -16.7783    10.6247 H          1 BB1          0.0000
    33 C1         1.0818   -22.5263    13.6966 C.3        2 BB2          0.0000
    34 C2         0.8385   -21.2511    12.8869 C.3        2 BB2          0.0000
    35 C3         1.3993   -20.0486    13.6488 C.3        2 BB2          0.0000
    36 C4         0.6144   -19.8194    14.9674 C.3        2 BB2          0.0000
    37 C5         0.8268   -18.3021    15.1961 C.3        2 BB2          0.0000
    38 N6         0.7885   -17.7080    13.8473 N.am       2 BB2          0.0000
    39 C7         1.1498   -18.7420    12.8665 C.3        2 BB2          0.0000
    40 C8         0.0201   -18.9377    11.8885 C.2        2 BB2          0.0000
    41 O9        -1.0946   -18.5208    12.1532 O.2        2 BB2          0.0000
    42 C11        0.4736   -16.4293    13.5609 C.2        2 BB2          0.0000
    43 O12        0.1899   -15.6599    14.4545 O.2        2 BB2          0.0000
    44 C13        0.4739   -15.9554    12.1304 C.3        2 BB2          0.0000
    45 H14        0.6823   -23.3830    13.1538 H          2 BB2          0.0000
    46 H15        2.1526   -22.6605    13.8499 H          2 BB2          0.0000
    47 H16        0.5839   -22.4439    14.6627 H          2 BB2          0.0000
    48 H17        1.3363   -21.3335    11.9209 H          2 BB2          0.0000
    49 H18       -0.2323   -21.1168    12.7336 H          2 BB2          0.0000
    50 H19        2.4618   -20.1833    13.8510 H          2 BB2          0.0000
    51 H20       -0.4429   -20.0506    14.8378 H          2 BB2          0.0000
    52 H21        1.0429   -20.4013    15.7834 H          2 BB2          0.0000
    53 H22        0.0252   -17.8954    15.8126 H          2 BB2          0.0000
    54 H23        1.7949   -18.1207    15.6630 H          2 BB2          0.0000
    55 H24        2.0557   -18.4489    12.3358 H          2 BB2          0.0000
    56 H25        0.7514   -16.7806    11.4744 H          2 BB2          0.0000
    57 H26       -0.5217   -15.5995    11.8653 H          2 BB2          0.0000
    58 H27        1.1923   -15.1435    12.0167 H          2 BB2          0.0000
@<TRIPOS>BOND
     1      1      2 1
     2      1     13 1
     3      1     14 1
     4      1     15 1
     5      2      3 1
     6      2      4 1
     7      2      5 1
     8      3     16 1
     9      3     17 1
    10      3     18 1
    11      4     19 1
    12      4     20 1
    13      4     21 1
    14      5      6 1
    15      6      7 1
    16      6     10 1
    17      6     22 1
    18      7      8 1
    19      7     23 1
    20      7     24 1
    21      8      9 1
    22      8     10 1
    23      8     25 1
    24      9     32 1
    25     10     11 1
    26     10     12 1
    27     11     26 1
    28     11     27 1
    29     11     28 1
    30     12     29 1
    31     12     30 1
    32     12     31 1
    33     33     34 1
    34     33     45 1
    35     33     46 1
    36     33     47 1
    37     34     35 1
    38     34     48 1
    39     34     49 1
    40     35     36 1
    41     35     39 1
    42     35     50 1
    43     36     37 1
    44     36     51 1
    45     36     52 1
    46     37     38 1
    47     37     53 1
    48     37     54 1
    49     38     39 1
    50     38     42 am
    51     39     40 1
    52     39     55 1
    53     40     41 2
    54     42     43 2
    55     42     44 1
    56     44     56 1
    57     44     57 1
    58     44     58 1
    59      9     40 am
@<TRIPOS>SUBSTRUCTURE
     1 BB1           9
     2 BB2          40
@<TRIPOS>MOLECULE
EN300-193626_i001_EN300-1087079_i001_18_7_1
  58   59   2   0   0
SMALL
USER_CHARGES
@<TRIPOS>ATOM
     1 C1        -2.6254   -11.6693    10.3142 C.3        1 BB1          0.0000
     2 C2        -1.1407   -11.3292    10.1693 C.3        1 BB1          0.0000
     3 C3        -0.7275   -11.4640     8.7024 C.3        1 BB1          0.0000
     4 C4        -0.8985    -9.8929    10.6375 C.3        1 BB1          0.0000
     5 O5        -0.3664   -12.2271    10.9668 O.3        1 BB1          0.0000
     6 C6        -0.7168   -13.6024    10.8002 C.3        1 BB1          0.0000
     7 C7        -0.3690   -14.4783    12.0153 C.3        1 BB1          0.0000
     8 C8         0.0734   -15.5567    11.0122 C.3        1 BB1          0.0000
     9 N9         1.2936   -16.2693    11.4143 N.am       1 BB1          0.0000
    10 C10        0.3277   -14.4136    10.0156 C.3        1 BB1          0.0000
    11 C11       -0.1006   -14.7421     8.5839 C.3        1 BB1          0.0000
    12 C12        1.7411   -13.8334    10.0960 C.3        1 BB1          0.0000
    13 H13       -2.7980   -12.6926     9.9806 H          1 BB1          0.0000
    14 H14       -2.9198   -11.5732    11.3593 H          1 BB1          0.0000
    15 H15       -3.2161   -10.9844     9.7058 H          1 BB1          0.0000
    16 H16       -1.3182   -10.7792     8.0940 H          1 BB1          0.0000
    17 H17        0.3303   -11.2217     8.5991 H          1 BB1          0.0000
    18 H18       -0.9000   -12.4873     8.3688 H          1 BB1          0.0000
    19 H19       -1.1930    -9.7968    11.6825 H          1 BB1          0.0000
    20 H20        0.1592    -9.6505    10.5342 H          1 BB1          0.0000
    21 H21       -1.4893    -9.2079    10.0291 H          1 BB1          0.0000
    22 H22       -1.7371   -13.7387    10.4414 H          1 BB1          0.0000
    23 H23        0.4475   -14.0826    12.6194 H          1 BB1          0.0000
    24 H24       -1.2365   -14.7646    12.6099 H          1 BB1          0.0000
    25 H25       -0.7298   -16.2293    10.7116 H          1 BB1          0.0000
    26 H26       -1.0469   -15.2827     8.6027 H          1 BB1          0.0000
    27 H27       -0.2215   -13.8175     8.0196 H          1 BB1          0.0000
    28 H28        0.6616   -15.3604     8.1095 H          1 BB1          0.0000
    29 H29        2.4328   -14.4863     9.5638 H          1 BB1          0.0000
    30 H30        1.7536   -12.8428     9.6413 H          1 BB1          0.0000
    31 H31        2.0438   -13.7575    11.1404 H          1 BB1          0.0000
    32 H32        1.6614   -16.7783    10.6247 H          1 BB1          0.0000
    33 C1         0.0812   -22.3818    12.8543 C.3        2 BB2          0.0000
    34 C2         0.1562   -21.0870    12.0427 C.3        2 BB2          0.0000
    35 C3         1.2294   -20.1734    12.6380 C.3        2 BB2          0.0000
    36 C4         1.0894   -20.0951    14.1813 C.3        2 BB2          0.0000
    37 C5         1.7190   -18.7118    14.4809 C.3        2 BB2          0.0000
    38 N6         1.3030   -17.8558    13.3551 N.am       2 BB2          0.0000
    39 C7         1.0082   -18.7114    12.1963 C.3        2 BB2          0.0000
    40 C8        -0.4230   -18.5167    11.7664 C.2        2 BB2          0.0000
    41 O10       -1.3268   -18.6666    12.5710 O.2        2 BB2          0.0000
    42 C11        1.2079   -16.5117    13.3836 C.2        2 BB2          0.0000
    43 O12        1.4771   -15.9063    14.3994 O.2        2 BB2          0.0000
    44 C13        0.7670   -15.7612    12.1535 C.3        2 BB2          0.0000
    45 H14       -0.6833   -23.0327    12.4301 H          2 BB2          0.0000
    46 H15        1.0467   -22.8868    12.8226 H          2 BB2          0.0000
    47 H16       -0.1730   -22.1484    13.8881 H          2 BB2          0.0000
    48 H17        0.4104   -21.3204    11.0088 H          2 BB2          0.0000
    49 H18       -0.8092   -20.5819    12.0743 H          2 BB2          0.0000
    50 H19        2.2252   -20.5172    12.3582 H          2 BB2          0.0000
    51 H20        0.0414   -20.1203    14.4802 H          2 BB2          0.0000
    52 H21        1.6515   -20.8935    14.6656 H          2 BB2          0.0000
    53 H22        1.3348   -18.3157    15.4209 H          2 BB2          0.0000
    54 H23        2.8057   -18.7895    14.5170 H          2 BB2          0.0000
    55 H24        1.6809   -18.4667    11.3742 H          2 BB2          0.0000
    56 H25        0.5709   -16.4682    11.3473 H          2 BB2          0.0000
    57 H26       -0.1419   -15.2019    12.3753 H          2 BB2          0.0000
    58 H27        1.5532   -15.0707    11.8479 H          2 BB2          0.0000
@<TRIPOS>BOND
     1      1      2 1
     2      1     13 1
     3      1     14 1
     4      1     15 1
     5      2      3 1
     6      2      4 1
     7      2      5 1
     8      3     16 1
     9      3     17 1
    10      3     18 1
    11      4     19 1
    12      4     20 1
    13      4     21 1
    14      5      6 1
    15      6      7 1
    16      6     10 1
    17      6     22 1
    18      7      8 1
    19      7     23 1
    20      7     24 1
    21      8      9 1
    22      8     10 1
    23      8     25 1
    24      9     32 1
    25     10     11 1
    26     10     12 1
    27     11     26 1
    28     11     27 1
    29     11     28 1
    30     12     29 1
    31     12     30 1
    32     12     31 1
    33     33     34 1
    34     33     45 1
    35     33     46 1
    36     33     47 1
    37     34     35 1
    38     34     48 1
    39     34     49 1
    40     35     36 1
    41     35     39 1
    42     35     50 1
    43     36     37 1
    44     36     51 1
    45     36     52 1
    46     37     38 1
    47     37     53 1
    48     37     54 1
    49     38     39 1
    50     38     42 am
    51     39     40 1
    52     39     55 1
    53     40     41 2
    54     42     43 2
    55     42     44 1
    56     44     56 1
    57     44     57 1
    58     44     58 1
    59      9     40 am
@<TRIPOS>SUBSTRUCTURE
     1 BB1           9
     2 BB2          40
@<TRIPOS>MOLECULE
EN300-193626_i001_EN300-1165841_i001_18_10_1
  60   61   2   0   0
SMALL
USER_CHARGES
@<TRIPOS>ATOM
     1 C1        -2.6254   -11.6693    10.3142 C.3        1 BB1          0.0000
     2 C2        -1.1407   -11.3292    10.1693 C.3        1 BB1          0.0000
     3 C3        -0.7275   -11.4640     8.7024 C.3        1 BB1          0.0000
     4 C4        -0.8985    -9.8929    10.6375 C.3        1 BB1          0.0000
     5 O5        -0.3664   -12.2271    10.9668 O.3        1 BB1          0.0000
     6 C6        -0.7168   -13.6024    10.8002 C.3        1 BB1          0.0000
     7 C7        -0.3690   -14.4783    12.0153 C.3        1 BB1          0.0000
     8 C8         0.0734   -15.5567    11.0122 C.3        1 BB1          0.0000
     9 N9         1.2936   -16.2693    11.4143 N.am       1 BB1          0.0000
    10 C10        0.3277   -14.4136    10.0156 C.3        1 BB1          0.0000
    11 C11       -0.1006   -14.7421     8.5839 C.3        1 BB1          0.0000
    12 C12        1.7411   -13.8334    10.0960 C.3        1 BB1          0.0000
    13 H13       -2.7980   -12.6926     9.9806 H          1 BB1          0.0000
    14 H14       -2.9198   -11.5732    11.3593 H          1 BB1          0.0000
    15 H15       -3.2161   -10.9844     9.7058 H          1 BB1          0.0000
    16 H16       -1.3182   -10.7792     8.0940 H          1 BB1          0.0000
    17 H17        0.3303   -11.2217     8.5991 H          1 BB1          0.0000
    18 H18       -0.9000   -12.4873     8.3688 H          1 BB1          0.0000
    19 H19       -1.1930    -9.7968    11.6825 H          1 BB1          0.0000
    20 H20        0.1592    -9.6505    10.5342 H          1 BB1          0.0000
    21 H21       -1.4893    -9.2079    10.0291 H          1 BB1          0.0000
    22 H22       -1.7371   -13.7387    10.4414 H          1 BB1          0.0000
    23 H23        0.4475   -14.0826    12.6194 H          1 BB1          0.0000
    24 H24       -1.2365   -14.7646    12.6099 H          1 BB1          0.0000
    25 H25       -0.7298   -16.2293    10.7116 H          1 BB1          0.0000
    26 H26       -1.0469   -15.2827     8.6027 H          1 BB1          0.0000
    27 H27       -0.2215   -13.8175     8.0196 H          1 BB1          0.0000
    28 H28        0.6616   -15.3604     8.1095 H          1 BB1          0.0000
    29 H29        2.4328   -14.4863     9.5638 H          1 BB1          0.0000
    30 H30        1.7536   -12.8428     9.6413 H          1 BB1          0.0000
    31 H31        2.0438   -13.7575    11.1404 H          1 BB1          0.0000
    32 H34        1.0763   -16.9146    12.1589 H          1 BB1          0.0000
    33 C1        -0.7086   -16.1151    14.9647 C.3        2 BB2          0.0000
    34 C2        -0.2456   -16.3017    13.5184 C.3        2 BB2          0.0000
    35 N3        -0.6091   -17.6484    13.0577 N.4        2 BB2          1.0000
    36 C4         0.1821   -18.6446    13.7899 C.3        2 BB2          0.0000
    37 C5        -0.2499   -20.0519    13.3722 C.3        2 BB2          0.0000
    38 C6        -0.0237   -20.2238    11.8674 C.3        2 BB2          0.0000
    39 O7         1.3709   -20.1085    11.5776 O.3        2 BB2          0.0000
    40 C8        -0.7944   -19.1335    11.1174 C.3        2 BB2          0.0000
    41 C9        -0.3422   -17.7602    11.6187 C.3        2 BB2          0.0000
    42 C10       -0.5062   -21.5488    11.4453 C.1        2 BB2          0.0000
    43 C11       -0.8911   -22.6057    11.1088 C.1        2 BB2          0.0000
    44 C12        1.2499   -16.1319    13.4438 C.2        2 BB2          0.0000
    45 O14        1.8887   -15.9021    14.4566 O.2        2 BB2          0.0000
    46 H15       -0.2264   -16.8588    15.5993 H          2 BB2          0.0000
    47 H16       -0.4388   -15.1159    15.3066 H          2 BB2          0.0000
    48 H17       -1.7903   -16.2380    15.0186 H          2 BB2          0.0000
    49 H18       -0.7277   -15.5581    12.8838 H          2 BB2          0.0000
    50 H19        1.2392   -18.5070    13.5624 H          2 BB2          0.0000
    51 H20        0.0225   -18.5189    14.8608 H          2 BB2          0.0000
    52 H21        0.3399   -20.7900    13.9156 H          2 BB2          0.0000
    53 H22       -1.3069   -20.1906    13.5996 H          2 BB2          0.0000
    54 H23       -0.5938   -19.2152    10.0492 H          2 BB2          0.0000
    55 H24       -1.8626   -19.2532    11.2980 H          2 BB2          0.0000
    56 H25       -0.8888   -16.9816    11.0867 H          2 BB2          0.0000
    57 H26        0.7260   -17.6415    11.4374 H          2 BB2          0.0000
    58 H27       -1.2353   -23.5508    10.8077 H          2 BB2          0.0000
    59 H28        1.5903   -20.2342    10.6442 H          2 BB2          0.0000
    60 H29       -1.5906   -17.8078    13.2291 H          2 BB2          0.0000
@<TRIPOS>BOND
     1      1      2 1
     2      1     13 1
     3      1     14 1
     4      1     15 1
     5      2      3 1
     6      2      4 1
     7      2      5 1
     8      3     16 1
     9      3     17 1
    10      3     18 1
    11      4     19 1
    12      4     20 1
    13      4     21 1
    14      5      6 1
    15      6      7 1
    16      6     10 1
    17      6     22 1
    18      7      8 1
    19      7     23 1
    20      7     24 1
    21      8      9 1
    22      8     10 1
    23      8     25 1
    24      9     32 1
    25     10     11 1
    26     10     12 1
    27     11     26 1
    28     11     27 1
    29     11     28 1
    30     12     29 1
    31     12     30 1
    32     12     31 1
    33     33     34 1
    34     33     46 1
    35     33     47 1
    36     33     48 1
    37     34     35 1
    38     34     44 1
    39     34     49 1
    40     35     36 1
    41     35     41 1
    42     35     60 1
    43     36     37 1
    44     36     50 1
    45     36     51 1
    46     37     38 1
    47     37     52 1
    48     37     53 1
    49     38     39 1
    50     38     40 1
    51     38     42 1
    52     39     59 1
    53     40     41 1
    54     40     54 1
    55     40     55 1
    56     41     56 1
    57     41     57 1
    58     42     43 3
    59     43     58 1
    60     44     45 2
    61      9     44 am
@<TRIPOS>SUBSTRUCTURE
     1 BB1           9
     2 BB2          44
@<TRIPOS>MOLECULE
EN300-193626_i001_EN300-1165841_i001_18_17_1
  60   61   2   0   0
SMALL
USER_CHARGES
@<TRIPOS>ATOM
     1 C1        -2.6254   -11.6693    10.3142 C.3        1 BB1          0.0000
     2 C2        -1.1407   -11.3292    10.1693 C.3        1 BB1          0.0000
     3 C3        -0.7275   -11.4640     8.7024 C.3        1 BB1          0.0000
     4 C4        -0.8985    -9.8929    10.6375 C.3        1 BB1          0.0000
     5 O5        -0.3664   -12.2271    10.9668 O.3        1 BB1          0.0000
     6 C6        -0.7168   -13.6024    10.8002 C.3        1 BB1          0.0000
     7 C7        -0.3690   -14.4783    12.0153 C.3        1 BB1          0.0000
     8 C8         0.0734   -15.5567    11.0122 C.3        1 BB1          0.0000
     9 N9         1.2936   -16.2693    11.4143 N.am       1 BB1          0.0000
    10 C10        0.3277   -14.4136    10.0156 C.3        1 BB1          0.0000
    11 C11       -0.1006   -14.7421     8.5839 C.3        1 BB1          0.0000
    12 C12        1.7411   -13.8334    10.0960 C.3        1 BB1          0.0000
    13 H13       -2.7980   -12.6926     9.9806 H          1 BB1          0.0000
    14 H14       -2.9198   -11.5732    11.3593 H          1 BB1          0.0000
    15 H15       -3.2161   -10.9844     9.7058 H          1 BB1          0.0000
    16 H16       -1.3182   -10.7792     8.0940 H          1 BB1          0.0000
    17 H17        0.3303   -11.2217     8.5991 H          1 BB1          0.0000
    18 H18       -0.9000   -12.4873     8.3688 H          1 BB1          0.0000
    19 H19       -1.1930    -9.7968    11.6825 H          1 BB1          0.0000
    20 H20        0.1592    -9.6505    10.5342 H          1 BB1          0.0000
    21 H21       -1.4893    -9.2079    10.0291 H          1 BB1          0.0000
    22 H22       -1.7371   -13.7387    10.4414 H          1 BB1          0.0000
    23 H23        0.4475   -14.0826    12.6194 H          1 BB1          0.0000
    24 H24       -1.2365   -14.7646    12.6099 H          1 BB1          0.0000
    25 H25       -0.7298   -16.2293    10.7116 H          1 BB1          0.0000
    26 H26       -1.0469   -15.2827     8.6027 H          1 BB1          0.0000
    27 H27       -0.2215   -13.8175     8.0196 H          1 BB1          0.0000
    28 H28        0.6616   -15.3604     8.1095 H          1 BB1          0.0000
    29 H29        2.4328   -14.4863     9.5638 H          1 BB1          0.0000
    30 H30        1.7536   -12.8428     9.6413 H          1 BB1          0.0000
    31 H31        2.0438   -13.7575    11.1404 H          1 BB1          0.0000
    32 H32        1.6614   -16.7783    10.6247 H          1 BB1          0.0000
    33 C1         2.2567   -16.4697    12.8580 C.3        2 BB2          0.0000
    34 C2         1.5323   -16.9489    14.1175 C.3        2 BB2          0.0000
    35 N3         1.6413   -18.4103    14.2191 N.4        2 BB2          1.0000
    36 C4         1.2081   -19.0207    12.9564 C.3        2 BB2          0.0000
    37 C5         1.3960   -20.5376    13.0279 C.3        2 BB2          0.0000
    38 C6         0.5575   -21.0966    14.1811 C.3        2 BB2          0.0000
    39 O7        -0.8276   -20.8560    13.9251 O.3        2 BB2          0.0000
    40 C8         0.9667   -20.3992    15.4816 C.3        2 BB2          0.0000
    41 C9         0.7947   -18.8873    15.3191 C.3        2 BB2          0.0000
    42 C10        0.7912   -22.5448    14.3027 C.1        2 BB2          0.0000
    43 C11        0.9776   -23.6999    14.3997 C.1        2 BB2          0.0000
    44 C12        0.0790   -16.5577    14.0408 C.2        2 BB2          0.0000
    45 O13       -0.4050   -15.8391    14.8987 O.2        2 BB2          0.0000
    46 H15        1.8024   -16.9298    11.9804 H          2 BB2          0.0000
    47 H16        2.1758   -15.3853    12.7826 H          2 BB2          0.0000
    48 H17        3.3078   -16.7526    12.9135 H          2 BB2          0.0000
    49 H18        1.9865   -16.4888    14.9952 H          2 BB2          0.0000
    50 H19        0.1559   -18.7930    12.7855 H          2 BB2          0.0000
    51 H20        1.8036   -18.6195    12.1363 H          2 BB2          0.0000
    52 H21        1.0721   -20.9891    12.0902 H          2 BB2          0.0000
    53 H22        2.4480   -20.7664    13.1985 H          2 BB2          0.0000
    54 H23        0.3360   -20.7516    16.2977 H          2 BB2          0.0000
    55 H24        2.0097   -20.6251    15.7031 H          2 BB2          0.0000
    56 H25        1.0849   -18.3877    16.2434 H          2 BB2          0.0000
    57 H26       -0.2487   -18.6625    15.0979 H          2 BB2          0.0000
    58 H27        1.1443   -24.7329    14.4864 H          2 BB2          0.0000
    59 H28       -1.0191   -20.5899    13.0153 H          2 BB2          0.0000
    60 H29        2.6008   -18.6631    14.4019 H          2 BB2          0.0000
@<TRIPOS>BOND
     1      1      2 1
     2      1     13 1
     3      1     14 1
     4      1     15 1
     5      2      3 1
     6      2      4 1
     7      2      5 1
     8      3     16 1
     9      3     17 1
    10      3     18 1
    11      4     19 1
    12      4     20 1
    13      4     21 1
    14      5      6 1
    15      6      7 1
    16      6     10 1
    17      6     22 1
    18      7      8 1
    19      7     23 1
    20      7     24 1
    21      8      9 1
    22      8     10 1
    23      8     25 1
    24      9     32 1
    25     10     11 1
    26     10     12 1
    27     11     26 1
    28     11     27 1
    29     11     28 1
    30     12     29 1
    31     12     30 1
    32     12     31 1
    33     33     34 1
    34     33     46 1
    35     33     47 1
    36     33     48 1
    37     34     35 1
    38     34     44 1
    39     34     49 1
    40     35     36 1
    41     35     41 1
    42     35     60 1
    43     36     37 1
    44     36     50 1
    45     36     51 1
    46     37     38 1
    47     37     52 1
    48     37     53 1
    49     38     39 1
    50     38     40 1
    51     38     42 1
    52     39     59 1
    53     40     41 1
    54     40     54 1
    55     40     55 1
    56     41     56 1
    57     41     57 1
    58     42     43 3
    59     43     58 1
    60     44     45 2
    61      9     44 am
@<TRIPOS>SUBSTRUCTURE
     1 BB1           9
     2 BB2          44
@<TRIPOS>MOLECULE
EN300-193626_i001_EN300-97777_i001_18_19_1
  60   60   2   0   0
SMALL
USER_CHARGES
@<TRIPOS>ATOM
     1 C1        -2.6254   -11.6693    10.3142 C.3        1 BB1          0.0000
     2 C2        -1.1407   -11.3292    10.1693 C.3        1 BB1          0.0000
     3 C3        -0.7275   -11.4640     8.7024 C.3        1 BB1          0.0000
     4 C4        -0.8985    -9.8929    10.6375 C.3        1 BB1          0.0000
     5 O5        -0.3664   -12.2271    10.9668 O.3        1 BB1          0.0000
     6 C6        -0.7168   -13.6024    10.8002 C.3        1 BB1          0.0000
     7 C7        -0.3690   -14.4783    12.0153 C.3        1 BB1          0.0000
     8 C8         0.0734   -15.5567    11.0122 C.3        1 BB1          0.0000
     9 N9         1.2936   -16.2693    11.4143 N.am       1 BB1          0.0000
    10 C10        0.3277   -14.4136    10.0156 C.3        1 BB1          0.0000
    11 C11       -0.1006   -14.7421     8.5839 C.3        1 BB1          0.0000
    12 C12        1.7411   -13.8334    10.0960 C.3        1 BB1          0.0000
    13 H13       -2.7980   -12.6926     9.9806 H          1 BB1          0.0000
    14 H14       -2.9198   -11.5732    11.3593 H          1 BB1          0.0000
    15 H15       -3.2161   -10.9844     9.7058 H          1 BB1          0.0000
    16 H16       -1.3182   -10.7792     8.0940 H          1 BB1          0.0000
    17 H17        0.3303   -11.2217     8.5991 H          1 BB1          0.0000
    18 H18       -0.9000   -12.4873     8.3688 H          1 BB1          0.0000
    19 H19       -1.1930    -9.7968    11.6825 H          1 BB1          0.0000
    20 H20        0.1592    -9.6505    10.5342 H          1 BB1          0.0000
    21 H21       -1.4893    -9.2079    10.0291 H          1 BB1          0.0000
    22 H22       -1.7371   -13.7387    10.4414 H          1 BB1          0.0000
    23 H23        0.4475   -14.0826    12.6194 H          1 BB1          0.0000
    24 H24       -1.2365   -14.7646    12.6099 H          1 BB1          0.0000
    25 H25       -0.7298   -16.2293    10.7116 H          1 BB1          0.0000
    26 H26       -1.0469   -15.2827     8.6027 H          1 BB1          0.0000
    27 H27       -0.2215   -13.8175     8.0196 H          1 BB1          0.0000
    28 H28        0.6616   -15.3604     8.1095 H          1 BB1          0.0000
    29 H29        2.4328   -14.4863     9.5638 H          1 BB1          0.0000
    30 H30        1.7536   -12.8428     9.6413 H          1 BB1          0.0000
    31 H31        2.0438   -13.7575    11.1404 H          1 BB1          0.0000
    32 H32        1.6614   -16.7783    10.6247 H          1 BB1          0.0000
    33 C1         0.0416   -20.7360    14.9060 C.3        2 BB2          0.0000
    34 C2         0.1840   -20.5981    13.3889 C.3        2 BB2          0.0000
    35 C3         1.6587   -20.7254    13.0013 C.3        2 BB2          0.0000
    36 C4        -0.6217   -21.7004    12.6986 C.3        2 BB2          0.0000
    37 O5        -0.3156   -19.3001    12.9719 O.3        2 BB2          0.0000
    38 C6        -0.1370   -18.9623    11.6808 C.2        2 BB2          0.0000
    39 O7         0.1824   -19.8090    10.8700 O.2        2 BB2          0.0000
    40 N8        -0.3127   -17.6851    11.2879 N.am       2 BB2          0.0000
    41 C9        -0.1185   -17.3176     9.8831 C.3        2 BB2          0.0000
    42 C10       -1.0017   -18.1350     9.0354 C.1        2 BB2          0.0000
    43 C11       -1.7062   -18.7868     8.3594 C.1        2 BB2          0.0000
    44 C12       -0.6979   -16.6643    12.2656 C.3        2 BB2          0.0000
    45 C13        0.4114   -16.4870    13.2702 C.2        2 BB2          0.0000
    46 O14        0.3050   -15.6556    14.1555 O.2        2 BB2          0.0000
    47 H16        0.6157   -19.9507    15.3977 H          2 BB2          0.0000
    48 H17       -1.0089   -20.6453    15.1820 H          2 BB2          0.0000
    49 H18        0.4168   -21.7104    15.2190 H          2 BB2          0.0000
    50 H19        2.0337   -21.6998    13.3144 H          2 BB2          0.0000
    51 H20        1.7601   -20.6270    11.9205 H          2 BB2          0.0000
    52 H21        2.2327   -19.9400    13.4932 H          2 BB2          0.0000
    53 H22       -1.6723   -21.6096    12.9747 H          2 BB2          0.0000
    54 H23       -0.5203   -21.6021    11.6178 H          2 BB2          0.0000
    55 H24       -0.2466   -22.6748    13.0116 H          2 BB2          0.0000
    56 H25       -0.3582   -16.2631     9.7470 H          2 BB2          0.0000
    57 H26        0.9198   -17.4935     9.6018 H          2 BB2          0.0000
    58 H27       -2.3362   -19.3699     7.7548 H          2 BB2          0.0000
    59 H28       -0.8780   -15.7195    11.7527 H          2 BB2          0.0000
    60 H29       -1.6067   -16.9778    12.7794 H          2 BB2          0.0000
@<TRIPOS>BOND
     1      1      2 1
     2      1     13 1
     3      1     14 1
     4      1     15 1
     5      2      3 1
     6      2      4 1
     7      2      5 1
     8      3     16 1
     9      3     17 1
    10      3     18 1
    11      4     19 1
    12      4     20 1
    13      4     21 1
    14      5      6 1
    15      6      7 1
    16      6     10 1
    17      6     22 1
    18      7      8 1
    19      7     23 1
    20      7     24 1
    21      8      9 1
    22      8     10 1
    23      8     25 1
    24      9     32 1
    25     10     11 1
    26     10     12 1
    27     11     26 1
    28     11     27 1
    29     11     28 1
    30     12     29 1
    31     12     30 1
    32     12     31 1
    33     33     34 1
    34     33     47 1
    35     33     48 1
    36     33     49 1
    37     34     35 1
    38     34     36 1
    39     34     37 1
    40     35     50 1
    41     35     51 1
    42     35     52 1
    43     36     53 1
    44     36     54 1
    45     36     55 1
    46     37     38 1
    47     38     39 2
    48     38     40 am
    49     40     41 1
    50     40     44 1
    51     41     42 1
    52     41     56 1
    53     41     57 1
    54     42     43 3
    55     43     58 1
    56     44     45 1
    57     44     59 1
    58     44     60 1
    59     45     46 2
    60      9     45 am
@<TRIPOS>SUBSTRUCTURE
     1 BB1           9
     2 BB2          45
@<TRIPOS>MOLECULE
EN300-193626_i001_EN300-222254_i002_18_11_1
  55   57   2   0   0
SMALL
USER_CHARGES
@<TRIPOS>ATOM
     1 C1        -2.6254   -11.6693    10.3142 C.3        1 BB1          0.0000
     2 C2        -1.1407   -11.3292    10.1693 C.3        1 BB1          0.0000
     3 C3        -0.7275   -11.4640     8.7024 C.3        1 BB1          0.0000
     4 C4        -0.8985    -9.8929    10.6375 C.3        1 BB1          0.0000
     5 O5        -0.3664   -12.2271    10.9668 O.3        1 BB1          0.0000
     6 C6        -0.7168   -13.6024    10.8002 C.3        1 BB1          0.0000
     7 C7        -0.3690   -14.4783    12.0153 C.3        1 BB1          0.0000
     8 C8         0.0734   -15.5567    11.0122 C.3        1 BB1          0.0000
     9 N9         1.2936   -16.2693    11.4143 N.am       1 BB1          0.0000
    10 C10        0.3277   -14.4136    10.0156 C.3        1 BB1          0.0000
    11 C11       -0.1006   -14.7421     8.5839 C.3        1 BB1          0.0000
    12 C12        1.7411   -13.8334    10.0960 C.3        1 BB1          0.0000
    13 H13       -2.7980   -12.6926     9.9806 H          1 BB1          0.0000
    14 H14       -2.9198   -11.5732    11.3593 H          1 BB1          0.0000
    15 H15       -3.2161   -10.9844     9.7058 H          1 BB1          0.0000
    16 H16       -1.3182   -10.7792     8.0940 H          1 BB1          0.0000
    17 H17        0.3303   -11.2217     8.5991 H          1 BB1          0.0000
    18 H18       -0.9000   -12.4873     8.3688 H          1 BB1          0.0000
    19 H19       -1.1930    -9.7968    11.6825 H          1 BB1          0.0000
    20 H20        0.1592    -9.6505    10.5342 H          1 BB1          0.0000
    21 H21       -1.4893    -9.2079    10.0291 H          1 BB1          0.0000
    22 H22       -1.7371   -13.7387    10.4414 H          1 BB1          0.0000
    23 H23        0.4475   -14.0826    12.6194 H          1 BB1          0.0000
    24 H24       -1.2365   -14.7646    12.6099 H          1 BB1          0.0000
    25 H25       -0.7298   -16.2293    10.7116 H          1 BB1          0.0000
    26 H26       -1.0469   -15.2827     8.6027 H          1 BB1          0.0000
    27 H27       -0.2215   -13.8175     8.0196 H          1 BB1          0.0000
    28 H28        0.6616   -15.3604     8.1095 H          1 BB1          0.0000
    29 H29        2.4328   -14.4863     9.5638 H          1 BB1          0.0000
    30 H30        1.7536   -12.8428     9.6413 H          1 BB1          0.0000
    31 H31        2.0438   -13.7575    11.1404 H          1 BB1          0.0000
    32 H32        1.6614   -16.7783    10.6247 H          1 BB1          0.0000
    33 C2        -0.0890   -16.4649    13.9530 C.2        2 BB2          0.0000
    34 O3        -0.1375   -15.6005    14.8116 O.2        2 BB2          0.0000
    35 C4         1.0102   -17.4953    13.9824 C.3        2 BB2          0.0000
    36 C5         2.4137   -16.9052    13.7655 C.3        2 BB2          0.0000
    37 C6         2.7134   -18.1403    12.8997 C.3        2 BB2          0.0000
    38 C7         1.1995   -18.2324    12.6460 C.3        2 BB2          0.0000
    39 C8         0.6707   -19.6435    12.6547 C.ar       2 BB2          0.0000
    40 C9         0.9666   -20.4857    13.7095 C.ar       2 BB2          0.0000
    41 C10        0.4823   -21.7805    13.7181 C.ar       2 BB2          0.0000
    42 C11       -0.2996   -22.2344    12.6710 C.ar       2 BB2          0.0000
    43 Cl12      -0.9077   -23.8604    12.6831 Cl         2 BB2          0.0000
    44 C13       -0.5972   -21.3925    11.6145 C.ar       2 BB2          0.0000
    45 C14       -0.1166   -20.0944    11.6084 C.ar       2 BB2          0.0000
    46 F15       -0.4069   -19.2710    10.5774 F          2 BB2          0.0000
    47 H16        0.9444   -18.1600    14.8436 H          2 BB2          0.0000
    48 H17        2.4123   -15.9697    13.2060 H          2 BB2          0.0000
    49 H18        3.0114   -16.8544    14.6755 H          2 BB2          0.0000
    50 H19        3.2933   -17.9157    12.0045 H          2 BB2          0.0000
    51 H20        3.1136   -18.9825    13.4642 H          2 BB2          0.0000
    52 H21        0.8662   -17.6598    11.7805 H          2 BB2          0.0000
    53 H22        1.5769   -20.1323    14.5275 H          2 BB2          0.0000
    54 H23        0.7147   -22.4382    14.5427 H          2 BB2          0.0000
    55 H24       -1.2075   -21.7465    10.7969 H          2 BB2          0.0000
@<TRIPOS>BOND
     1      1      2 1
     2      1     13 1
     3      1     14 1
     4      1     15 1
     5      2      3 1
     6      2      4 1
     7      2      5 1
     8      3     16 1
     9      3     17 1
    10      3     18 1
    11      4     19 1
    12      4     20 1
    13      4     21 1
    14      5      6 1
    15      6      7 1
    16      6     10 1
    17      6     22 1
    18      7      8 1
    19      7     23 1
    20      7     24 1
    21      8      9 1
    22      8     10 1
    23      8     25 1
    24      9     32 1
    25     10     11 1
    26     10     12 1
    27     11     26 1
    28     11     27 1
    29     11     28 1
    30     12     29 1
    31     12     30 1
    32     12     31 1
    33     33     34 2
    34     33     35 1
    35     35     36 1
    36     35     38 1
    37     35     47 1
    38     36     37 1
    39     36     48 1
    40     36     49 1
    41     37     38 1
    42     37     50 1
    43     37     51 1
    44     38     39 1
    45     38     52 1
    46     39     40 ar
    47     39     45 ar
    48     40     41 ar
    49     40     53 1
    50     41     42 ar
    51     41     54 1
    52     42     43 1
    53     42     44 ar
    54     44     45 ar
    55     44     55 1
    56     45     46 1
    57      9     33 am
@<TRIPOS>SUBSTRUCTURE
     1 BB1           9
     2 BB2          33
@<TRIPOS>MOLECULE
EN300-193626_i001_EN300-222254_i002_18_20_1
  55   57   2   0   0
SMALL
USER_CHARGES
@<TRIPOS>ATOM
     1 C1        -2.6254   -11.6693    10.3142 C.3        1 BB1          0.0000
     2 C2        -1.1407   -11.3292    10.1693 C.3        1 BB1          0.0000
     3 C3        -0.7275   -11.4640     8.7024 C.3        1 BB1          0.0000
     4 C4        -0.8985    -9.8929    10.6375 C.3        1 BB1          0.0000
     5 O5        -0.3664   -12.2271    10.9668 O.3        1 BB1          0.0000
     6 C6        -0.7168   -13.6024    10.8002 C.3        1 BB1          0.0000
     7 C7        -0.3690   -14.4783    12.0153 C.3        1 BB1          0.0000
     8 C8         0.0734   -15.5567    11.0122 C.3        1 BB1          0.0000
     9 N9         1.2936   -16.2693    11.4143 N.am       1 BB1          0.0000
    10 C10        0.3277   -14.4136    10.0156 C.3        1 BB1          0.0000
    11 C11       -0.1006   -14.7421     8.5839 C.3        1 BB1          0.0000
    12 C12        1.7411   -13.8334    10.0960 C.3        1 BB1          0.0000
    13 H13       -2.7980   -12.6926     9.9806 H          1 BB1          0.0000
    14 H14       -2.9198   -11.5732    11.3593 H          1 BB1          0.0000
    15 H15       -3.2161   -10.9844     9.7058 H          1 BB1          0.0000
    16 H16       -1.3182   -10.7792     8.0940 H          1 BB1          0.0000
    17 H17        0.3303   -11.2217     8.5991 H          1 BB1          0.0000
    18 H18       -0.9000   -12.4873     8.3688 H          1 BB1          0.0000
    19 H19       -1.1930    -9.7968    11.6825 H          1 BB1          0.0000
    20 H20        0.1592    -9.6505    10.5342 H          1 BB1          0.0000
    21 H21       -1.4893    -9.2079    10.0291 H          1 BB1          0.0000
    22 H22       -1.7371   -13.7387    10.4414 H          1 BB1          0.0000
    23 H23        0.4475   -14.0826    12.6194 H          1 BB1          0.0000
    24 H24       -1.2365   -14.7646    12.6099 H          1 BB1          0.0000
    25 H25       -0.7298   -16.2293    10.7116 H          1 BB1          0.0000
    26 H26       -1.0469   -15.2827     8.6027 H          1 BB1          0.0000
    27 H27       -0.2215   -13.8175     8.0196 H          1 BB1          0.0000
    28 H28        0.6616   -15.3604     8.1095 H          1 BB1          0.0000
    29 H29        2.4328   -14.4863     9.5638 H          1 BB1          0.0000
    30 H30        1.7536   -12.8428     9.6413 H          1 BB1          0.0000
    31 H31        2.0438   -13.7575    11.1404 H          1 BB1          0.0000
    32 H33        1.9810   -15.6042    11.7355 H          1 BB1          0.0000
    33 C2        -0.2904   -16.6423    12.7290 C.2        2 BB2          0.0000
    34 O3        -0.9994   -17.3999    12.0888 O.2        2 BB2          0.0000
    35 C4         0.4712   -17.1529    13.9248 C.3        2 BB2          0.0000
    36 C5         1.6394   -16.2452    14.3447 C.3        2 BB2          0.0000
    37 C6         2.4427   -17.5309    14.6026 C.3        2 BB2          0.0000
    38 C7         1.5260   -18.2160    13.5753 C.3        2 BB2          0.0000
    39 C8         1.1243   -19.6156    13.9636 C.ar       2 BB2          0.0000
    40 C9         0.6320   -19.8668    15.2300 C.ar       2 BB2          0.0000
    41 C10        0.2636   -21.1505    15.5872 C.ar       2 BB2          0.0000
    42 C11        0.3868   -22.1850    14.6770 C.ar       2 BB2          0.0000
    43 Cl12      -0.0766   -23.7965    15.1264 Cl         2 BB2          0.0000
    44 C13        0.8790   -21.9351    13.4085 C.ar       2 BB2          0.0000
    45 C14        1.2430   -20.6489    13.0492 C.ar       2 BB2          0.0000
    46 F15        1.7234   -20.4034    11.8106 F          2 BB2          0.0000
    47 H16       -0.1798   -17.4371    14.7515 H          2 BB2          0.0000
    48 H17        2.0357   -15.6387    13.5304 H          2 BB2          0.0000
    49 H18        1.4403   -15.6665    15.2467 H          2 BB2          0.0000
    50 H19        3.4833   -17.4666    14.2848 H          2 BB2          0.0000
    51 H20        2.3314   -17.9196    15.6148 H          2 BB2          0.0000
    52 H21        1.8913   -18.1483    12.5506 H          2 BB2          0.0000
    53 H22        0.5354   -19.0599    15.9414 H          2 BB2          0.0000
    54 H23       -0.1204   -21.3460    16.5776 H          2 BB2          0.0000
    55 H24        0.9754   -22.7424    12.6977 H          2 BB2          0.0000
@<TRIPOS>BOND
     1      1      2 1
     2      1     13 1
     3      1     14 1
     4      1     15 1
     5      2      3 1
     6      2      4 1
     7      2      5 1
     8      3     16 1
     9      3     17 1
    10      3     18 1
    11      4     19 1
    12      4     20 1
    13      4     21 1
    14      5      6 1
    15      6      7 1
    16      6     10 1
    17      6     22 1
    18      7      8 1
    19      7     23 1
    20      7     24 1
    21      8      9 1
    22      8     10 1
    23      8     25 1
    24      9     32 1
    25     10     11 1
    26     10     12 1
    27     11     26 1
    28     11     27 1
    29     11     28 1
    30     12     29 1
    31     12     30 1
    32     12     31 1
    33     33     34 2
    34     33     35 1
    35     35     36 1
    36     35     38 1
    37     35     47 1
    38     36     37 1
    39     36     48 1
    40     36     49 1
    41     37     38 1
    42     37     50 1
    43     37     51 1
    44     38     39 1
    45     38     52 1
    46     39     40 ar
    47     39     45 ar
    48     40     41 ar
    49     40     53 1
    50     41     42 ar
    51     41     54 1
    52     42     43 1
    53     42     44 ar
    54     44     45 ar
    55     44     55 1
    56     45     46 1
    57      9     33 am
@<TRIPOS>SUBSTRUCTURE
     1 BB1           9
     2 BB2          33
@<TRIPOS>MOLECULE
EN300-193626_i001_EN300-34862_i002_18_1_1
  44   45   2   0   0
SMALL
USER_CHARGES
@<TRIPOS>ATOM
     1 C1        -2.6254   -11.6693    10.3142 C.3        1 BB1          0.0000
     2 C2        -1.1407   -11.3292    10.1693 C.3        1 BB1          0.0000
     3 C3        -0.7275   -11.4640     8.7024 C.3        1 BB1          0.0000
     4 C4        -0.8985    -9.8929    10.6375 C.3        1 BB1          0.0000
     5 O5        -0.3664   -12.2271    10.9668 O.3        1 BB1          0.0000
     6 C6        -0.7168   -13.6024    10.8002 C.3        1 BB1          0.0000
     7 C7        -0.3690   -14.4783    12.0153 C.3        1 BB1          0.0000
     8 C8         0.0734   -15.5567    11.0122 C.3        1 BB1          0.0000
     9 N9         1.2936   -16.2693    11.4143 N.am       1 BB1          0.0000
    10 C10        0.3277   -14.4136    10.0156 C.3        1 BB1          0.0000
    11 C11       -0.1006   -14.7421     8.5839 C.3        1 BB1          0.0000
    12 C12        1.7411   -13.8334    10.0960 C.3        1 BB1          0.0000
    13 H13       -2.7980   -12.6926     9.9806 H          1 BB1          0.0000
    14 H14       -2.9198   -11.5732    11.3593 H          1 BB1          0.0000
    15 H15       -3.2161   -10.9844     9.7058 H          1 BB1          0.0000
    16 H16       -1.3182   -10.7792     8.0940 H          1 BB1          0.0000
    17 H17        0.3303   -11.2217     8.5991 H          1 BB1          0.0000
    18 H18       -0.9000   -12.4873     8.3688 H          1 BB1          0.0000
    19 H19       -1.1930    -9.7968    11.6825 H          1 BB1          0.0000
    20 H20        0.1592    -9.6505    10.5342 H          1 BB1          0.0000
    21 H21       -1.4893    -9.2079    10.0291 H          1 BB1          0.0000
    22 H22       -1.7371   -13.7387    10.4414 H          1 BB1          0.0000
    23 H23        0.4475   -14.0826    12.6194 H          1 BB1          0.0000
    24 H24       -1.2365   -14.7646    12.6099 H          1 BB1          0.0000
    25 H25       -0.7298   -16.2293    10.7116 H          1 BB1          0.0000
    26 H26       -1.0469   -15.2827     8.6027 H          1 BB1          0.0000
    27 H27       -0.2215   -13.8175     8.0196 H          1 BB1          0.0000
    28 H28        0.6616   -15.3604     8.1095 H          1 BB1          0.0000
    29 H29        2.4328   -14.4863     9.5638 H          1 BB1          0.0000
    30 H30        1.7536   -12.8428     9.6413 H          1 BB1          0.0000
    31 H31        2.0438   -13.7575    11.1404 H          1 BB1          0.0000
    32 H32        1.6614   -16.7783    10.6247 H          1 BB1          0.0000
    33 O1         0.9775   -15.9087    14.1996 O.2        2 BB2          0.0000
    34 C2         1.7110   -16.2827    13.3004 C.2        2 BB2          0.0000
    35 C4         2.4553   -17.5868    13.4281 C.3        2 BB2          0.0000
    36 C5         2.0008   -18.2992    14.7086 C.3        2 BB2          0.0000
    37 S6         1.3339   -19.8858    14.1146 S.3        2 BB2          0.0000
    38 C7         1.6432   -19.5854    12.4010 C.2        2 BB2          0.0000
    39 O8         1.3812   -20.3543    11.4960 O.2        2 BB2          0.0000
    40 N9         2.2058   -18.3893    12.2522 N.am       2 BB2          0.0000
    41 H10        3.5235   -17.3808    13.4958 H          2 BB2          0.0000
    42 H11        2.8475   -18.4656    15.3747 H          2 BB2          0.0000
    43 H12        1.2247   -17.7226    15.2121 H          2 BB2          0.0000
    44 H13        2.4438   -18.0617    11.3709 H          2 BB2          0.0000
@<TRIPOS>BOND
     1      1      2 1
     2      1     13 1
     3      1     14 1
     4      1     15 1
     5      2      3 1
     6      2      4 1
     7      2      5 1
     8      3     16 1
     9      3     17 1
    10      3     18 1
    11      4     19 1
    12      4     20 1
    13      4     21 1
    14      5      6 1
    15      6      7 1
    16      6     10 1
    17      6     22 1
    18      7      8 1
    19      7     23 1
    20      7     24 1
    21      8      9 1
    22      8     10 1
    23      8     25 1
    24      9     32 1
    25     10     11 1
    26     10     12 1
    27     11     26 1
    28     11     27 1
    29     11     28 1
    30     12     29 1
    31     12     30 1
    32     12     31 1
    33     33     34 2
    34     34     35 1
    35     35     36 1
    36     35     40 1
    37     35     41 1
    38     36     37 1
    39     36     42 1
    40     36     43 1
    41     37     38 1
    42     38     39 2
    43     38     40 am
    44     40     44 1
    45      9     34 am
@<TRIPOS>SUBSTRUCTURE
     1 BB1           9
     2 BB2          34
@<TRIPOS>MOLECULE
EN300-193626_i001_EN300-34862_i002_18_14_1
  44   45   2   0   0
SMALL
USER_CHARGES
@<TRIPOS>ATOM
     1 C1        -2.6254   -11.6693    10.3142 C.3        1 BB1          0.0000
     2 C2        -1.1407   -11.3292    10.1693 C.3        1 BB1          0.0000
     3 C3        -0.7275   -11.4640     8.7024 C.3        1 BB1          0.0000
     4 C4        -0.8985    -9.8929    10.6375 C.3        1 BB1          0.0000
     5 O5        -0.3664   -12.2271    10.9668 O.3        1 BB1          0.0000
     6 C6        -0.7168   -13.6024    10.8002 C.3        1 BB1          0.0000
     7 C7        -0.3690   -14.4783    12.0153 C.3        1 BB1          0.0000
     8 C8         0.0734   -15.5567    11.0122 C.3        1 BB1          0.0000
     9 N9         1.2936   -16.2693    11.4143 N.am       1 BB1          0.0000
    10 C10        0.3277   -14.4136    10.0156 C.3        1 BB1          0.0000
    11 C11       -0.1006   -14.7421     8.5839 C.3        1 BB1          0.0000
    12 C12        1.7411   -13.8334    10.0960 C.3        1 BB1          0.0000
    13 H13       -2.7980   -12.6926     9.9806 H          1 BB1          0.0000
    14 H14       -2.9198   -11.5732    11.3593 H          1 BB1          0.0000
    15 H15       -3.2161   -10.9844     9.7058 H          1 BB1          0.0000
    16 H16       -1.3182   -10.7792     8.0940 H          1 BB1          0.0000
    17 H17        0.3303   -11.2217     8.5991 H          1 BB1          0.0000
    18 H18       -0.9000   -12.4873     8.3688 H          1 BB1          0.0000
    19 H19       -1.1930    -9.7968    11.6825 H          1 BB1          0.0000
    20 H20        0.1592    -9.6505    10.5342 H          1 BB1          0.0000
    21 H21       -1.4893    -9.2079    10.0291 H          1 BB1          0.0000
    22 H22       -1.7371   -13.7387    10.4414 H          1 BB1          0.0000
    23 H23        0.4475   -14.0826    12.6194 H          1 BB1          0.0000
    24 H24       -1.2365   -14.7646    12.6099 H          1 BB1          0.0000
    25 H25       -0.7298   -16.2293    10.7116 H          1 BB1          0.0000
    26 H26       -1.0469   -15.2827     8.6027 H          1 BB1          0.0000
    27 H27       -0.2215   -13.8175     8.0196 H          1 BB1          0.0000
    28 H28        0.6616   -15.3604     8.1095 H          1 BB1          0.0000
    29 H29        2.4328   -14.4863     9.5638 H          1 BB1          0.0000
    30 H30        1.7536   -12.8428     9.6413 H          1 BB1          0.0000
    31 H31        2.0438   -13.7575    11.1404 H          1 BB1          0.0000
    32 H32        1.6614   -16.7783    10.6247 H          1 BB1          0.0000
    33 C2         0.8251   -16.2952    13.2882 C.2        2 BB2          0.0000
    34 O3         0.8709   -15.8251    14.4122 O.2        2 BB2          0.0000
    35 C4         1.0108   -17.7766    13.0830 C.3        2 BB2          0.0000
    36 C5        -0.0651   -18.5304    13.8755 C.3        2 BB2          0.0000
    37 S6        -0.9625   -19.4773    12.6055 S.3        2 BB2          0.0000
    38 C7         0.0017   -18.9102    11.2376 C.2        2 BB2          0.0000
    39 O8        -0.1655   -19.2378    10.0784 O.2        2 BB2          0.0000
    40 N9         0.9376   -18.0697    11.6695 N.am       2 BB2          0.0000
    41 H10        1.9940   -18.0661    13.4540 H          2 BB2          0.0000
    42 H11        0.3944   -19.2026    14.6002 H          2 BB2          0.0000
    43 H12       -0.7345   -17.8292    14.3739 H          2 BB2          0.0000
    44 H13        1.5594   -17.6608    11.0474 H          2 BB2          0.0000
@<TRIPOS>BOND
     1      1      2 1
     2      1     13 1
     3      1     14 1
     4      1     15 1
     5      2      3 1
     6      2      4 1
     7      2      5 1
     8      3     16 1
     9      3     17 1
    10      3     18 1
    11      4     19 1
    12      4     20 1
    13      4     21 1
    14      5      6 1
    15      6      7 1
    16      6     10 1
    17      6     22 1
    18      7      8 1
    19      7     23 1
    20      7     24 1
    21      8      9 1
    22      8     10 1
    23      8     25 1
    24      9     32 1
    25     10     11 1
    26     10     12 1
    27     11     26 1
    28     11     27 1
    29     11     28 1
    30     12     29 1
    31     12     30 1
    32     12     31 1
    33     33     34 2
    34     33     35 1
    35     35     36 1
    36     35     40 1
    37     35     41 1
    38     36     37 1
    39     36     42 1
    40     36     43 1
    41     37     38 1
    42     38     39 2
    43     38     40 am
    44     40     44 1
    45      9     33 am
@<TRIPOS>SUBSTRUCTURE
     1 BB1           9
     2 BB2          33
@<TRIPOS>MOLECULE
EN300-193626_i001_EN300-34862_i002_18_16_1
  44   45   2   0   0
SMALL
USER_CHARGES
@<TRIPOS>ATOM
     1 C1        -2.6254   -11.6693    10.3142 C.3        1 BB1          0.0000
     2 C2        -1.1407   -11.3292    10.1693 C.3        1 BB1          0.0000
     3 C3        -0.7275   -11.4640     8.7024 C.3        1 BB1          0.0000
     4 C4        -0.8985    -9.8929    10.6375 C.3        1 BB1          0.0000
     5 O5        -0.3664   -12.2271    10.9668 O.3        1 BB1          0.0000
     6 C6        -0.7168   -13.6024    10.8002 C.3        1 BB1          0.0000
     7 C7        -0.3690   -14.4783    12.0153 C.3        1 BB1          0.0000
     8 C8         0.0734   -15.5567    11.0122 C.3        1 BB1          0.0000
     9 N9         1.2936   -16.2693    11.4143 N.am       1 BB1          0.0000
    10 C10        0.3277   -14.4136    10.0156 C.3        1 BB1          0.0000
    11 C11       -0.1006   -14.7421     8.5839 C.3        1 BB1          0.0000
    12 C12        1.7411   -13.8334    10.0960 C.3        1 BB1          0.0000
    13 H13       -2.7980   -12.6926     9.9806 H          1 BB1          0.0000
    14 H14       -2.9198   -11.5732    11.3593 H          1 BB1          0.0000
    15 H15       -3.2161   -10.9844     9.7058 H          1 BB1          0.0000
    16 H16       -1.3182   -10.7792     8.0940 H          1 BB1          0.0000
    17 H17        0.3303   -11.2217     8.5991 H          1 BB1          0.0000
    18 H18       -0.9000   -12.4873     8.3688 H          1 BB1          0.0000
    19 H19       -1.1930    -9.7968    11.6825 H          1 BB1          0.0000
    20 H20        0.1592    -9.6505    10.5342 H          1 BB1          0.0000
    21 H21       -1.4893    -9.2079    10.0291 H          1 BB1          0.0000
    22 H22       -1.7371   -13.7387    10.4414 H          1 BB1          0.0000
    23 H23        0.4475   -14.0826    12.6194 H          1 BB1          0.0000
    24 H24       -1.2365   -14.7646    12.6099 H          1 BB1          0.0000
    25 H25       -0.7298   -16.2293    10.7116 H          1 BB1          0.0000
    26 H26       -1.0469   -15.2827     8.6027 H          1 BB1          0.0000
    27 H27       -0.2215   -13.8175     8.0196 H          1 BB1          0.0000
    28 H28        0.6616   -15.3604     8.1095 H          1 BB1          0.0000
    29 H29        2.4328   -14.4863     9.5638 H          1 BB1          0.0000
    30 H30        1.7536   -12.8428     9.6413 H          1 BB1          0.0000
    31 H31        2.0438   -13.7575    11.1404 H          1 BB1          0.0000
    32 H32        1.6614   -16.7783    10.6247 H          1 BB1          0.0000
    33 C2         0.4752   -16.6360    13.6291 C.2        2 BB2          0.0000
    34 O3         0.9767   -15.6041    14.0417 O.2        2 BB2          0.0000
    35 C4         1.3028   -17.8921    13.5381 C.3        2 BB2          0.0000
    36 C5         0.7267   -18.9418    14.4973 C.3        2 BB2          0.0000
    37 S6         0.2961   -20.3385    13.4116 S.3        2 BB2          0.0000
    38 C7         0.8294   -19.5753    11.9097 C.2        2 BB2          0.0000
    39 O8         0.7727   -20.0838    10.8064 O.2        2 BB2          0.0000
    40 N9         1.3016   -18.3596    12.1703 N.am       2 BB2          0.0000
    41 H10        2.3271   -17.6647    13.8334 H          2 BB2          0.0000
    42 H11        1.4762   -19.2432    15.2292 H          2 BB2          0.0000
    43 H12       -0.1627   -18.5568    14.9960 H          2 BB2          0.0000
    44 H13        1.6386   -17.7969    11.4557 H          2 BB2          0.0000
@<TRIPOS>BOND
     1      1      2 1
     2      1     13 1
     3      1     14 1
     4      1     15 1
     5      2      3 1
     6      2      4 1
     7      2      5 1
     8      3     16 1
     9      3     17 1
    10      3     18 1
    11      4     19 1
    12      4     20 1
    13      4     21 1
    14      5      6 1
    15      6      7 1
    16      6     10 1
    17      6     22 1
    18      7      8 1
    19      7     23 1
    20      7     24 1
    21      8      9 1
    22      8     10 1
    23      8     25 1
    24      9     32 1
    25     10     11 1
    26     10     12 1
    27     11     26 1
    28     11     27 1
    29     11     28 1
    30     12     29 1
    31     12     30 1
    32     12     31 1
    33     33     34 2
    34     33     35 1
    35     35     36 1
    36     35     40 1
    37     35     41 1
    38     36     37 1
    39     36     42 1
    40     36     43 1
    41     37     38 1
    42     38     39 2
    43     38     40 am
    44     40     44 1
    45      9     33 am
@<TRIPOS>SUBSTRUCTURE
     1 BB1           9
     2 BB2          33
@<TRIPOS>MOLECULE
EN300-193626_i001_EN300-34862_i002_18_3_1
  44   45   2   0   0
SMALL
USER_CHARGES
@<TRIPOS>ATOM
     1 C1        -2.6254   -11.6693    10.3142 C.3        1 BB1          0.0000
     2 C2        -1.1407   -11.3292    10.1693 C.3        1 BB1          0.0000
     3 C3        -0.7275   -11.4640     8.7024 C.3        1 BB1          0.0000
     4 C4        -0.8985    -9.8929    10.6375 C.3        1 BB1          0.0000
     5 O5        -0.3664   -12.2271    10.9668 O.3        1 BB1          0.0000
     6 C6        -0.7168   -13.6024    10.8002 C.3        1 BB1          0.0000
     7 C7        -0.3690   -14.4783    12.0153 C.3        1 BB1          0.0000
     8 C8         0.0734   -15.5567    11.0122 C.3        1 BB1          0.0000
     9 N9         1.2936   -16.2693    11.4143 N.am       1 BB1          0.0000
    10 C10        0.3277   -14.4136    10.0156 C.3        1 BB1          0.0000
    11 C11       -0.1006   -14.7421     8.5839 C.3        1 BB1          0.0000
    12 C12        1.7411   -13.8334    10.0960 C.3        1 BB1          0.0000
    13 H13       -2.7980   -12.6926     9.9806 H          1 BB1          0.0000
    14 H14       -2.9198   -11.5732    11.3593 H          1 BB1          0.0000
    15 H15       -3.2161   -10.9844     9.7058 H          1 BB1          0.0000
    16 H16       -1.3182   -10.7792     8.0940 H          1 BB1          0.0000
    17 H17        0.3303   -11.2217     8.5991 H          1 BB1          0.0000
    18 H18       -0.9000   -12.4873     8.3688 H          1 BB1          0.0000
    19 H19       -1.1930    -9.7968    11.6825 H          1 BB1          0.0000
    20 H20        0.1592    -9.6505    10.5342 H          1 BB1          0.0000
    21 H21       -1.4893    -9.2079    10.0291 H          1 BB1          0.0000
    22 H22       -1.7371   -13.7387    10.4414 H          1 BB1          0.0000
    23 H23        0.4475   -14.0826    12.6194 H          1 BB1          0.0000
    24 H24       -1.2365   -14.7646    12.6099 H          1 BB1          0.0000
    25 H25       -0.7298   -16.2293    10.7116 H          1 BB1          0.0000
    26 H26       -1.0469   -15.2827     8.6027 H          1 BB1          0.0000
    27 H27       -0.2215   -13.8175     8.0196 H          1 BB1          0.0000
    28 H28        0.6616   -15.3604     8.1095 H          1 BB1          0.0000
    29 H29        2.4328   -14.4863     9.5638 H          1 BB1          0.0000
    30 H30        1.7536   -12.8428     9.6413 H          1 BB1          0.0000
    31 H31        2.0438   -13.7575    11.1404 H          1 BB1          0.0000
    32 H32        1.6614   -16.7783    10.6247 H          1 BB1          0.0000
    33 O1         0.8494   -16.1347    14.3982 O.2        2 BB2          0.0000
    34 C2         1.5373   -16.5492    13.4809 C.2        2 BB2          0.0000
    35 C4         1.8134   -18.0252    13.3532 C.3        2 BB2          0.0000
    36 C5         1.0261   -18.7770    14.4343 C.3        2 BB2          0.0000
    37 S6        -0.0426   -19.9094    13.4907 S.3        2 BB2          0.0000
    38 C7         0.5226   -19.4077    11.8934 C.2        2 BB2          0.0000
    39 O8         0.1265   -19.8593    10.8359 O.2        2 BB2          0.0000
    40 N9         1.4468   -18.4603    12.0245 N.am       2 BB2          0.0000
    41 H10        2.8788   -18.2013    13.5019 H          2 BB2          0.0000
    42 H11        1.7025   -19.3380    15.0793 H          2 BB2          0.0000
    43 H12        0.4242   -18.0832    15.0212 H          2 BB2          0.0000
    44 H13        1.8667   -18.0683    11.2429 H          2 BB2          0.0000
@<TRIPOS>BOND
     1      1      2 1
     2      1     13 1
     3      1     14 1
     4      1     15 1
     5      2      3 1
     6      2      4 1
     7      2      5 1
     8      3     16 1
     9      3     17 1
    10      3     18 1
    11      4     19 1
    12      4     20 1
    13      4     21 1
    14      5      6 1
    15      6      7 1
    16      6     10 1
    17      6     22 1
    18      7      8 1
    19      7     23 1
    20      7     24 1
    21      8      9 1
    22      8     10 1
    23      8     25 1
    24      9     32 1
    25     10     11 1
    26     10     12 1
    27     11     26 1
    28     11     27 1
    29     11     28 1
    30     12     29 1
    31     12     30 1
    32     12     31 1
    33     33     34 2
    34     34     35 1
    35     35     36 1
    36     35     40 1
    37     35     41 1
    38     36     37 1
    39     36     42 1
    40     36     43 1
    41     37     38 1
    42     38     39 2
    43     38     40 am
    44     40     44 1
    45      9     34 am
@<TRIPOS>SUBSTRUCTURE
     1 BB1           9
     2 BB2          34
@<TRIPOS>MOLECULE
EN300-193626_i001_EN300-34862_i002_18_4_1
  44   45   2   0   0
SMALL
USER_CHARGES
@<TRIPOS>ATOM
     1 C1        -2.6254   -11.6693    10.3142 C.3        1 BB1          0.0000
     2 C2        -1.1407   -11.3292    10.1693 C.3        1 BB1          0.0000
     3 C3        -0.7275   -11.4640     8.7024 C.3        1 BB1          0.0000
     4 C4        -0.8985    -9.8929    10.6375 C.3        1 BB1          0.0000
     5 O5        -0.3664   -12.2271    10.9668 O.3        1 BB1          0.0000
     6 C6        -0.7168   -13.6024    10.8002 C.3        1 BB1          0.0000
     7 C7        -0.3690   -14.4783    12.0153 C.3        1 BB1          0.0000
     8 C8         0.0734   -15.5567    11.0122 C.3        1 BB1          0.0000
     9 N9         1.2936   -16.2693    11.4143 N.am       1 BB1          0.0000
    10 C10        0.3277   -14.4136    10.0156 C.3        1 BB1          0.0000
    11 C11       -0.1006   -14.7421     8.5839 C.3        1 BB1          0.0000
    12 C12        1.7411   -13.8334    10.0960 C.3        1 BB1          0.0000
    13 H13       -2.7980   -12.6926     9.9806 H          1 BB1          0.0000
    14 H14       -2.9198   -11.5732    11.3593 H          1 BB1          0.0000
    15 H15       -3.2161   -10.9844     9.7058 H          1 BB1          0.0000
    16 H16       -1.3182   -10.7792     8.0940 H          1 BB1          0.0000
    17 H17        0.3303   -11.2217     8.5991 H          1 BB1          0.0000
    18 H18       -0.9000   -12.4873     8.3688 H          1 BB1          0.0000
    19 H19       -1.1930    -9.7968    11.6825 H          1 BB1          0.0000
    20 H20        0.1592    -9.6505    10.5342 H          1 BB1          0.0000
    21 H21       -1.4893    -9.2079    10.0291 H          1 BB1          0.0000
    22 H22       -1.7371   -13.7387    10.4414 H          1 BB1          0.0000
    23 H23        0.4475   -14.0826    12.6194 H          1 BB1          0.0000
    24 H24       -1.2365   -14.7646    12.6099 H          1 BB1          0.0000
    25 H25       -0.7298   -16.2293    10.7116 H          1 BB1          0.0000
    26 H26       -1.0469   -15.2827     8.6027 H          1 BB1          0.0000
    27 H27       -0.2215   -13.8175     8.0196 H          1 BB1          0.0000
    28 H28        0.6616   -15.3604     8.1095 H          1 BB1          0.0000
    29 H29        2.4328   -14.4863     9.5638 H          1 BB1          0.0000
    30 H30        1.7536   -12.8428     9.6413 H          1 BB1          0.0000
    31 H31        2.0438   -13.7575    11.1404 H          1 BB1          0.0000
    32 H32        1.6614   -16.7783    10.6247 H          1 BB1          0.0000
    33 O1         0.0768   -15.6008    14.3598 O.2        2 BB2          0.0000
    34 C2         0.4217   -16.2811    13.4086 C.2        2 BB2          0.0000
    35 C4         1.6010   -17.2107    13.5351 C.3        2 BB2          0.0000
    36 C5         1.4164   -18.0867    14.7810 C.3        2 BB2          0.0000
    37 S6         1.4167   -19.7857    14.1264 S.3        2 BB2          0.0000
    38 C7         1.6347   -19.3303    12.4330 C.2        2 BB2          0.0000
    39 O8         1.7078   -20.1089    11.5015 O.2        2 BB2          0.0000
    40 N9         1.7057   -18.0060    12.3327 N.am       2 BB2          0.0000
    41 H10        2.5093   -16.6187    13.6480 H          2 BB2          0.0000
    42 H11        2.2449   -17.9441    15.4749 H          2 BB2          0.0000
    43 H12        0.4666   -17.8645    15.2674 H          2 BB2          0.0000
    44 H13        1.8252   -17.5817    11.4687 H          2 BB2          0.0000
@<TRIPOS>BOND
     1      1      2 1
     2      1     13 1
     3      1     14 1
     4      1     15 1
     5      2      3 1
     6      2      4 1
     7      2      5 1
     8      3     16 1
     9      3     17 1
    10      3     18 1
    11      4     19 1
    12      4     20 1
    13      4     21 1
    14      5      6 1
    15      6      7 1
    16      6     10 1
    17      6     22 1
    18      7      8 1
    19      7     23 1
    20      7     24 1
    21      8      9 1
    22      8     10 1
    23      8     25 1
    24      9     32 1
    25     10     11 1
    26     10     12 1
    27     11     26 1
    28     11     27 1
    29     11     28 1
    30     12     29 1
    31     12     30 1
    32     12     31 1
    33     33     34 2
    34     34     35 1
    35     35     36 1
    36     35     40 1
    37     35     41 1
    38     36     37 1
    39     36     42 1
    40     36     43 1
    41     37     38 1
    42     38     39 2
    43     38     40 am
    44     40     44 1
    45      9     34 am
@<TRIPOS>SUBSTRUCTURE
     1 BB1           9
     2 BB2          34
@<TRIPOS>MOLECULE
EN300-193626_i001_EN300-107901_i001_18_10_1
  58   60   2   0   0
SMALL
USER_CHARGES
@<TRIPOS>ATOM
     1 C1        -2.6254   -11.6693    10.3142 C.3        1 BB1          0.0000
     2 C2        -1.1407   -11.3292    10.1693 C.3        1 BB1          0.0000
     3 C3        -0.7275   -11.4640     8.7024 C.3        1 BB1          0.0000
     4 C4        -0.8985    -9.8929    10.6375 C.3        1 BB1          0.0000
     5 O5        -0.3664   -12.2271    10.9668 O.3        1 BB1          0.0000
     6 C6        -0.7168   -13.6024    10.8002 C.3        1 BB1          0.0000
     7 C7        -0.3690   -14.4783    12.0153 C.3        1 BB1          0.0000
     8 C8         0.0734   -15.5567    11.0122 C.3        1 BB1          0.0000
     9 N9         1.2936   -16.2693    11.4143 N.am       1 BB1          0.0000
    10 C10        0.3277   -14.4136    10.0156 C.3        1 BB1          0.0000
    11 C11       -0.1006   -14.7421     8.5839 C.3        1 BB1          0.0000
    12 C12        1.7411   -13.8334    10.0960 C.3        1 BB1          0.0000
    13 H13       -2.7980   -12.6926     9.9806 H          1 BB1          0.0000
    14 H14       -2.9198   -11.5732    11.3593 H          1 BB1          0.0000
    15 H15       -3.2161   -10.9844     9.7058 H          1 BB1          0.0000
    16 H16       -1.3182   -10.7792     8.0940 H          1 BB1          0.0000
    17 H17        0.3303   -11.2217     8.5991 H          1 BB1          0.0000
    18 H18       -0.9000   -12.4873     8.3688 H          1 BB1          0.0000
    19 H19       -1.1930    -9.7968    11.6825 H          1 BB1          0.0000
    20 H20        0.1592    -9.6505    10.5342 H          1 BB1          0.0000
    21 H21       -1.4893    -9.2079    10.0291 H          1 BB1          0.0000
    22 H22       -1.7371   -13.7387    10.4414 H          1 BB1          0.0000
    23 H23        0.4475   -14.0826    12.6194 H          1 BB1          0.0000
    24 H24       -1.2365   -14.7646    12.6099 H          1 BB1          0.0000
    25 H25       -0.7298   -16.2293    10.7116 H          1 BB1          0.0000
    26 H26       -1.0469   -15.2827     8.6027 H          1 BB1          0.0000
    27 H27       -0.2215   -13.8175     8.0196 H          1 BB1          0.0000
    28 H28        0.6616   -15.3604     8.1095 H          1 BB1          0.0000
    29 H29        2.4328   -14.4863     9.5638 H          1 BB1          0.0000
    30 H30        1.7536   -12.8428     9.6413 H          1 BB1          0.0000
    31 H31        2.0438   -13.7575    11.1404 H          1 BB1          0.0000
    32 H32        1.6614   -16.7783    10.6247 H          1 BB1          0.0000
    33 O1        -1.4672   -18.4025    12.3106 O.2        2 BB2          0.0000
    34 C2        -0.4508   -18.2813    11.6483 C.2        2 BB2          0.0000
    35 C4         0.6894   -19.2221    11.8524 C.3        2 BB2          0.0000
    36 C5         0.9486   -19.7899    13.2377 C.3        2 BB2          0.0000
    37 C6         0.0485   -19.4384    14.3884 C.3        2 BB2          0.0000
    38 C7         0.7429   -18.3633    15.2994 C.3        2 BB2          0.0000
    39 C8        -0.0985   -17.0976    14.9053 C.3        2 BB2          0.0000
    40 C9         0.3608   -16.2423    13.7478 C.3        2 BB2          0.0000
    41 C10        1.5570   -16.4209    12.8795 C.3        2 BB2          0.0000
    42 C11        2.3926   -17.6264    13.2577 C.3        2 BB2          0.0000
    43 C12        1.9693   -18.9017    12.5724 C.3        2 BB2          0.0000
    44 H13        0.7720   -19.9627    11.0205 H          2 BB2          0.0000
    45 H14        1.2022   -20.8921    13.2511 H          2 BB2          0.0000
    46 H15       -0.9189   -19.0660    14.0700 H          2 BB2          0.0000
    47 H16       -0.1201   -20.3286    15.0144 H          2 BB2          0.0000
    48 H17        0.4591   -18.6121    16.3459 H          2 BB2          0.0000
    49 H18        1.7722   -18.3219    15.2311 H          2 BB2          0.0000
    50 H19       -1.1228   -17.4381    14.7250 H          2 BB2          0.0000
    51 H20       -0.1394   -16.4717    15.8100 H          2 BB2          0.0000
    52 H21       -0.5252   -16.0921    13.0890 H          2 BB2          0.0000
    53 H22        0.4577   -15.2068    14.1828 H          2 BB2          0.0000
    54 H23        1.2931   -16.4337    11.8075 H          2 BB2          0.0000
    55 H24        2.1994   -15.5043    12.9645 H          2 BB2          0.0000
    56 H25        3.4369   -17.3919    12.8256 H          2 BB2          0.0000
    57 H26        2.6906   -17.6638    14.2941 H          2 BB2          0.0000
    58 H27        2.8853   -19.4430    12.1324 H          2 BB2          0.0000
@<TRIPOS>BOND
     1      1      2 1
     2      1     13 1
     3      1     14 1
     4      1     15 1
     5      2      3 1
     6      2      4 1
     7      2      5 1
     8      3     16 1
     9      3     17 1
    10      3     18 1
    11      4     19 1
    12      4     20 1
    13      4     21 1
    14      5      6 1
    15      6      7 1
    16      6     10 1
    17      6     22 1
    18      7      8 1
    19      7     23 1
    20      7     24 1
    21      8      9 1
    22      8     10 1
    23      8     25 1
    24      9     32 1
    25     10     11 1
    26     10     12 1
    27     11     26 1
    28     11     27 1
    29     11     28 1
    30     12     29 1
    31     12     30 1
    32     12     31 1
    33     33     34 2
    34     34     35 1
    35     35     36 1
    36     35     43 1
    37     35     44 1
    38     36     37 1
    39     36     43 1
    40     36     45 1
    41     37     38 1
    42     37     46 1
    43     37     47 1
    44     38     39 1
    45     38     48 1
    46     38     49 1
    47     39     40 1
    48     39     50 1
    49     39     51 1
    50     40     41 1
    51     40     52 1
    52     40     53 1
    53     41     42 1
    54     41     54 1
    55     41     55 1
    56     42     43 1
    57     42     56 1
    58     42     57 1
    59     43     58 1
    60      9     34 am
@<TRIPOS>SUBSTRUCTURE
     1 BB1           9
     2 BB2          34
@<TRIPOS>MOLECULE
EN300-193626_i001_EN300-107901_i001_18_16_1
  58   60   2   0   0
SMALL
USER_CHARGES
@<TRIPOS>ATOM
     1 C1        -2.6254   -11.6693    10.3142 C.3        1 BB1          0.0000
     2 C2        -1.1407   -11.3292    10.1693 C.3        1 BB1          0.0000
     3 C3        -0.7275   -11.4640     8.7024 C.3        1 BB1          0.0000
     4 C4        -0.8985    -9.8929    10.6375 C.3        1 BB1          0.0000
     5 O5        -0.3664   -12.2271    10.9668 O.3        1 BB1          0.0000
     6 C6        -0.7168   -13.6024    10.8002 C.3        1 BB1          0.0000
     7 C7        -0.3690   -14.4783    12.0153 C.3        1 BB1          0.0000
     8 C8         0.0734   -15.5567    11.0122 C.3        1 BB1          0.0000
     9 N9         1.2936   -16.2693    11.4143 N.am       1 BB1          0.0000
    10 C10        0.3277   -14.4136    10.0156 C.3        1 BB1          0.0000
    11 C11       -0.1006   -14.7421     8.5839 C.3        1 BB1          0.0000
    12 C12        1.7411   -13.8334    10.0960 C.3        1 BB1          0.0000
    13 H13       -2.7980   -12.6926     9.9806 H          1 BB1          0.0000
    14 H14       -2.9198   -11.5732    11.3593 H          1 BB1          0.0000
    15 H15       -3.2161   -10.9844     9.7058 H          1 BB1          0.0000
    16 H16       -1.3182   -10.7792     8.0940 H          1 BB1          0.0000
    17 H17        0.3303   -11.2217     8.5991 H          1 BB1          0.0000
    18 H18       -0.9000   -12.4873     8.3688 H          1 BB1          0.0000
    19 H19       -1.1930    -9.7968    11.6825 H          1 BB1          0.0000
    20 H20        0.1592    -9.6505    10.5342 H          1 BB1          0.0000
    21 H21       -1.4893    -9.2079    10.0291 H          1 BB1          0.0000
    22 H22       -1.7371   -13.7387    10.4414 H          1 BB1          0.0000
    23 H23        0.4475   -14.0826    12.6194 H          1 BB1          0.0000
    24 H24       -1.2365   -14.7646    12.6099 H          1 BB1          0.0000
    25 H25       -0.7298   -16.2293    10.7116 H          1 BB1          0.0000
    26 H26       -1.0469   -15.2827     8.6027 H          1 BB1          0.0000
    27 H27       -0.2215   -13.8175     8.0196 H          1 BB1          0.0000
    28 H28        0.6616   -15.3604     8.1095 H          1 BB1          0.0000
    29 H29        2.4328   -14.4863     9.5638 H          1 BB1          0.0000
    30 H30        1.7536   -12.8428     9.6413 H          1 BB1          0.0000
    31 H31        2.0438   -13.7575    11.1404 H          1 BB1          0.0000
    32 H32        1.6614   -16.7783    10.6247 H          1 BB1          0.0000
    33 C2        -0.1608   -17.0399    13.6614 C.2        2 BB2          0.0000
    34 O3        -0.7796   -16.8488    14.6944 O.2        2 BB2          0.0000
    35 C4         1.3289   -17.1236    13.6885 C.3        2 BB2          0.0000
    36 C5         2.0281   -18.2225    12.9062 C.3        2 BB2          0.0000
    37 C6         1.2351   -19.1980    12.0833 C.3        2 BB2          0.0000
    38 C7         1.1215   -20.5682    12.8433 C.3        2 BB2          0.0000
    39 C8        -0.3801   -20.4971    13.2964 C.3        2 BB2          0.0000
    40 C9        -0.7161   -19.8654    14.6270 C.3        2 BB2          0.0000
    41 C10        0.2083   -19.2729    15.6325 C.3        2 BB2          0.0000
    42 C11        1.6641   -19.3506    15.2215 C.3        2 BB2          0.0000
    43 C12        2.1329   -18.1691    14.4094 C.3        2 BB2          0.0000
    44 H13        1.8039   -16.1162    13.6064 H          2 BB2          0.0000
    45 H14        2.9496   -17.8828    12.3450 H          2 BB2          0.0000
    46 H15        0.2403   -18.8386    11.8439 H          2 BB2          0.0000
    47 H16        1.7601   -19.3991    11.1363 H          2 BB2          0.0000
    48 H17        1.1745   -21.3612    12.0648 H          2 BB2          0.0000
    49 H18        1.8510   -20.7440    13.5524 H          2 BB2          0.0000
    50 H19       -0.9306   -19.9872    12.4998 H          2 BB2          0.0000
    51 H20       -0.7412   -21.5370    13.3001 H          2 BB2          0.0000
    52 H21       -1.5348   -19.1339    14.4368 H          2 BB2          0.0000
    53 H22       -1.2912   -20.6616    15.1804 H          2 BB2          0.0000
    54 H23       -0.0796   -18.2421    15.9037 H          2 BB2          0.0000
    55 H24        0.0839   -19.8266    16.6011 H          2 BB2          0.0000
    56 H25        2.2424   -19.2720    16.2174 H          2 BB2          0.0000
    57 H26        2.0073   -20.3380    14.9543 H          2 BB2          0.0000
    58 H27        3.1305   -17.7695    14.8226 H          2 BB2          0.0000
@<TRIPOS>BOND
     1      1      2 1
     2      1     13 1
     3      1     14 1
     4      1     15 1
     5      2      3 1
     6      2      4 1
     7      2      5 1
     8      3     16 1
     9      3     17 1
    10      3     18 1
    11      4     19 1
    12      4     20 1
    13      4     21 1
    14      5      6 1
    15      6      7 1
    16      6     10 1
    17      6     22 1
    18      7      8 1
    19      7     23 1
    20      7     24 1
    21      8      9 1
    22      8     10 1
    23      8     25 1
    24      9     32 1
    25     10     11 1
    26     10     12 1
    27     11     26 1
    28     11     27 1
    29     11     28 1
    30     12     29 1
    31     12     30 1
    32     12     31 1
    33     33     34 2
    34     33     35 1
    35     35     36 1
    36     35     43 1
    37     35     44 1
    38     36     37 1
    39     36     43 1
    40     36     45 1
    41     37     38 1
    42     37     46 1
    43     37     47 1
    44     38     39 1
    45     38     48 1
    46     38     49 1
    47     39     40 1
    48     39     50 1
    49     39     51 1
    50     40     41 1
    51     40     52 1
    52     40     53 1
    53     41     42 1
    54     41     54 1
    55     41     55 1
    56     42     43 1
    57     42     56 1
    58     42     57 1
    59     43     58 1
    60      9     33 am
@<TRIPOS>SUBSTRUCTURE
     1 BB1           9
     2 BB2          33
@<TRIPOS>MOLECULE
EN300-193626_i001_EN300-107901_i001_18_7_1
  58   60   2   0   0
SMALL
USER_CHARGES
@<TRIPOS>ATOM
     1 C1        -2.6254   -11.6693    10.3142 C.3        1 BB1          0.0000
     2 C2        -1.1407   -11.3292    10.1693 C.3        1 BB1          0.0000
     3 C3        -0.7275   -11.4640     8.7024 C.3        1 BB1          0.0000
     4 C4        -0.8985    -9.8929    10.6375 C.3        1 BB1          0.0000
     5 O5        -0.3664   -12.2271    10.9668 O.3        1 BB1          0.0000
     6 C6        -0.7168   -13.6024    10.8002 C.3        1 BB1          0.0000
     7 C7        -0.3690   -14.4783    12.0153 C.3        1 BB1          0.0000
     8 C8         0.0734   -15.5567    11.0122 C.3        1 BB1          0.0000
     9 N9         1.2936   -16.2693    11.4143 N.am       1 BB1          0.0000
    10 C10        0.3277   -14.4136    10.0156 C.3        1 BB1          0.0000
    11 C11       -0.1006   -14.7421     8.5839 C.3        1 BB1          0.0000
    12 C12        1.7411   -13.8334    10.0960 C.3        1 BB1          0.0000
    13 H13       -2.7980   -12.6926     9.9806 H          1 BB1          0.0000
    14 H14       -2.9198   -11.5732    11.3593 H          1 BB1          0.0000
    15 H15       -3.2161   -10.9844     9.7058 H          1 BB1          0.0000
    16 H16       -1.3182   -10.7792     8.0940 H          1 BB1          0.0000
    17 H17        0.3303   -11.2217     8.5991 H          1 BB1          0.0000
    18 H18       -0.9000   -12.4873     8.3688 H          1 BB1          0.0000
    19 H19       -1.1930    -9.7968    11.6825 H          1 BB1          0.0000
    20 H20        0.1592    -9.6505    10.5342 H          1 BB1          0.0000
    21 H21       -1.4893    -9.2079    10.0291 H          1 BB1          0.0000
    22 H22       -1.7371   -13.7387    10.4414 H          1 BB1          0.0000
    23 H23        0.4475   -14.0826    12.6194 H          1 BB1          0.0000
    24 H24       -1.2365   -14.7646    12.6099 H          1 BB1          0.0000
    25 H25       -0.7298   -16.2293    10.7116 H          1 BB1          0.0000
    26 H26       -1.0469   -15.2827     8.6027 H          1 BB1          0.0000
    27 H27       -0.2215   -13.8175     8.0196 H          1 BB1          0.0000
    28 H28        0.6616   -15.3604     8.1095 H          1 BB1          0.0000
    29 H29        2.4328   -14.4863     9.5638 H          1 BB1          0.0000
    30 H30        1.7536   -12.8428     9.6413 H          1 BB1          0.0000
    31 H31        2.0438   -13.7575    11.1404 H          1 BB1          0.0000
    32 H33        1.9810   -15.6042    11.7355 H          1 BB1          0.0000
    33 O1        -0.2058   -15.9222    14.7079 O.2        2 BB2          0.0000
    34 C2         0.5706   -16.0856    13.7822 C.2        2 BB2          0.0000
    35 C4         1.9967   -16.4292    14.0563 C.3        2 BB2          0.0000
    36 C5         2.6861   -17.4833    13.2065 C.3        2 BB2          0.0000
    37 C6         1.9551   -18.1526    12.0772 C.3        2 BB2          0.0000
    38 C7         1.5006   -19.5914    12.5146 C.3        2 BB2          0.0000
    39 C8        -0.0382   -19.3396    12.6985 C.3        2 BB2          0.0000
    40 C9        -0.5530   -18.8947    14.0474 C.3        2 BB2          0.0000
    41 C10        0.2151   -18.6508    15.2992 C.3        2 BB2          0.0000
    42 C11        1.7000   -18.9082    15.1464 C.3        2 BB2          0.0000
    43 C12        2.4836   -17.7051    14.6841 C.3        2 BB2          0.0000
    44 H13        2.6114   -15.5201    14.2636 H          2 BB2          0.0000
    45 H14        3.7413   -17.2178    12.8977 H          2 BB2          0.0000
    46 H15        1.0901   -17.5911    11.7418 H          2 BB2          0.0000
    47 H16        2.6323   -18.2776    11.2178 H          2 BB2          0.0000
    48 H17        1.6049   -20.2376    11.6150 H          2 BB2          0.0000
    49 H18        2.0364   -20.0087    13.2921 H          2 BB2          0.0000
    50 H19       -0.3369   -18.6143    11.9354 H          2 BB2          0.0000
    51 H20       -0.5308   -20.2865    12.4294 H          2 BB2          0.0000
    52 H21       -1.2069   -18.0111    13.8653 H          2 BB2          0.0000
    53 H22       -1.3334   -19.6617    14.3187 H          2 BB2          0.0000
    54 H23        0.0208   -17.6470    15.7160 H          2 BB2          0.0000
    55 H24       -0.1816   -19.3311    16.0993 H          2 BB2          0.0000
    56 H25        2.0647   -19.1013    16.2245 H          2 BB2          0.0000
    57 H26        1.9529   -19.8801    14.7519 H          2 BB2          0.0000
    58 H27        3.4190   -17.5603    15.3396 H          2 BB2          0.0000
@<TRIPOS>BOND
     1      1      2 1
     2      1     13 1
     3      1     14 1
     4      1     15 1
     5      2      3 1
     6      2      4 1
     7      2      5 1
     8      3     16 1
     9      3     17 1
    10      3     18 1
    11      4     19 1
    12      4     20 1
    13      4     21 1
    14      5      6 1
    15      6      7 1
    16      6     10 1
    17      6     22 1
    18      7      8 1
    19      7     23 1
    20      7     24 1
    21      8      9 1
    22      8     10 1
    23      8     25 1
    24      9     32 1
    25     10     11 1
    26     10     12 1
    27     11     26 1
    28     11     27 1
    29     11     28 1
    30     12     29 1
    31     12     30 1
    32     12     31 1
    33     33     34 2
    34     34     35 1
    35     35     36 1
    36     35     43 1
    37     35     44 1
    38     36     37 1
    39     36     43 1
    40     36     45 1
    41     37     38 1
    42     37     46 1
    43     37     47 1
    44     38     39 1
    45     38     48 1
    46     38     49 1
    47     39     40 1
    48     39     50 1
    49     39     51 1
    50     40     41 1
    51     40     52 1
    52     40     53 1
    53     41     42 1
    54     41     54 1
    55     41     55 1
    56     42     43 1
    57     42     56 1
    58     42     57 1
    59     43     58 1
    60      9     34 am
@<TRIPOS>SUBSTRUCTURE
     1 BB1           9
     2 BB2          34
@<TRIPOS>MOLECULE
EN300-193626_i001_EN300-223795_i001_18_17_1
  45   46   2   0   0
SMALL
USER_CHARGES
@<TRIPOS>ATOM
     1 C1        -2.6254   -11.6693    10.3142 C.3        1 BB1          0.0000
     2 C2        -1.1407   -11.3292    10.1693 C.3        1 BB1          0.0000
     3 C3        -0.7275   -11.4640     8.7024 C.3        1 BB1          0.0000
     4 C4        -0.8985    -9.8929    10.6375 C.3        1 BB1          0.0000
     5 O5        -0.3664   -12.2271    10.9668 O.3        1 BB1          0.0000
     6 C6        -0.7168   -13.6024    10.8002 C.3        1 BB1          0.0000
     7 C7        -0.3690   -14.4783    12.0153 C.3        1 BB1          0.0000
     8 C8         0.0734   -15.5567    11.0122 C.3        1 BB1          0.0000
     9 N9         1.2936   -16.2693    11.4143 N.am       1 BB1          0.0000
    10 C10        0.3277   -14.4136    10.0156 C.3        1 BB1          0.0000
    11 C11       -0.1006   -14.7421     8.5839 C.3        1 BB1          0.0000
    12 C12        1.7411   -13.8334    10.0960 C.3        1 BB1          0.0000
    13 H13       -2.7980   -12.6926     9.9806 H          1 BB1          0.0000
    14 H14       -2.9198   -11.5732    11.3593 H          1 BB1          0.0000
    15 H15       -3.2161   -10.9844     9.7058 H          1 BB1          0.0000
    16 H16       -1.3182   -10.7792     8.0940 H          1 BB1          0.0000
    17 H17        0.3303   -11.2217     8.5991 H          1 BB1          0.0000
    18 H18       -0.9000   -12.4873     8.3688 H          1 BB1          0.0000
    19 H19       -1.1930    -9.7968    11.6825 H          1 BB1          0.0000
    20 H20        0.1592    -9.6505    10.5342 H          1 BB1          0.0000
    21 H21       -1.4893    -9.2079    10.0291 H          1 BB1          0.0000
    22 H22       -1.7371   -13.7387    10.4414 H          1 BB1          0.0000
    23 H23        0.4475   -14.0826    12.6194 H          1 BB1          0.0000
    24 H24       -1.2365   -14.7646    12.6099 H          1 BB1          0.0000
    25 H25       -0.7298   -16.2293    10.7116 H          1 BB1          0.0000
    26 H26       -1.0469   -15.2827     8.6027 H          1 BB1          0.0000
    27 H27       -0.2215   -13.8175     8.0196 H          1 BB1          0.0000
    28 H28        0.6616   -15.3604     8.1095 H          1 BB1          0.0000
    29 H29        2.4328   -14.4863     9.5638 H          1 BB1          0.0000
    30 H30        1.7536   -12.8428     9.6413 H          1 BB1          0.0000
    31 H31        2.0438   -13.7575    11.1404 H          1 BB1          0.0000
    32 H32        1.6614   -16.7783    10.6247 H          1 BB1          0.0000
    33 C2        -0.2014   -18.5411    11.7455 C.2        2 BB2          0.0000
    34 O3        -1.2998   -18.0076    11.6611 O.2        2 BB2          0.0000
    35 C4         0.6463   -18.2937    12.9172 C.2        2 BB2          0.0000
    36 C5         1.0088   -16.9713    13.3749 C.2        2 BB2          0.0000
    37 C6         1.7823   -16.9874    14.4527 C.2        2 BB2          0.0000
    38 S7         2.1038   -18.6365    14.9592 S.3        2 BB2          0.0000
    39 C8         1.1692   -19.2867    13.6908 C.2        2 BB2          0.0000
    40 C9         0.9567   -20.7594    13.4521 C.3        2 BB2          0.0000
    41 F10       -0.4059   -21.0575    13.5603 F          2 BB2          0.0000
    42 F11        1.4070   -21.0939    12.1705 F          2 BB2          0.0000
    43 F12        1.6718   -21.4940    14.4041 F          2 BB2          0.0000
    44 H13        0.6837   -16.0633    12.8890 H          2 BB2          0.0000
    45 H14        2.1618   -16.1069    14.9497 H          2 BB2          0.0000
@<TRIPOS>BOND
     1      1      2 1
     2      1     13 1
     3      1     14 1
     4      1     15 1
     5      2      3 1
     6      2      4 1
     7      2      5 1
     8      3     16 1
     9      3     17 1
    10      3     18 1
    11      4     19 1
    12      4     20 1
    13      4     21 1
    14      5      6 1
    15      6      7 1
    16      6     10 1
    17      6     22 1
    18      7      8 1
    19      7     23 1
    20      7     24 1
    21      8      9 1
    22      8     10 1
    23      8     25 1
    24      9     32 1
    25     10     11 1
    26     10     12 1
    27     11     26 1
    28     11     27 1
    29     11     28 1
    30     12     29 1
    31     12     30 1
    32     12     31 1
    33     33     34 2
    34     33     35 1
    35     35     36 1
    36     35     39 2
    37     36     37 2
    38     36     44 1
    39     37     38 1
    40     37     45 1
    41     38     39 1
    42     39     40 1
    43     40     41 1
    44     40     42 1
    45     40     43 1
    46      9     33 am
@<TRIPOS>SUBSTRUCTURE
     1 BB1           9
     2 BB2          33
@<TRIPOS>MOLECULE
EN300-193626_i001_EN300-223795_i001_18_6_1
  45   46   2   0   0
SMALL
USER_CHARGES
@<TRIPOS>ATOM
     1 C1        -2.6254   -11.6693    10.3142 C.3        1 BB1          0.0000
     2 C2        -1.1407   -11.3292    10.1693 C.3        1 BB1          0.0000
     3 C3        -0.7275   -11.4640     8.7024 C.3        1 BB1          0.0000
     4 C4        -0.8985    -9.8929    10.6375 C.3        1 BB1          0.0000
     5 O5        -0.3664   -12.2271    10.9668 O.3        1 BB1          0.0000
     6 C6        -0.7168   -13.6024    10.8002 C.3        1 BB1          0.0000
     7 C7        -0.3690   -14.4783    12.0153 C.3        1 BB1          0.0000
     8 C8         0.0734   -15.5567    11.0122 C.3        1 BB1          0.0000
     9 N9         1.2936   -16.2693    11.4143 N.am       1 BB1          0.0000
    10 C10        0.3277   -14.4136    10.0156 C.3        1 BB1          0.0000
    11 C11       -0.1006   -14.7421     8.5839 C.3        1 BB1          0.0000
    12 C12        1.7411   -13.8334    10.0960 C.3        1 BB1          0.0000
    13 H13       -2.7980   -12.6926     9.9806 H          1 BB1          0.0000
    14 H14       -2.9198   -11.5732    11.3593 H          1 BB1          0.0000
    15 H15       -3.2161   -10.9844     9.7058 H          1 BB1          0.0000
    16 H16       -1.3182   -10.7792     8.0940 H          1 BB1          0.0000
    17 H17        0.3303   -11.2217     8.5991 H          1 BB1          0.0000
    18 H18       -0.9000   -12.4873     8.3688 H          1 BB1          0.0000
    19 H19       -1.1930    -9.7968    11.6825 H          1 BB1          0.0000
    20 H20        0.1592    -9.6505    10.5342 H          1 BB1          0.0000
    21 H21       -1.4893    -9.2079    10.0291 H          1 BB1          0.0000
    22 H22       -1.7371   -13.7387    10.4414 H          1 BB1          0.0000
    23 H23        0.4475   -14.0826    12.6194 H          1 BB1          0.0000
    24 H24       -1.2365   -14.7646    12.6099 H          1 BB1          0.0000
    25 H25       -0.7298   -16.2293    10.7116 H          1 BB1          0.0000
    26 H26       -1.0469   -15.2827     8.6027 H          1 BB1          0.0000
    27 H27       -0.2215   -13.8175     8.0196 H          1 BB1          0.0000
    28 H28        0.6616   -15.3604     8.1095 H          1 BB1          0.0000
    29 H29        2.4328   -14.4863     9.5638 H          1 BB1          0.0000
    30 H30        1.7536   -12.8428     9.6413 H          1 BB1          0.0000
    31 H31        2.0438   -13.7575    11.1404 H          1 BB1          0.0000
    32 H32        1.6614   -16.7783    10.6247 H          1 BB1          0.0000
    33 O1        -1.0523   -17.8834    11.8907 O.2        2 BB2          0.0000
    34 C2        -0.1310   -18.6893    11.8889 C.2        2 BB2          0.0000
    35 C4         0.5803   -18.9932    13.1358 C.2        2 BB2          0.0000
    36 C5         1.2511   -17.9935    13.9358 C.2        2 BB2          0.0000
    37 C6         1.8272   -18.4953    15.0204 C.2        2 BB2          0.0000
    38 S7         1.5717   -20.2292    15.1109 S.3        2 BB2          0.0000
    39 C8         0.6724   -20.2468    13.6631 C.2        2 BB2          0.0000
    40 C9         0.0684   -21.4816    13.0457 C.3        2 BB2          0.0000
    41 F10       -1.3262   -21.3709    13.0504 F          2 BB2          0.0000
    42 F11        0.5213   -21.6137    11.7286 F          2 BB2          0.0000
    43 F12        0.4494   -22.6066    13.7848 F          2 BB2          0.0000
    44 H13        1.2806   -16.9454    13.6770 H          2 BB2          0.0000
    45 H14        2.3776   -17.9166    15.7474 H          2 BB2          0.0000
@<TRIPOS>BOND
     1      1      2 1
     2      1     13 1
     3      1     14 1
     4      1     15 1
     5      2      3 1
     6      2      4 1
     7      2      5 1
     8      3     16 1
     9      3     17 1
    10      3     18 1
    11      4     19 1
    12      4     20 1
    13      4     21 1
    14      5      6 1
    15      6      7 1
    16      6     10 1
    17      6     22 1
    18      7      8 1
    19      7     23 1
    20      7     24 1
    21      8      9 1
    22      8     10 1
    23      8     25 1
    24      9     32 1
    25     10     11 1
    26     10     12 1
    27     11     26 1
    28     11     27 1
    29     11     28 1
    30     12     29 1
    31     12     30 1
    32     12     31 1
    33     33     34 2
    34     34     35 1
    35     35     36 1
    36     35     39 2
    37     36     37 2
    38     36     44 1
    39     37     38 1
    40     37     45 1
    41     38     39 1
    42     39     40 1
    43     40     41 1
    44     40     42 1
    45     40     43 1
    46      9     34 am
@<TRIPOS>SUBSTRUCTURE
     1 BB1           9
     2 BB2          34
@<TRIPOS>MOLECULE
EN300-193626_i001_EN300-344045_i001_18_10_1
  61   63   2   0   0
SMALL
USER_CHARGES
@<TRIPOS>ATOM
     1 C1        -2.6254   -11.6693    10.3142 C.3        1 BB1          0.0000
     2 C2        -1.1407   -11.3292    10.1693 C.3        1 BB1          0.0000
     3 C3        -0.7275   -11.4640     8.7024 C.3        1 BB1          0.0000
     4 C4        -0.8985    -9.8929    10.6375 C.3        1 BB1          0.0000
     5 O5        -0.3664   -12.2271    10.9668 O.3        1 BB1          0.0000
     6 C6        -0.7168   -13.6024    10.8002 C.3        1 BB1          0.0000
     7 C7        -0.3690   -14.4783    12.0153 C.3        1 BB1          0.0000
     8 C8         0.0734   -15.5567    11.0122 C.3        1 BB1          0.0000
     9 N9         1.2936   -16.2693    11.4143 N.am       1 BB1          0.0000
    10 C10        0.3277   -14.4136    10.0156 C.3        1 BB1          0.0000
    11 C11       -0.1006   -14.7421     8.5839 C.3        1 BB1          0.0000
    12 C12        1.7411   -13.8334    10.0960 C.3        1 BB1          0.0000
    13 H13       -2.7980   -12.6926     9.9806 H          1 BB1          0.0000
    14 H14       -2.9198   -11.5732    11.3593 H          1 BB1          0.0000
    15 H15       -3.2161   -10.9844     9.7058 H          1 BB1          0.0000
    16 H16       -1.3182   -10.7792     8.0940 H          1 BB1          0.0000
    17 H17        0.3303   -11.2217     8.5991 H          1 BB1          0.0000
    18 H18       -0.9000   -12.4873     8.3688 H          1 BB1          0.0000
    19 H19       -1.1930    -9.7968    11.6825 H          1 BB1          0.0000
    20 H20        0.1592    -9.6505    10.5342 H          1 BB1          0.0000
    21 H21       -1.4893    -9.2079    10.0291 H          1 BB1          0.0000
    22 H22       -1.7371   -13.7387    10.4414 H          1 BB1          0.0000
    23 H23        0.4475   -14.0826    12.6194 H          1 BB1          0.0000
    24 H24       -1.2365   -14.7646    12.6099 H          1 BB1          0.0000
    25 H25       -0.7298   -16.2293    10.7116 H          1 BB1          0.0000
    26 H26       -1.0469   -15.2827     8.6027 H          1 BB1          0.0000
    27 H27       -0.2215   -13.8175     8.0196 H          1 BB1          0.0000
    28 H28        0.6616   -15.3604     8.1095 H          1 BB1          0.0000
    29 H29        2.4328   -14.4863     9.5638 H          1 BB1          0.0000
    30 H30        1.7536   -12.8428     9.6413 H          1 BB1          0.0000
    31 H31        2.0438   -13.7575    11.1404 H          1 BB1          0.0000
    32 H34        1.0763   -16.9146    12.1589 H          1 BB1          0.0000
    33 O1        -0.1020   -15.4251    12.3109 O.2        2 BB2          0.0000
    34 C2        -0.1552   -16.1642    13.2791 C.2        2 BB2          0.0000
    35 C4        -0.2949   -17.6520    13.0845 C.3        2 BB2          0.0000
    36 C5         1.0177   -18.3411    13.4627 C.3        2 BB2          0.0000
    37 C6         2.1466   -17.8837    12.5159 C.3        2 BB2          0.0000
    38 C7         2.8436   -16.7333    13.2840 C.3        2 BB2          0.0000
    39 C8         2.8113   -17.2322    14.7500 C.3        2 BB2          0.0000
    40 C9         1.4404   -17.9270    14.8830 C.3        2 BB2          0.0000
    41 C10        0.8553   -19.8375    13.3870 C.ar       2 BB2          0.0000
    42 C11        0.3498   -20.4207    12.2402 C.ar       2 BB2          0.0000
    43 C12        0.2007   -21.7932    12.1708 C.ar       2 BB2          0.0000
    44 C13        0.5577   -22.5826    13.2481 C.ar       2 BB2          0.0000
    45 C14        1.0640   -21.9994    14.3945 C.ar       2 BB2          0.0000
    46 C15        1.2171   -20.6272    14.4623 C.ar       2 BB2          0.0000
    47 H16       -1.0982   -18.0276    13.7185 H          2 BB2          0.0000
    48 H17       -0.5277   -17.8617    12.0405 H          2 BB2          0.0000
    49 H18        2.8460   -18.6997    12.3341 H          2 BB2          0.0000
    50 H19        1.7321   -17.5187    11.5762 H          2 BB2          0.0000
    51 H20        3.8707   -16.6068    12.9415 H          2 BB2          0.0000
    52 H21        2.2833   -15.8041    13.1798 H          2 BB2          0.0000
    53 H22        3.6181   -17.9430    14.9289 H          2 BB2          0.0000
    54 H23        2.8818   -16.3919    15.4406 H          2 BB2          0.0000
    55 H24        0.7104   -17.2350    15.3030 H          2 BB2          0.0000
    56 H25        1.5285   -18.8083    15.5183 H          2 BB2          0.0000
    57 H26        0.0709   -19.8041    11.3986 H          2 BB2          0.0000
    58 H27       -0.1949   -22.2488    11.2751 H          2 BB2          0.0000
    59 H28        0.4406   -23.6548    13.1941 H          2 BB2          0.0000
    60 H29        1.3426   -22.6160    15.2363 H          2 BB2          0.0000
    61 H30        1.6128   -20.1715    15.3580 H          2 BB2          0.0000
@<TRIPOS>BOND
     1      1      2 1
     2      1     13 1
     3      1     14 1
     4      1     15 1
     5      2      3 1
     6      2      4 1
     7      2      5 1
     8      3     16 1
     9      3     17 1
    10      3     18 1
    11      4     19 1
    12      4     20 1
    13      4     21 1
    14      5      6 1
    15      6      7 1
    16      6     10 1
    17      6     22 1
    18      7      8 1
    19      7     23 1
    20      7     24 1
    21      8      9 1
    22      8     10 1
    23      8     25 1
    24      9     32 1
    25     10     11 1
    26     10     12 1
    27     11     26 1
    28     11     27 1
    29     11     28 1
    30     12     29 1
    31     12     30 1
    32     12     31 1
    33     33     34 2
    34     34     35 1
    35     35     36 1
    36     35     47 1
    37     35     48 1
    38     36     37 1
    39     36     40 1
    40     36     41 1
    41     37     38 1
    42     37     49 1
    43     37     50 1
    44     38     39 1
    45     38     51 1
    46     38     52 1
    47     39     40 1
    48     39     53 1
    49     39     54 1
    50     40     55 1
    51     40     56 1
    52     41     42 ar
    53     41     46 ar
    54     42     43 ar
    55     42     57 1
    56     43     44 ar
    57     43     58 1
    58     44     45 ar
    59     44     59 1
    60     45     46 ar
    61     45     60 1
    62     46     61 1
    63      9     34 am
@<TRIPOS>SUBSTRUCTURE
     1 BB1           9
     2 BB2          34
@<TRIPOS>MOLECULE
EN300-193626_i001_EN300-344045_i001_18_8_1
  61   63   2   0   0
SMALL
USER_CHARGES
@<TRIPOS>ATOM
     1 C1        -2.6254   -11.6693    10.3142 C.3        1 BB1          0.0000
     2 C2        -1.1407   -11.3292    10.1693 C.3        1 BB1          0.0000
     3 C3        -0.7275   -11.4640     8.7024 C.3        1 BB1          0.0000
     4 C4        -0.8985    -9.8929    10.6375 C.3        1 BB1          0.0000
     5 O5        -0.3664   -12.2271    10.9668 O.3        1 BB1          0.0000
     6 C6        -0.7168   -13.6024    10.8002 C.3        1 BB1          0.0000
     7 C7        -0.3690   -14.4783    12.0153 C.3        1 BB1          0.0000
     8 C8         0.0734   -15.5567    11.0122 C.3        1 BB1          0.0000
     9 N9         1.2936   -16.2693    11.4143 N.am       1 BB1          0.0000
    10 C10        0.3277   -14.4136    10.0156 C.3        1 BB1          0.0000
    11 C11       -0.1006   -14.7421     8.5839 C.3        1 BB1          0.0000
    12 C12        1.7411   -13.8334    10.0960 C.3        1 BB1          0.0000
    13 H13       -2.7980   -12.6926     9.9806 H          1 BB1          0.0000
    14 H14       -2.9198   -11.5732    11.3593 H          1 BB1          0.0000
    15 H15       -3.2161   -10.9844     9.7058 H          1 BB1          0.0000
    16 H16       -1.3182   -10.7792     8.0940 H          1 BB1          0.0000
    17 H17        0.3303   -11.2217     8.5991 H          1 BB1          0.0000
    18 H18       -0.9000   -12.4873     8.3688 H          1 BB1          0.0000
    19 H19       -1.1930    -9.7968    11.6825 H          1 BB1          0.0000
    20 H20        0.1592    -9.6505    10.5342 H          1 BB1          0.0000
    21 H21       -1.4893    -9.2079    10.0291 H          1 BB1          0.0000
    22 H22       -1.7371   -13.7387    10.4414 H          1 BB1          0.0000
    23 H23        0.4475   -14.0826    12.6194 H          1 BB1          0.0000
    24 H24       -1.2365   -14.7646    12.6099 H          1 BB1          0.0000
    25 H25       -0.7298   -16.2293    10.7116 H          1 BB1          0.0000
    26 H26       -1.0469   -15.2827     8.6027 H          1 BB1          0.0000
    27 H27       -0.2215   -13.8175     8.0196 H          1 BB1          0.0000
    28 H28        0.6616   -15.3604     8.1095 H          1 BB1          0.0000
    29 H29        2.4328   -14.4863     9.5638 H          1 BB1          0.0000
    30 H30        1.7536   -12.8428     9.6413 H          1 BB1          0.0000
    31 H31        2.0438   -13.7575    11.1404 H          1 BB1          0.0000
    32 H34        1.0763   -16.9146    12.1589 H          1 BB1          0.0000
    33 O1         0.1977   -15.0634    12.4746 O.2        2 BB2          0.0000
    34 C2        -0.1011   -15.8922    13.3172 C.2        2 BB2          0.0000
    35 C4        -0.5242   -17.2760    12.8963 C.3        2 BB2          0.0000
    36 C5         0.5490   -18.2852    13.3093 C.3        2 BB2          0.0000
    37 C6         1.8848   -17.9504    12.6139 C.3        2 BB2          0.0000
    38 C7         2.6573   -17.1093    13.6602 C.3        2 BB2          0.0000
    39 C8         2.2891   -17.8025    14.9954 C.3        2 BB2          0.0000
    40 C9         0.8061   -18.1912    14.8234 C.3        2 BB2          0.0000
    41 C10        0.1126   -19.6807    12.9444 C.ar       2 BB2          0.0000
    42 C11       -1.0025   -20.2352    13.5441 C.ar       2 BB2          0.0000
    43 C12       -1.4027   -21.5153    13.2094 C.ar       2 BB2          0.0000
    44 C13       -0.6881   -22.2407    12.2744 C.ar       2 BB2          0.0000
    45 C14        0.4266   -21.6858    11.6741 C.ar       2 BB2          0.0000
    46 C15        0.8243   -20.4040    12.0056 C.ar       2 BB2          0.0000
    47 H16       -1.4675   -17.5304    13.3797 H          2 BB2          0.0000
    48 H17       -0.6516   -17.3036    11.8140 H          2 BB2          0.0000
    49 H18        2.4319   -18.8634    12.3791 H          2 BB2          0.0000
    50 H19        1.7087   -17.3669    11.7102 H          2 BB2          0.0000
    51 H20        3.7313   -17.1616    13.4811 H          2 BB2          0.0000
    52 H21        2.3136   -16.0749    13.6543 H          2 BB2          0.0000
    53 H22        2.9015   -18.6917    15.1453 H          2 BB2          0.0000
    54 H23        2.4080   -17.1112    15.8297 H          2 BB2          0.0000
    55 H24        0.1663   -17.4266    15.2641 H          2 BB2          0.0000
    56 H25        0.6156   -19.1552    15.2951 H          2 BB2          0.0000
    57 H26       -1.5609   -19.6686    14.2745 H          2 BB2          0.0000
    58 H27       -2.2735   -21.9489    13.6785 H          2 BB2          0.0000
    59 H28       -1.0003   -23.2410    12.0135 H          2 BB2          0.0000
    60 H29        0.9852   -22.2526    10.9438 H          2 BB2          0.0000
    61 H30        1.6951   -19.9705    11.5365 H          2 BB2          0.0000
@<TRIPOS>BOND
     1      1      2 1
     2      1     13 1
     3      1     14 1
     4      1     15 1
     5      2      3 1
     6      2      4 1
     7      2      5 1
     8      3     16 1
     9      3     17 1
    10      3     18 1
    11      4     19 1
    12      4     20 1
    13      4     21 1
    14      5      6 1
    15      6      7 1
    16      6     10 1
    17      6     22 1
    18      7      8 1
    19      7     23 1
    20      7     24 1
    21      8      9 1
    22      8     10 1
    23      8     25 1
    24      9     32 1
    25     10     11 1
    26     10     12 1
    27     11     26 1
    28     11     27 1
    29     11     28 1
    30     12     29 1
    31     12     30 1
    32     12     31 1
    33     33     34 2
    34     34     35 1
    35     35     36 1
    36     35     47 1
    37     35     48 1
    38     36     37 1
    39     36     40 1
    40     36     41 1
    41     37     38 1
    42     37     49 1
    43     37     50 1
    44     38     39 1
    45     38     51 1
    46     38     52 1
    47     39     40 1
    48     39     53 1
    49     39     54 1
    50     40     55 1
    51     40     56 1
    52     41     42 ar
    53     41     46 ar
    54     42     43 ar
    55     42     57 1
    56     43     44 ar
    57     43     58 1
    58     44     45 ar
    59     44     59 1
    60     45     46 ar
    61     45     60 1
    62     46     61 1
    63      9     34 am
@<TRIPOS>SUBSTRUCTURE
     1 BB1           9
     2 BB2          34
@<TRIPOS>MOLECULE
EN300-193626_i001_EN300-701715_i002_18_19_1
  58   59   2   0   0
SMALL
USER_CHARGES
@<TRIPOS>ATOM
     1 C1        -2.6254   -11.6693    10.3142 C.3        1 BB1          0.0000
     2 C2        -1.1407   -11.3292    10.1693 C.3        1 BB1          0.0000
     3 C3        -0.7275   -11.4640     8.7024 C.3        1 BB1          0.0000
     4 C4        -0.8985    -9.8929    10.6375 C.3        1 BB1          0.0000
     5 O5        -0.3664   -12.2271    10.9668 O.3        1 BB1          0.0000
     6 C6        -0.7168   -13.6024    10.8002 C.3        1 BB1          0.0000
     7 C7        -0.3690   -14.4783    12.0153 C.3        1 BB1          0.0000
     8 C8         0.0734   -15.5567    11.0122 C.3        1 BB1          0.0000
     9 N9         1.2936   -16.2693    11.4143 N.am       1 BB1          0.0000
    10 C10        0.3277   -14.4136    10.0156 C.3        1 BB1          0.0000
    11 C11       -0.1006   -14.7421     8.5839 C.3        1 BB1          0.0000
    12 C12        1.7411   -13.8334    10.0960 C.3        1 BB1          0.0000
    13 H13       -2.7980   -12.6926     9.9806 H          1 BB1          0.0000
    14 H14       -2.9198   -11.5732    11.3593 H          1 BB1          0.0000
    15 H15       -3.2161   -10.9844     9.7058 H          1 BB1          0.0000
    16 H16       -1.3182   -10.7792     8.0940 H          1 BB1          0.0000
    17 H17        0.3303   -11.2217     8.5991 H          1 BB1          0.0000
    18 H18       -0.9000   -12.4873     8.3688 H          1 BB1          0.0000
    19 H19       -1.1930    -9.7968    11.6825 H          1 BB1          0.0000
    20 H20        0.1592    -9.6505    10.5342 H          1 BB1          0.0000
    21 H21       -1.4893    -9.2079    10.0291 H          1 BB1          0.0000
    22 H22       -1.7371   -13.7387    10.4414 H          1 BB1          0.0000
    23 H23        0.4475   -14.0826    12.6194 H          1 BB1          0.0000
    24 H24       -1.2365   -14.7646    12.6099 H          1 BB1          0.0000
    25 H25       -0.7298   -16.2293    10.7116 H          1 BB1          0.0000
    26 H26       -1.0469   -15.2827     8.6027 H          1 BB1          0.0000
    27 H27       -0.2215   -13.8175     8.0196 H          1 BB1          0.0000
    28 H28        0.6616   -15.3604     8.1095 H          1 BB1          0.0000
    29 H29        2.4328   -14.4863     9.5638 H          1 BB1          0.0000
    30 H30        1.7536   -12.8428     9.6413 H          1 BB1          0.0000
    31 H31        2.0438   -13.7575    11.1404 H          1 BB1          0.0000
    32 H32        1.6614   -16.7783    10.6247 H          1 BB1          0.0000
    33 C1        -0.3936   -18.6582    15.3522 C.3        2 BB2          0.0000
    34 O2        -0.6853   -17.9828    14.1271 O.3        2 BB2          0.0000
    35 C3         0.4537   -17.7847    13.2872 C.3        2 BB2          0.0000
    36 C4         0.0186   -17.0963    11.9919 C.3        2 BB2          0.0000
    37 C5        -1.0036   -17.9737    11.2666 C.3        2 BB2          0.0000
    38 C6        -0.3713   -19.3275    10.9372 C.3        2 BB2          0.0000
    39 C7         0.0638   -20.0159    12.2324 C.3        2 BB2          0.0000
    40 C8         0.6962   -21.3695    11.9030 C.3        2 BB2          0.0000
    41 C9         1.0860   -19.1384    12.9578 C.3        2 BB2          0.0000
    42 C10        1.4605   -16.9205    14.0017 C.2        2 BB2          0.0000
    43 O12        1.1423   -15.8106    14.3934 O.2        2 BB2          0.0000
    44 H13        0.3304   -18.0776    15.9238 H          2 BB2          0.0000
    45 H14       -1.3095   -18.7697    15.9327 H          2 BB2          0.0000
    46 H15        0.0207   -19.6427    15.1346 H          2 BB2          0.0000
    47 H16       -0.4319   -16.1319    12.2266 H          2 BB2          0.0000
    48 H17        0.8874   -16.9452    11.3513 H          2 BB2          0.0000
    49 H18       -1.8723   -18.1249    11.9073 H          2 BB2          0.0000
    50 H19       -1.3135   -17.4833    10.3438 H          2 BB2          0.0000
    51 H20       -1.0995   -19.9525    10.4204 H          2 BB2          0.0000
    52 H21        0.4975   -19.1763    10.2964 H          2 BB2          0.0000
    53 H22       -0.8050   -20.1669    12.8731 H          2 BB2          0.0000
    54 H23        1.5649   -21.2185    11.2623 H          2 BB2          0.0000
    55 H24        1.0061   -21.8599    12.8259 H          2 BB2          0.0000
    56 H25       -0.0321   -21.9946    11.3862 H          2 BB2          0.0000
    57 H26        1.9548   -18.9873    12.3171 H          2 BB2          0.0000
    58 H27        1.3960   -19.6288    13.8806 H          2 BB2          0.0000
@<TRIPOS>BOND
     1      1      2 1
     2      1     13 1
     3      1     14 1
     4      1     15 1
     5      2      3 1
     6      2      4 1
     7      2      5 1
     8      3     16 1
     9      3     17 1
    10      3     18 1
    11      4     19 1
    12      4     20 1
    13      4     21 1
    14      5      6 1
    15      6      7 1
    16      6     10 1
    17      6     22 1
    18      7      8 1
    19      7     23 1
    20      7     24 1
    21      8      9 1
    22      8     10 1
    23      8     25 1
    24      9     32 1
    25     10     11 1
    26     10     12 1
    27     11     26 1
    28     11     27 1
    29     11     28 1
    30     12     29 1
    31     12     30 1
    32     12     31 1
    33     33     34 1
    34     33     44 1
    35     33     45 1
    36     33     46 1
    37     34     35 1
    38     35     36 1
    39     35     41 1
    40     35     42 1
    41     36     37 1
    42     36     47 1
    43     36     48 1
    44     37     38 1
    45     37     49 1
    46     37     50 1
    47     38     39 1
    48     38     51 1
    49     38     52 1
    50     39     40 1
    51     39     41 1
    52     39     53 1
    53     40     54 1
    54     40     55 1
    55     40     56 1
    56     41     57 1
    57     41     58 1
    58     42     43 2
    59      9     42 am
@<TRIPOS>SUBSTRUCTURE
     1 BB1           9
     2 BB2          42
@<TRIPOS>MOLECULE
EN300-193626_i001_EN300-701715_i002_18_3_1
  58   59   2   0   0
SMALL
USER_CHARGES
@<TRIPOS>ATOM
     1 C1        -2.6254   -11.6693    10.3142 C.3        1 BB1          0.0000
     2 C2        -1.1407   -11.3292    10.1693 C.3        1 BB1          0.0000
     3 C3        -0.7275   -11.4640     8.7024 C.3        1 BB1          0.0000
     4 C4        -0.8985    -9.8929    10.6375 C.3        1 BB1          0.0000
     5 O5        -0.3664   -12.2271    10.9668 O.3        1 BB1          0.0000
     6 C6        -0.7168   -13.6024    10.8002 C.3        1 BB1          0.0000
     7 C7        -0.3690   -14.4783    12.0153 C.3        1 BB1          0.0000
     8 C8         0.0734   -15.5567    11.0122 C.3        1 BB1          0.0000
     9 N9         1.2936   -16.2693    11.4143 N.am       1 BB1          0.0000
    10 C10        0.3277   -14.4136    10.0156 C.3        1 BB1          0.0000
    11 C11       -0.1006   -14.7421     8.5839 C.3        1 BB1          0.0000
    12 C12        1.7411   -13.8334    10.0960 C.3        1 BB1          0.0000
    13 H13       -2.7980   -12.6926     9.9806 H          1 BB1          0.0000
    14 H14       -2.9198   -11.5732    11.3593 H          1 BB1          0.0000
    15 H15       -3.2161   -10.9844     9.7058 H          1 BB1          0.0000
    16 H16       -1.3182   -10.7792     8.0940 H          1 BB1          0.0000
    17 H17        0.3303   -11.2217     8.5991 H          1 BB1          0.0000
    18 H18       -0.9000   -12.4873     8.3688 H          1 BB1          0.0000
    19 H19       -1.1930    -9.7968    11.6825 H          1 BB1          0.0000
    20 H20        0.1592    -9.6505    10.5342 H          1 BB1          0.0000
    21 H21       -1.4893    -9.2079    10.0291 H          1 BB1          0.0000
    22 H22       -1.7371   -13.7387    10.4414 H          1 BB1          0.0000
    23 H23        0.4475   -14.0826    12.6194 H          1 BB1          0.0000
    24 H24       -1.2365   -14.7646    12.6099 H          1 BB1          0.0000
    25 H25       -0.7298   -16.2293    10.7116 H          1 BB1          0.0000
    26 H26       -1.0469   -15.2827     8.6027 H          1 BB1          0.0000
    27 H27       -0.2215   -13.8175     8.0196 H          1 BB1          0.0000
    28 H28        0.6616   -15.3604     8.1095 H          1 BB1          0.0000
    29 H29        2.4328   -14.4863     9.5638 H          1 BB1          0.0000
    30 H30        1.7536   -12.8428     9.6413 H          1 BB1          0.0000
    31 H31        2.0438   -13.7575    11.1404 H          1 BB1          0.0000
    32 H32        1.6614   -16.7783    10.6247 H          1 BB1          0.0000
    33 C1        -0.6989   -17.7193    11.7099 C.3        2 BB2          0.0000
    34 O2        -0.6901   -18.1381    13.0761 O.3        2 BB2          0.0000
    35 C3         0.5888   -18.0398    13.7059 C.3        2 BB2          0.0000
    36 C4         1.6206   -18.8209    12.8898 C.3        2 BB2          0.0000
    37 C5         1.2023   -20.2905    12.8116 C.3        2 BB2          0.0000
    38 C6         1.1215   -20.8737    14.2237 C.3        2 BB2          0.0000
    39 C7         0.0897   -20.0925    15.0399 C.3        2 BB2          0.0000
    40 C8         0.0090   -20.6757    16.4520 C.3        2 BB2          0.0000
    41 C9         0.5080   -18.6229    15.1181 C.3        2 BB2          0.0000
    42 C10        1.0009   -16.5922    13.7830 C.2        2 BB2          0.0000
    43 O11        0.3347   -15.8023    14.4301 O.2        2 BB2          0.0000
    44 H13       -0.0093   -18.3381    11.1357 H          2 BB2          0.0000
    45 H14       -1.7051   -17.8242    11.3041 H          2 BB2          0.0000
    46 H15       -0.3890   -16.6761    11.6476 H          2 BB2          0.0000
    47 H16        1.6782   -18.4055    11.8837 H          2 BB2          0.0000
    48 H17        2.5961   -18.7459    13.3702 H          2 BB2          0.0000
    49 H18        0.2267   -20.3655    12.3312 H          2 BB2          0.0000
    50 H19        1.9373   -20.8471    12.2301 H          2 BB2          0.0000
    51 H20        0.8234   -21.9206    14.1680 H          2 BB2          0.0000
    52 H21        2.0971   -20.7987    14.7041 H          2 BB2          0.0000
    53 H22       -0.8858   -20.1675    14.5594 H          2 BB2          0.0000
    54 H23        0.9845   -20.6007    16.9325 H          2 BB2          0.0000
    55 H24       -0.7262   -20.1191    17.0335 H          2 BB2          0.0000
    56 H25       -0.2891   -21.7227    16.3963 H          2 BB2          0.0000
    57 H26        1.4836   -18.5479    15.5985 H          2 BB2          0.0000
    58 H27       -0.2270   -18.0663    15.6996 H          2 BB2          0.0000
@<TRIPOS>BOND
     1      1      2 1
     2      1     13 1
     3      1     14 1
     4      1     15 1
     5      2      3 1
     6      2      4 1
     7      2      5 1
     8      3     16 1
     9      3     17 1
    10      3     18 1
    11      4     19 1
    12      4     20 1
    13      4     21 1
    14      5      6 1
    15      6      7 1
    16      6     10 1
    17      6     22 1
    18      7      8 1
    19      7     23 1
    20      7     24 1
    21      8      9 1
    22      8     10 1
    23      8     25 1
    24      9     32 1
    25     10     11 1
    26     10     12 1
    27     11     26 1
    28     11     27 1
    29     11     28 1
    30     12     29 1
    31     12     30 1
    32     12     31 1
    33     33     34 1
    34     33     44 1
    35     33     45 1
    36     33     46 1
    37     34     35 1
    38     35     36 1
    39     35     41 1
    40     35     42 1
    41     36     37 1
    42     36     47 1
    43     36     48 1
    44     37     38 1
    45     37     49 1
    46     37     50 1
    47     38     39 1
    48     38     51 1
    49     38     52 1
    50     39     40 1
    51     39     41 1
    52     39     53 1
    53     40     54 1
    54     40     55 1
    55     40     56 1
    56     41     57 1
    57     41     58 1
    58     42     43 2
    59      9     42 am
@<TRIPOS>SUBSTRUCTURE
     1 BB1           9
     2 BB2          42
@<TRIPOS>MOLECULE
EN300-193626_i001_EN300-701715_i002_18_7_1
  58   59   2   0   0
SMALL
USER_CHARGES
@<TRIPOS>ATOM
     1 C1        -2.6254   -11.6693    10.3142 C.3        1 BB1          0.0000
     2 C2        -1.1407   -11.3292    10.1693 C.3        1 BB1          0.0000
     3 C3        -0.7275   -11.4640     8.7024 C.3        1 BB1          0.0000
     4 C4        -0.8985    -9.8929    10.6375 C.3        1 BB1          0.0000
     5 O5        -0.3664   -12.2271    10.9668 O.3        1 BB1          0.0000
     6 C6        -0.7168   -13.6024    10.8002 C.3        1 BB1          0.0000
     7 C7        -0.3690   -14.4783    12.0153 C.3        1 BB1          0.0000
     8 C8         0.0734   -15.5567    11.0122 C.3        1 BB1          0.0000
     9 N9         1.2936   -16.2693    11.4143 N.am       1 BB1          0.0000
    10 C10        0.3277   -14.4136    10.0156 C.3        1 BB1          0.0000
    11 C11       -0.1006   -14.7421     8.5839 C.3        1 BB1          0.0000
    12 C12        1.7411   -13.8334    10.0960 C.3        1 BB1          0.0000
    13 H13       -2.7980   -12.6926     9.9806 H          1 BB1          0.0000
    14 H14       -2.9198   -11.5732    11.3593 H          1 BB1          0.0000
    15 H15       -3.2161   -10.9844     9.7058 H          1 BB1          0.0000
    16 H16       -1.3182   -10.7792     8.0940 H          1 BB1          0.0000
    17 H17        0.3303   -11.2217     8.5991 H          1 BB1          0.0000
    18 H18       -0.9000   -12.4873     8.3688 H          1 BB1          0.0000
    19 H19       -1.1930    -9.7968    11.6825 H          1 BB1          0.0000
    20 H20        0.1592    -9.6505    10.5342 H          1 BB1          0.0000
    21 H21       -1.4893    -9.2079    10.0291 H          1 BB1          0.0000
    22 H22       -1.7371   -13.7387    10.4414 H          1 BB1          0.0000
    23 H23        0.4475   -14.0826    12.6194 H          1 BB1          0.0000
    24 H24       -1.2365   -14.7646    12.6099 H          1 BB1          0.0000
    25 H25       -0.7298   -16.2293    10.7116 H          1 BB1          0.0000
    26 H26       -1.0469   -15.2827     8.6027 H          1 BB1          0.0000
    27 H27       -0.2215   -13.8175     8.0196 H          1 BB1          0.0000
    28 H28        0.6616   -15.3604     8.1095 H          1 BB1          0.0000
    29 H29        2.4328   -14.4863     9.5638 H          1 BB1          0.0000
    30 H30        1.7536   -12.8428     9.6413 H          1 BB1          0.0000
    31 H31        2.0438   -13.7575    11.1404 H          1 BB1          0.0000
    32 H32        1.6614   -16.7783    10.6247 H          1 BB1          0.0000
    33 C1         2.6980   -17.0935    14.3531 C.3        2 BB2          0.0000
    34 O2         2.0291   -17.9262    13.4038 O.3        2 BB2          0.0000
    35 C3         0.6511   -18.1578    13.7029 C.3        2 BB2          0.0000
    36 C4         0.5278   -18.7630    15.1027 C.3        2 BB2          0.0000
    37 C5         1.2906   -20.0882    15.1543 C.3        2 BB2          0.0000
    38 C6         0.7014   -21.0563    14.1264 C.3        2 BB2          0.0000
    39 C7         0.8248   -20.4511    12.7266 C.3        2 BB2          0.0000
    40 C8         0.2354   -21.4191    11.6988 C.3        2 BB2          0.0000
    41 C9         0.0619   -19.1258    12.6749 C.3        2 BB2          0.0000
    42 C10       -0.1002   -16.8524    13.6520 C.2        2 BB2          0.0000
    43 O11        0.1980   -15.9472    14.4124 O.2        2 BB2          0.0000
    44 H13        2.6565   -17.5592    15.3378 H          2 BB2          0.0000
    45 H14        3.7387   -16.9660    14.0551 H          2 BB2          0.0000
    46 H15        2.2090   -16.1200    14.3908 H          2 BB2          0.0000
    47 H16        0.9476   -18.0733    15.8350 H          2 BB2          0.0000
    48 H17       -0.5233   -18.9396    15.3308 H          2 BB2          0.0000
    49 H18        2.3417   -19.9116    14.9261 H          2 BB2          0.0000
    50 H19        1.2028   -20.5194    16.1515 H          2 BB2          0.0000
    51 H20        1.2448   -22.0004    14.1632 H          2 BB2          0.0000
    52 H21       -0.3497   -21.2329    14.3546 H          2 BB2          0.0000
    53 H22        1.8758   -20.2744    12.4985 H          2 BB2          0.0000
    54 H23       -0.8156   -21.5958    11.9269 H          2 BB2          0.0000
    55 H24        0.3233   -20.9879    10.7015 H          2 BB2          0.0000
    56 H25        0.7789   -22.3633    11.7356 H          2 BB2          0.0000
    57 H26       -0.9893   -19.3025    12.9031 H          2 BB2          0.0000
    58 H27        0.1497   -18.6946    11.6777 H          2 BB2          0.0000
@<TRIPOS>BOND
     1      1      2 1
     2      1     13 1
     3      1     14 1
     4      1     15 1
     5      2      3 1
     6      2      4 1
     7      2      5 1
     8      3     16 1
     9      3     17 1
    10      3     18 1
    11      4     19 1
    12      4     20 1
    13      4     21 1
    14      5      6 1
    15      6      7 1
    16      6     10 1
    17      6     22 1
    18      7      8 1
    19      7     23 1
    20      7     24 1
    21      8      9 1
    22      8     10 1
    23      8     25 1
    24      9     32 1
    25     10     11 1
    26     10     12 1
    27     11     26 1
    28     11     27 1
    29     11     28 1
    30     12     29 1
    31     12     30 1
    32     12     31 1
    33     33     34 1
    34     33     44 1
    35     33     45 1
    36     33     46 1
    37     34     35 1
    38     35     36 1
    39     35     41 1
    40     35     42 1
    41     36     37 1
    42     36     47 1
    43     36     48 1
    44     37     38 1
    45     37     49 1
    46     37     50 1
    47     38     39 1
    48     38     51 1
    49     38     52 1
    50     39     40 1
    51     39     41 1
    52     39     53 1
    53     40     54 1
    54     40     55 1
    55     40     56 1
    56     41     57 1
    57     41     58 1
    58     42     43 2
    59      9     42 am
@<TRIPOS>SUBSTRUCTURE
     1 BB1           9
     2 BB2          42
@<TRIPOS>MOLECULE
EN300-193626_i001_EN300-19857_i001_20_19_1
  45   46   2   0   0
SMALL
USER_CHARGES
@<TRIPOS>ATOM
     1 C1         1.7011   -22.2978    14.0985 C.3        1 BB1          0.0000
     2 C2         0.9466   -20.9735    14.2315 C.3        1 BB1          0.0000
     3 C3        -0.4982   -21.2497    14.6523 C.3        1 BB1          0.0000
     4 C4         1.6281   -20.1022    15.2885 C.3        1 BB1          0.0000
     5 O5         0.9550   -20.2924    12.9753 O.3        1 BB1          0.0000
     6 C6         0.0495   -19.1891    12.9062 C.3        1 BB1          0.0000
     7 C7        -0.0989   -18.6015    11.4929 C.3        1 BB1          0.0000
     8 C8        -0.1102   -17.2141    12.1560 C.3        1 BB1          0.0000
     9 N9         0.6469   -16.1995    11.4108 N.am       1 BB1          0.0000
    10 C10        0.6813   -17.8473    13.3125 C.3        1 BB1          0.0000
    11 C11        0.2443   -17.3576    14.6946 C.3        1 BB1          0.0000
    12 C12        2.1978   -17.7993    13.1158 C.3        1 BB1          0.0000
    13 H13        1.2156   -22.9186    13.3454 H          1 BB1          0.0000
    14 H14        2.7305   -22.1011    13.7987 H          1 BB1          0.0000
    15 H15        1.6947   -22.8174    15.0568 H          1 BB1          0.0000
    16 H16       -0.5045   -21.7692    15.6105 H          1 BB1          0.0000
    17 H17       -1.0357   -20.3061    14.7471 H          1 BB1          0.0000
    18 H18       -0.9837   -21.8703    13.8992 H          1 BB1          0.0000
    19 H19        2.6574   -19.9054    14.9887 H          1 BB1          0.0000
    20 H20        1.0906   -19.1587    15.3833 H          1 BB1          0.0000
    21 H21        1.6218   -20.6218    16.2468 H          1 BB1          0.0000
    22 H22       -0.9025   -19.3914    13.3971 H          1 BB1          0.0000
    23 H23        0.7682   -18.7736    10.8552 H          1 BB1          0.0000
    24 H24       -1.0401   -18.8616    11.0085 H          1 BB1          0.0000
    25 H25       -1.1059   -16.8744    12.4411 H          1 BB1          0.0000
    26 H26       -0.8422   -17.2758    14.7244 H          1 BB1          0.0000
    27 H27        0.5762   -18.0666    15.4530 H          1 BB1          0.0000
    28 H28        0.6876   -16.3813    14.8911 H          1 BB1          0.0000
    29 H29        2.5664   -16.8062    13.3727 H          1 BB1          0.0000
    30 H30        2.6713   -18.5404    13.7597 H          1 BB1          0.0000
    31 H31        2.4362   -18.0172    12.0747 H          1 BB1          0.0000
    32 H32        0.0321   -15.7289    10.7639 H          1 BB1          0.0000
    33 C2         0.1084   -15.2492    12.0190 C.2        2 BB2          0.0000
    34 O3        -0.1015   -15.0032    13.1984 O.2        2 BB2          0.0000
    35 C4        -0.1003   -14.2039    10.9989 C.ar       2 BB2          0.0000
    36 C5         0.6067   -14.2472     9.7949 C.ar       2 BB2          0.0000
    37 C6         0.4070   -13.2666     8.8454 C.ar       2 BB2          0.0000
    38 C7        -0.4913   -12.2416     9.0830 C.ar       2 BB2          0.0000
    39 C8        -1.1956   -12.1914    10.2743 C.ar       2 BB2          0.0000
    40 Br9       -2.4207   -10.7854    10.5877 Br         2 BB2          0.0000
    41 C10       -1.0103   -13.1691    11.2304 C.ar       2 BB2          0.0000
    42 H11        1.3085   -15.0465     9.6080 H          2 BB2          0.0000
    43 H12        0.9533   -13.2990     7.9144 H          2 BB2          0.0000
    44 H13       -0.6436   -11.4766     8.3360 H          2 BB2          0.0000
    45 H14       -1.5600   -13.1293    12.1592 H          2 BB2          0.0000
@<TRIPOS>BOND
     1      1      2 1
     2      1     13 1
     3      1     14 1
     4      1     15 1
     5      2      3 1
     6      2      4 1
     7      2      5 1
     8      3     16 1
     9      3     17 1
    10      3     18 1
    11      4     19 1
    12      4     20 1
    13      4     21 1
    14      5      6 1
    15      6      7 1
    16      6     10 1
    17      6     22 1
    18      7      8 1
    19      7     23 1
    20      7     24 1
    21      8      9 1
    22      8     10 1
    23      8     25 1
    24      9     32 1
    25     10     11 1
    26     10     12 1
    27     11     26 1
    28     11     27 1
    29     11     28 1
    30     12     29 1
    31     12     30 1
    32     12     31 1
    33     33     34 2
    34     33     35 1
    35     35     36 ar
    36     35     41 ar
    37     36     37 ar
    38     36     42 1
    39     37     38 ar
    40     37     43 1
    41     38     39 ar
    42     38     44 1
    43     39     40 1
    44     39     41 ar
    45     41     45 1
    46      9     33 am
@<TRIPOS>SUBSTRUCTURE
     1 BB1           9
     2 BB2          33
@<TRIPOS>MOLECULE
EN300-193626_i001_EN300-97777_i001_20_8_1
  60   60   2   0   0
SMALL
USER_CHARGES
@<TRIPOS>ATOM
     1 C1         1.7011   -22.2978    14.0985 C.3        1 BB1          0.0000
     2 C2         0.9466   -20.9735    14.2315 C.3        1 BB1          0.0000
     3 C3        -0.4982   -21.2497    14.6523 C.3        1 BB1          0.0000
     4 C4         1.6281   -20.1022    15.2885 C.3        1 BB1          0.0000
     5 O5         0.9550   -20.2924    12.9753 O.3        1 BB1          0.0000
     6 C6         0.0495   -19.1891    12.9062 C.3        1 BB1          0.0000
     7 C7        -0.0989   -18.6015    11.4929 C.3        1 BB1          0.0000
     8 C8        -0.1102   -17.2141    12.1560 C.3        1 BB1          0.0000
     9 N9         0.6469   -16.1995    11.4108 N.am       1 BB1          0.0000
    10 C10        0.6813   -17.8473    13.3125 C.3        1 BB1          0.0000
    11 C11        0.2443   -17.3576    14.6946 C.3        1 BB1          0.0000
    12 C12        2.1978   -17.7993    13.1158 C.3        1 BB1          0.0000
    13 H13        1.2156   -22.9186    13.3454 H          1 BB1          0.0000
    14 H14        2.7305   -22.1011    13.7987 H          1 BB1          0.0000
    15 H15        1.6947   -22.8174    15.0568 H          1 BB1          0.0000
    16 H16       -0.5045   -21.7692    15.6105 H          1 BB1          0.0000
    17 H17       -1.0357   -20.3061    14.7471 H          1 BB1          0.0000
    18 H18       -0.9837   -21.8703    13.8992 H          1 BB1          0.0000
    19 H19        2.6574   -19.9054    14.9887 H          1 BB1          0.0000
    20 H20        1.0906   -19.1587    15.3833 H          1 BB1          0.0000
    21 H21        1.6218   -20.6218    16.2468 H          1 BB1          0.0000
    22 H22       -0.9025   -19.3914    13.3971 H          1 BB1          0.0000
    23 H23        0.7682   -18.7736    10.8552 H          1 BB1          0.0000
    24 H24       -1.0401   -18.8616    11.0085 H          1 BB1          0.0000
    25 H25       -1.1059   -16.8744    12.4411 H          1 BB1          0.0000
    26 H26       -0.8422   -17.2758    14.7244 H          1 BB1          0.0000
    27 H27        0.5762   -18.0666    15.4530 H          1 BB1          0.0000
    28 H28        0.6876   -16.3813    14.8911 H          1 BB1          0.0000
    29 H29        2.5664   -16.8062    13.3727 H          1 BB1          0.0000
    30 H30        2.6713   -18.5404    13.7597 H          1 BB1          0.0000
    31 H31        2.4362   -18.0172    12.0747 H          1 BB1          0.0000
    32 H33        1.0341   -15.5274    12.0562 H          1 BB1          0.0000
    33 C1        -1.8238   -10.7306     9.0157 C.3        2 BB2          0.0000
    34 C2        -1.8143   -10.8225    10.5429 C.3        2 BB2          0.0000
    35 C3        -0.6982    -9.9367    11.1002 C.3        2 BB2          0.0000
    36 C4        -3.1623   -10.3495    11.0907 C.3        2 BB2          0.0000
    37 O5        -1.5852   -12.1992    10.9435 O.3        2 BB2          0.0000
    38 C6        -0.4439   -12.7765    10.5227 C.2        2 BB2          0.0000
    39 O7         0.3377   -12.1479     9.8369 O.2        2 BB2          0.0000
    40 N8        -0.1686   -14.0514    10.8621 N.am       2 BB2          0.0000
    41 C9         1.0732   -14.6795    10.4043 C.3        2 BB2          0.0000
    42 C10        1.1107   -14.6769     8.9327 C.1        2 BB2          0.0000
    43 C11        1.1408   -14.6748     7.7592 C.1        2 BB2          0.0000
    44 C12       -1.1112   -14.8091    11.6891 C.3        2 BB2          0.0000
    45 C13       -0.3637   -15.8619    12.4662 C.2        2 BB2          0.0000
    46 O14       -0.8290   -16.9834    12.5766 O.2        2 BB2          0.0000
    47 H16       -0.8635   -11.0675     8.6255 H          2 BB2          0.0000
    48 H17       -2.6190   -11.3616     8.6187 H          2 BB2          0.0000
    49 H18       -1.9957    -9.6971     8.7149 H          2 BB2          0.0000
    50 H19       -0.8702    -8.9032    10.7994 H          2 BB2          0.0000
    51 H20       -0.6914   -10.0022    12.1882 H          2 BB2          0.0000
    52 H21        0.2622   -10.2736    10.7099 H          2 BB2          0.0000
    53 H22       -3.9575   -10.9806    10.6936 H          2 BB2          0.0000
    54 H23       -3.1556   -10.4150    12.1787 H          2 BB2          0.0000
    55 H24       -3.3342    -9.3160    10.7899 H          2 BB2          0.0000
    56 H25        1.9262   -14.1218    10.7905 H          2 BB2          0.0000
    57 H26        1.1161   -15.7064    10.7669 H          2 BB2          0.0000
    58 H27        1.1676   -14.6729     6.7094 H          2 BB2          0.0000
    59 H28       -1.6115   -14.1327    12.3822 H          2 BB2          0.0000
    60 H29       -1.8526   -15.2876    11.0493 H          2 BB2          0.0000
@<TRIPOS>BOND
     1      1      2 1
     2      1     13 1
     3      1     14 1
     4      1     15 1
     5      2      3 1
     6      2      4 1
     7      2      5 1
     8      3     16 1
     9      3     17 1
    10      3     18 1
    11      4     19 1
    12      4     20 1
    13      4     21 1
    14      5      6 1
    15      6      7 1
    16      6     10 1
    17      6     22 1
    18      7      8 1
    19      7     23 1
    20      7     24 1
    21      8      9 1
    22      8     10 1
    23      8     25 1
    24      9     32 1
    25     10     11 1
    26     10     12 1
    27     11     26 1
    28     11     27 1
    29     11     28 1
    30     12     29 1
    31     12     30 1
    32     12     31 1
    33     33     34 1
    34     33     47 1
    35     33     48 1
    36     33     49 1
    37     34     35 1
    38     34     36 1
    39     34     37 1
    40     35     50 1
    41     35     51 1
    42     35     52 1
    43     36     53 1
    44     36     54 1
    45     36     55 1
    46     37     38 1
    47     38     39 2
    48     38     40 am
    49     40     41 1
    50     40     44 1
    51     41     42 1
    52     41     56 1
    53     41     57 1
    54     42     43 3
    55     43     58 1
    56     44     45 1
    57     44     59 1
    58     44     60 1
    59     45     46 2
    60      9     45 am
@<TRIPOS>SUBSTRUCTURE
     1 BB1           9
     2 BB2          45
@<TRIPOS>MOLECULE
EN300-193626_i001_EN300-222254_i002_20_9_1
  55   57   2   0   0
SMALL
USER_CHARGES
@<TRIPOS>ATOM
     1 C1         1.7011   -22.2978    14.0985 C.3        1 BB1          0.0000
     2 C2         0.9466   -20.9735    14.2315 C.3        1 BB1          0.0000
     3 C3        -0.4982   -21.2497    14.6523 C.3        1 BB1          0.0000
     4 C4         1.6281   -20.1022    15.2885 C.3        1 BB1          0.0000
     5 O5         0.9550   -20.2924    12.9753 O.3        1 BB1          0.0000
     6 C6         0.0495   -19.1891    12.9062 C.3        1 BB1          0.0000
     7 C7        -0.0989   -18.6015    11.4929 C.3        1 BB1          0.0000
     8 C8        -0.1102   -17.2141    12.1560 C.3        1 BB1          0.0000
     9 N9         0.6469   -16.1995    11.4108 N.am       1 BB1          0.0000
    10 C10        0.6813   -17.8473    13.3125 C.3        1 BB1          0.0000
    11 C11        0.2443   -17.3576    14.6946 C.3        1 BB1          0.0000
    12 C12        2.1978   -17.7993    13.1158 C.3        1 BB1          0.0000
    13 H13        1.2156   -22.9186    13.3454 H          1 BB1          0.0000
    14 H14        2.7305   -22.1011    13.7987 H          1 BB1          0.0000
    15 H15        1.6947   -22.8174    15.0568 H          1 BB1          0.0000
    16 H16       -0.5045   -21.7692    15.6105 H          1 BB1          0.0000
    17 H17       -1.0357   -20.3061    14.7471 H          1 BB1          0.0000
    18 H18       -0.9837   -21.8703    13.8992 H          1 BB1          0.0000
    19 H19        2.6574   -19.9054    14.9887 H          1 BB1          0.0000
    20 H20        1.0906   -19.1587    15.3833 H          1 BB1          0.0000
    21 H21        1.6218   -20.6218    16.2468 H          1 BB1          0.0000
    22 H22       -0.9025   -19.3914    13.3971 H          1 BB1          0.0000
    23 H23        0.7682   -18.7736    10.8552 H          1 BB1          0.0000
    24 H24       -1.0401   -18.8616    11.0085 H          1 BB1          0.0000
    25 H25       -1.1059   -16.8744    12.4411 H          1 BB1          0.0000
    26 H26       -0.8422   -17.2758    14.7244 H          1 BB1          0.0000
    27 H27        0.5762   -18.0666    15.4530 H          1 BB1          0.0000
    28 H28        0.6876   -16.3813    14.8911 H          1 BB1          0.0000
    29 H29        2.5664   -16.8062    13.3727 H          1 BB1          0.0000
    30 H30        2.6713   -18.5404    13.7597 H          1 BB1          0.0000
    31 H31        2.4362   -18.0172    12.0747 H          1 BB1          0.0000
    32 H33        1.0341   -15.5274    12.0562 H          1 BB1          0.0000
    33 C2        -0.3919   -16.9343     9.0444 C.2        2 BB2          0.0000
    34 O3        -0.7231   -17.9815     8.5150 O.2        2 BB2          0.0000
    35 C4        -0.1618   -15.7049     8.2039 C.3        2 BB2          0.0000
    36 C5         0.9915   -15.8536     7.1976 C.3        2 BB2          0.0000
    37 C6         1.3768   -14.4060     7.5447 C.3        2 BB2          0.0000
    38 C7         0.6904   -14.6319     8.9021 C.3        2 BB2          0.0000
    39 C8        -0.1062   -13.4455     9.3806 C.ar       2 BB2          0.0000
    40 C9        -0.3494   -12.3867     8.5268 C.ar       2 BB2          0.0000
    41 C10       -1.0796   -11.2978     8.9651 C.ar       2 BB2          0.0000
    42 C11       -1.5683   -11.2671    10.2590 C.ar       2 BB2          0.0000
    43 Cl12      -2.4857    -9.8994    10.8081 Cl         2 BB2          0.0000
    44 C13       -1.3262   -12.3265    11.1150 C.ar       2 BB2          0.0000
    45 C14       -0.5994   -13.4191    10.6744 C.ar       2 BB2          0.0000
    46 F15       -0.3628   -14.4545    11.5093 F          2 BB2          0.0000
    47 H16       -1.0793   -15.3164     7.7621 H          2 BB2          0.0000
    48 H17        1.7396   -16.5881     7.4961 H          2 BB2          0.0000
    49 H18        0.6586   -15.9819     6.1676 H          2 BB2          0.0000
    50 H19        2.4524   -14.2466     7.6205 H          2 BB2          0.0000
    51 H20        0.8803   -13.6610     6.9229 H          2 BB2          0.0000
    52 H21        1.3560   -15.0323     9.6667 H          2 BB2          0.0000
    53 H22        0.0317   -12.4097     7.5164 H          2 BB2          0.0000
    54 H23       -1.2685   -10.4704     8.2971 H          2 BB2          0.0000
    55 H24       -1.7075   -12.3029    12.1251 H          2 BB2          0.0000
@<TRIPOS>BOND
     1      1      2 1
     2      1     13 1
     3      1     14 1
     4      1     15 1
     5      2      3 1
     6      2      4 1
     7      2      5 1
     8      3     16 1
     9      3     17 1
    10      3     18 1
    11      4     19 1
    12      4     20 1
    13      4     21 1
    14      5      6 1
    15      6      7 1
    16      6     10 1
    17      6     22 1
    18      7      8 1
    19      7     23 1
    20      7     24 1
    21      8      9 1
    22      8     10 1
    23      8     25 1
    24      9     32 1
    25     10     11 1
    26     10     12 1
    27     11     26 1
    28     11     27 1
    29     11     28 1
    30     12     29 1
    31     12     30 1
    32     12     31 1
    33     33     34 2
    34     33     35 1
    35     35     36 1
    36     35     38 1
    37     35     47 1
    38     36     37 1
    39     36     48 1
    40     36     49 1
    41     37     38 1
    42     37     50 1
    43     37     51 1
    44     38     39 1
    45     38     52 1
    46     39     40 ar
    47     39     45 ar
    48     40     41 ar
    49     40     53 1
    50     41     42 ar
    51     41     54 1
    52     42     43 1
    53     42     44 ar
    54     44     45 ar
    55     44     55 1
    56     45     46 1
    57      9     33 am
@<TRIPOS>SUBSTRUCTURE
     1 BB1           9
     2 BB2          33
@<TRIPOS>MOLECULE
EN300-193626_i001_EN300-4287209_i001_4_19_1
  47   48   2   0   0
SMALL
USER_CHARGES
@<TRIPOS>ATOM
     1 C1         1.4231   -21.9523    13.8466 C.3        1 BB1          0.0000
     2 C2         0.4347   -20.9816    13.1974 C.3        1 BB1          0.0000
     3 C3         0.2966   -21.3131    11.7102 C.3        1 BB1          0.0000
     4 C4        -0.9295   -21.1118    13.8778 C.3        1 BB1          0.0000
     5 O5         0.9147   -19.6437    13.3446 O.3        1 BB1          0.0000
     6 C6        -0.0424   -18.6412    12.9967 C.3        1 BB1          0.0000
     7 C7        -0.1046   -18.3459    11.4888 C.3        1 BB1          0.0000
     8 C8        -0.2493   -16.8620    11.8652 C.3        1 BB1          0.0000
     9 N9         0.5094   -15.9566    10.9918 N.am       1 BB1          0.0000
    10 C10        0.4768   -17.2050    13.1766 C.3        1 BB1          0.0000
    11 C11       -0.1013   -16.4933    14.4015 C.3        1 BB1          0.0000
    12 C12        1.9994   -17.0873    13.0830 C.3        1 BB1          0.0000
    13 H13        2.3951   -21.8595    13.3619 H          1 BB1          0.0000
    14 H14        1.5215   -21.7162    14.9062 H          1 BB1          0.0000
    15 H15        1.0571   -22.9729    13.7343 H          1 BB1          0.0000
    16 H16       -0.0694   -22.3336    11.5979 H          1 BB1          0.0000
    17 H17       -0.4077   -20.6215    11.2476 H          1 BB1          0.0000
    18 H18        1.2685   -21.2203    11.2254 H          1 BB1          0.0000
    19 H19       -0.8311   -20.8756    14.9373 H          1 BB1          0.0000
    20 H20       -1.6337   -20.4203    13.4152 H          1 BB1          0.0000
    21 H21       -1.2956   -22.1324    13.7655 H          1 BB1          0.0000
    22 H22       -1.0193   -18.8137    13.4485 H          1 BB1          0.0000
    23 H23        0.8212   -18.5742    10.9606 H          1 BB1          0.0000
    24 H24       -0.9858   -18.7600    10.9987 H          1 BB1          0.0000
    25 H25       -1.2829   -16.5461    12.0065 H          1 BB1          0.0000
    26 H26       -1.1893   -16.4850    14.3371 H          1 BB1          0.0000
    27 H27        0.2053   -17.0192    15.3056 H          1 BB1          0.0000
    28 H28        0.2685   -15.4683    14.4343 H          1 BB1          0.0000
    29 H29        2.2887   -16.0398    13.1663 H          1 BB1          0.0000
    30 H30        2.4581   -17.6564    13.8916 H          1 BB1          0.0000
    31 H31        2.3360   -17.4822    12.1244 H          1 BB1          0.0000
    32 H32        0.9383   -15.2330    11.5489 H          1 BB1          0.0000
    33 O1         0.8790   -15.4749     8.7555 O.2        2 BB2          0.0000
    34 C2         0.4092   -14.3881     8.4488 C.2        2 BB2          0.0000
    35 C4        -0.3178   -13.5892     9.4529 C.ar       2 BB2          0.0000
    36 C5        -1.0338   -12.4577     9.0618 C.ar       2 BB2          0.0000
    37 C6        -1.7175   -11.7097    10.0165 C.ar       2 BB2          0.0000
    38 C7        -2.4553   -10.5472     9.6230 C.1        2 BB2          0.0000
    39 C8        -3.0603    -9.5942     9.3004 C.1        2 BB2          0.0000
    40 C9        -1.6834   -12.0952    11.3586 C.ar       2 BB2          0.0000
    41 C10       -0.9732   -13.2154    11.7416 C.ar       2 BB2          0.0000
    42 C11       -0.2963   -13.9673    10.8002 C.ar       2 BB2          0.0000
    43 Cl12       0.5940   -15.3743    11.2916 Cl         2 BB2          0.0000
    44 H13       -1.0574   -12.1629     8.0230 H          2 BB2          0.0000
    45 H14       -3.6012    -8.7418     9.0118 H          2 BB2          0.0000
    46 H15       -2.2138   -11.5149    12.0990 H          2 BB2          0.0000
    47 H16       -0.9504   -13.5081    12.7809 H          2 BB2          0.0000
@<TRIPOS>BOND
     1      1      2 1
     2      1     13 1
     3      1     14 1
     4      1     15 1
     5      2      3 1
     6      2      4 1
     7      2      5 1
     8      3     16 1
     9      3     17 1
    10      3     18 1
    11      4     19 1
    12      4     20 1
    13      4     21 1
    14      5      6 1
    15      6      7 1
    16      6     10 1
    17      6     22 1
    18      7      8 1
    19      7     23 1
    20      7     24 1
    21      8      9 1
    22      8     10 1
    23      8     25 1
    24      9     32 1
    25     10     11 1
    26     10     12 1
    27     11     26 1
    28     11     27 1
    29     11     28 1
    30     12     29 1
    31     12     30 1
    32     12     31 1
    33     33     34 2
    34     34     35 1
    35     35     36 ar
    36     35     42 ar
    37     36     37 ar
    38     36     44 1
    39     37     38 1
    40     37     40 ar
    41     38     39 3
    42     39     45 1
    43     40     41 ar
    44     40     46 1
    45     41     42 ar
    46     41     47 1
    47     42     43 1
    48      9     34 am
@<TRIPOS>SUBSTRUCTURE
     1 BB1           9
     2 BB2          34
@<TRIPOS>MOLECULE
EN300-193626_i001_EN300-4287209_i001_4_3_1
  47   48   2   0   0
SMALL
USER_CHARGES
@<TRIPOS>ATOM
     1 C1         1.4231   -21.9523    13.8466 C.3        1 BB1          0.0000
     2 C2         0.4347   -20.9816    13.1974 C.3        1 BB1          0.0000
     3 C3         0.2966   -21.3131    11.7102 C.3        1 BB1          0.0000
     4 C4        -0.9295   -21.1118    13.8778 C.3        1 BB1          0.0000
     5 O5         0.9147   -19.6437    13.3446 O.3        1 BB1          0.0000
     6 C6        -0.0424   -18.6412    12.9967 C.3        1 BB1          0.0000
     7 C7        -0.1046   -18.3459    11.4888 C.3        1 BB1          0.0000
     8 C8        -0.2493   -16.8620    11.8652 C.3        1 BB1          0.0000
     9 N9         0.5094   -15.9566    10.9918 N.am       1 BB1          0.0000
    10 C10        0.4768   -17.2050    13.1766 C.3        1 BB1          0.0000
    11 C11       -0.1013   -16.4933    14.4015 C.3        1 BB1          0.0000
    12 C12        1.9994   -17.0873    13.0830 C.3        1 BB1          0.0000
    13 H13        2.3951   -21.8595    13.3619 H          1 BB1          0.0000
    14 H14        1.5215   -21.7162    14.9062 H          1 BB1          0.0000
    15 H15        1.0571   -22.9729    13.7343 H          1 BB1          0.0000
    16 H16       -0.0694   -22.3336    11.5979 H          1 BB1          0.0000
    17 H17       -0.4077   -20.6215    11.2476 H          1 BB1          0.0000
    18 H18        1.2685   -21.2203    11.2254 H          1 BB1          0.0000
    19 H19       -0.8311   -20.8756    14.9373 H          1 BB1          0.0000
    20 H20       -1.6337   -20.4203    13.4152 H          1 BB1          0.0000
    21 H21       -1.2956   -22.1324    13.7655 H          1 BB1          0.0000
    22 H22       -1.0193   -18.8137    13.4485 H          1 BB1          0.0000
    23 H23        0.8212   -18.5742    10.9606 H          1 BB1          0.0000
    24 H24       -0.9858   -18.7600    10.9987 H          1 BB1          0.0000
    25 H25       -1.2829   -16.5461    12.0065 H          1 BB1          0.0000
    26 H26       -1.1893   -16.4850    14.3371 H          1 BB1          0.0000
    27 H27        0.2053   -17.0192    15.3056 H          1 BB1          0.0000
    28 H28        0.2685   -15.4683    14.4343 H          1 BB1          0.0000
    29 H29        2.2887   -16.0398    13.1663 H          1 BB1          0.0000
    30 H30        2.4581   -17.6564    13.8916 H          1 BB1          0.0000
    31 H31        2.3360   -17.4822    12.1244 H          1 BB1          0.0000
    32 H33        1.2254   -16.4776    10.5081 H          1 BB1          0.0000
    33 C2        -0.0043   -14.5201    11.5040 C.2        2 BB2          0.0000
    34 O3        -0.5778   -14.6411    12.5774 O.2        2 BB2          0.0000
    35 C4        -0.4017   -13.4480    10.5724 C.ar       2 BB2          0.0000
    36 C5        -1.5033   -12.6425    10.8617 C.ar       2 BB2          0.0000
    37 C6        -1.8709   -11.6325     9.9767 C.ar       2 BB2          0.0000
    38 C7        -3.0001   -10.8010    10.2667 C.1        2 BB2          0.0000
    39 C8        -3.9259   -10.1193    10.5044 C.1        2 BB2          0.0000
    40 C9        -1.1364   -11.4311     8.8058 C.ar       2 BB2          0.0000
    41 C10       -0.0472   -12.2308     8.5230 C.ar       2 BB2          0.0000
    42 C11        0.3287   -13.2319     9.3982 C.ar       2 BB2          0.0000
    43 Cl12       1.6998   -14.2324     9.0338 Cl         2 BB2          0.0000
    44 H13       -2.0687   -12.8018    11.7680 H          2 BB2          0.0000
    45 H14       -4.7538    -9.5095    10.7170 H          2 BB2          0.0000
    46 H15       -1.4217   -10.6476     8.1195 H          2 BB2          0.0000
    47 H16        0.5164   -12.0702     7.6158 H          2 BB2          0.0000
@<TRIPOS>BOND
     1      1      2 1
     2      1     13 1
     3      1     14 1
     4      1     15 1
     5      2      3 1
     6      2      4 1
     7      2      5 1
     8      3     16 1
     9      3     17 1
    10      3     18 1
    11      4     19 1
    12      4     20 1
    13      4     21 1
    14      5      6 1
    15      6      7 1
    16      6     10 1
    17      6     22 1
    18      7      8 1
    19      7     23 1
    20      7     24 1
    21      8      9 1
    22      8     10 1
    23      8     25 1
    24      9     32 1
    25     10     11 1
    26     10     12 1
    27     11     26 1
    28     11     27 1
    29     11     28 1
    30     12     29 1
    31     12     30 1
    32     12     31 1
    33     33     34 2
    34     33     35 1
    35     35     36 ar
    36     35     42 ar
    37     36     37 ar
    38     36     44 1
    39     37     38 1
    40     37     40 ar
    41     38     39 3
    42     39     45 1
    43     40     41 ar
    44     40     46 1
    45     41     42 ar
    46     41     47 1
    47     42     43 1
    48      9     33 am
@<TRIPOS>SUBSTRUCTURE
     1 BB1           9
     2 BB2          33
@<TRIPOS>MOLECULE
EN300-193626_i001_EN300-19857_i001_4_19_1
  45   46   2   0   0
SMALL
USER_CHARGES
@<TRIPOS>ATOM
     1 C1         1.4231   -21.9523    13.8466 C.3        1 BB1          0.0000
     2 C2         0.4347   -20.9816    13.1974 C.3        1 BB1          0.0000
     3 C3         0.2966   -21.3131    11.7102 C.3        1 BB1          0.0000
     4 C4        -0.9295   -21.1118    13.8778 C.3        1 BB1          0.0000
     5 O5         0.9147   -19.6437    13.3446 O.3        1 BB1          0.0000
     6 C6        -0.0424   -18.6412    12.9967 C.3        1 BB1          0.0000
     7 C7        -0.1046   -18.3459    11.4888 C.3        1 BB1          0.0000
     8 C8        -0.2493   -16.8620    11.8652 C.3        1 BB1          0.0000
     9 N9         0.5094   -15.9566    10.9918 N.am       1 BB1          0.0000
    10 C10        0.4768   -17.2050    13.1766 C.3        1 BB1          0.0000
    11 C11       -0.1013   -16.4933    14.4015 C.3        1 BB1          0.0000
    12 C12        1.9994   -17.0873    13.0830 C.3        1 BB1          0.0000
    13 H13        2.3951   -21.8595    13.3619 H          1 BB1          0.0000
    14 H14        1.5215   -21.7162    14.9062 H          1 BB1          0.0000
    15 H15        1.0571   -22.9729    13.7343 H          1 BB1          0.0000
    16 H16       -0.0694   -22.3336    11.5979 H          1 BB1          0.0000
    17 H17       -0.4077   -20.6215    11.2476 H          1 BB1          0.0000
    18 H18        1.2685   -21.2203    11.2254 H          1 BB1          0.0000
    19 H19       -0.8311   -20.8756    14.9373 H          1 BB1          0.0000
    20 H20       -1.6337   -20.4203    13.4152 H          1 BB1          0.0000
    21 H21       -1.2956   -22.1324    13.7655 H          1 BB1          0.0000
    22 H22       -1.0193   -18.8137    13.4485 H          1 BB1          0.0000
    23 H23        0.8212   -18.5742    10.9606 H          1 BB1          0.0000
    24 H24       -0.9858   -18.7600    10.9987 H          1 BB1          0.0000
    25 H25       -1.2829   -16.5461    12.0065 H          1 BB1          0.0000
    26 H26       -1.1893   -16.4850    14.3371 H          1 BB1          0.0000
    27 H27        0.2053   -17.0192    15.3056 H          1 BB1          0.0000
    28 H28        0.2685   -15.4683    14.4343 H          1 BB1          0.0000
    29 H29        2.2887   -16.0398    13.1663 H          1 BB1          0.0000
    30 H30        2.4581   -17.6564    13.8916 H          1 BB1          0.0000
    31 H31        2.3360   -17.4822    12.1244 H          1 BB1          0.0000
    32 H34       -0.1145   -15.5376    10.3186 H          1 BB1          0.0000
    33 C2         0.1084   -15.2492    12.0190 C.2        2 BB2          0.0000
    34 O3        -0.1015   -15.0032    13.1984 O.2        2 BB2          0.0000
    35 C4        -0.1003   -14.2039    10.9989 C.ar       2 BB2          0.0000
    36 C5         0.6067   -14.2472     9.7949 C.ar       2 BB2          0.0000
    37 C6         0.4070   -13.2666     8.8454 C.ar       2 BB2          0.0000
    38 C7        -0.4913   -12.2416     9.0830 C.ar       2 BB2          0.0000
    39 C8        -1.1956   -12.1914    10.2743 C.ar       2 BB2          0.0000
    40 Br9       -2.4207   -10.7854    10.5877 Br         2 BB2          0.0000
    41 C10       -1.0103   -13.1691    11.2304 C.ar       2 BB2          0.0000
    42 H11        1.3085   -15.0465     9.6080 H          2 BB2          0.0000
    43 H12        0.9533   -13.2990     7.9144 H          2 BB2          0.0000
    44 H13       -0.6436   -11.4766     8.3360 H          2 BB2          0.0000
    45 H14       -1.5600   -13.1293    12.1592 H          2 BB2          0.0000
@<TRIPOS>BOND
     1      1      2 1
     2      1     13 1
     3      1     14 1
     4      1     15 1
     5      2      3 1
     6      2      4 1
     7      2      5 1
     8      3     16 1
     9      3     17 1
    10      3     18 1
    11      4     19 1
    12      4     20 1
    13      4     21 1
    14      5      6 1
    15      6      7 1
    16      6     10 1
    17      6     22 1
    18      7      8 1
    19      7     23 1
    20      7     24 1
    21      8      9 1
    22      8     10 1
    23      8     25 1
    24      9     32 1
    25     10     11 1
    26     10     12 1
    27     11     26 1
    28     11     27 1
    29     11     28 1
    30     12     29 1
    31     12     30 1
    32     12     31 1
    33     33     34 2
    34     33     35 1
    35     35     36 ar
    36     35     41 ar
    37     36     37 ar
    38     36     42 1
    39     37     38 ar
    40     37     43 1
    41     38     39 ar
    42     38     44 1
    43     39     40 1
    44     39     41 ar
    45     41     45 1
    46      9     33 am
@<TRIPOS>SUBSTRUCTURE
     1 BB1           9
     2 BB2          33
@<TRIPOS>MOLECULE
EN300-193626_i001_EN300-19857_i001_4_20_1
  45   46   2   0   0
SMALL
USER_CHARGES
@<TRIPOS>ATOM
     1 C1         1.4231   -21.9523    13.8466 C.3        1 BB1          0.0000
     2 C2         0.4347   -20.9816    13.1974 C.3        1 BB1          0.0000
     3 C3         0.2966   -21.3131    11.7102 C.3        1 BB1          0.0000
     4 C4        -0.9295   -21.1118    13.8778 C.3        1 BB1          0.0000
     5 O5         0.9147   -19.6437    13.3446 O.3        1 BB1          0.0000
     6 C6        -0.0424   -18.6412    12.9967 C.3        1 BB1          0.0000
     7 C7        -0.1046   -18.3459    11.4888 C.3        1 BB1          0.0000
     8 C8        -0.2493   -16.8620    11.8652 C.3        1 BB1          0.0000
     9 N9         0.5094   -15.9566    10.9918 N.am       1 BB1          0.0000
    10 C10        0.4768   -17.2050    13.1766 C.3        1 BB1          0.0000
    11 C11       -0.1013   -16.4933    14.4015 C.3        1 BB1          0.0000
    12 C12        1.9994   -17.0873    13.0830 C.3        1 BB1          0.0000
    13 H13        2.3951   -21.8595    13.3619 H          1 BB1          0.0000
    14 H14        1.5215   -21.7162    14.9062 H          1 BB1          0.0000
    15 H15        1.0571   -22.9729    13.7343 H          1 BB1          0.0000
    16 H16       -0.0694   -22.3336    11.5979 H          1 BB1          0.0000
    17 H17       -0.4077   -20.6215    11.2476 H          1 BB1          0.0000
    18 H18        1.2685   -21.2203    11.2254 H          1 BB1          0.0000
    19 H19       -0.8311   -20.8756    14.9373 H          1 BB1          0.0000
    20 H20       -1.6337   -20.4203    13.4152 H          1 BB1          0.0000
    21 H21       -1.2956   -22.1324    13.7655 H          1 BB1          0.0000
    22 H22       -1.0193   -18.8137    13.4485 H          1 BB1          0.0000
    23 H23        0.8212   -18.5742    10.9606 H          1 BB1          0.0000
    24 H24       -0.9858   -18.7600    10.9987 H          1 BB1          0.0000
    25 H25       -1.2829   -16.5461    12.0065 H          1 BB1          0.0000
    26 H26       -1.1893   -16.4850    14.3371 H          1 BB1          0.0000
    27 H27        0.2053   -17.0192    15.3056 H          1 BB1          0.0000
    28 H28        0.2685   -15.4683    14.4343 H          1 BB1          0.0000
    29 H29        2.2887   -16.0398    13.1663 H          1 BB1          0.0000
    30 H30        2.4581   -17.6564    13.8916 H          1 BB1          0.0000
    31 H31        2.3360   -17.4822    12.1244 H          1 BB1          0.0000
    32 H33        1.2254   -16.4776    10.5081 H          1 BB1          0.0000
    33 O1        -0.6801   -14.7334    12.2748 O.2        2 BB2          0.0000
    34 C2        -0.0612   -14.3703    11.2846 C.2        2 BB2          0.0000
    35 C4        -0.4899   -13.1665    10.5471 C.ar       2 BB2          0.0000
    36 C5         0.2870   -12.6738     9.4958 C.ar       2 BB2          0.0000
    37 C6        -0.1195   -11.5478     8.8104 C.ar       2 BB2          0.0000
    38 C7        -1.2938   -10.9062     9.1618 C.ar       2 BB2          0.0000
    39 C8        -2.0692   -11.3882    10.2031 C.ar       2 BB2          0.0000
    40 Br9       -3.6723   -10.5028    10.6742 Br         2 BB2          0.0000
    41 C10       -1.6778   -12.5173    10.8933 C.ar       2 BB2          0.0000
    42 H11        1.2041   -13.1732     9.2205 H          2 BB2          0.0000
    43 H12        0.4805   -11.1659     7.9978 H          2 BB2          0.0000
    44 H13       -1.6071   -10.0250     8.6216 H          2 BB2          0.0000
    45 H14       -2.2830   -12.8926    11.7053 H          2 BB2          0.0000
@<TRIPOS>BOND
     1      1      2 1
     2      1     13 1
     3      1     14 1
     4      1     15 1
     5      2      3 1
     6      2      4 1
     7      2      5 1
     8      3     16 1
     9      3     17 1
    10      3     18 1
    11      4     19 1
    12      4     20 1
    13      4     21 1
    14      5      6 1
    15      6      7 1
    16      6     10 1
    17      6     22 1
    18      7      8 1
    19      7     23 1
    20      7     24 1
    21      8      9 1
    22      8     10 1
    23      8     25 1
    24      9     32 1
    25     10     11 1
    26     10     12 1
    27     11     26 1
    28     11     27 1
    29     11     28 1
    30     12     29 1
    31     12     30 1
    32     12     31 1
    33     33     34 2
    34     34     35 1
    35     35     36 ar
    36     35     41 ar
    37     36     37 ar
    38     36     42 1
    39     37     38 ar
    40     37     43 1
    41     38     39 ar
    42     38     44 1
    43     39     40 1
    44     39     41 ar
    45     41     45 1
    46      9     34 am
@<TRIPOS>SUBSTRUCTURE
     1 BB1           9
     2 BB2          34
@<TRIPOS>MOLECULE
EN300-193626_i001_EN300-222254_i002_4_7_1
  55   57   2   0   0
SMALL
USER_CHARGES
@<TRIPOS>ATOM
     1 C1         1.4231   -21.9523    13.8466 C.3        1 BB1          0.0000
     2 C2         0.4347   -20.9816    13.1974 C.3        1 BB1          0.0000
     3 C3         0.2966   -21.3131    11.7102 C.3        1 BB1          0.0000
     4 C4        -0.9295   -21.1118    13.8778 C.3        1 BB1          0.0000
     5 O5         0.9147   -19.6437    13.3446 O.3        1 BB1          0.0000
     6 C6        -0.0424   -18.6412    12.9967 C.3        1 BB1          0.0000
     7 C7        -0.1046   -18.3459    11.4888 C.3        1 BB1          0.0000
     8 C8        -0.2493   -16.8620    11.8652 C.3        1 BB1          0.0000
     9 N9         0.5094   -15.9566    10.9918 N.am       1 BB1          0.0000
    10 C10        0.4768   -17.2050    13.1766 C.3        1 BB1          0.0000
    11 C11       -0.1013   -16.4933    14.4015 C.3        1 BB1          0.0000
    12 C12        1.9994   -17.0873    13.0830 C.3        1 BB1          0.0000
    13 H13        2.3951   -21.8595    13.3619 H          1 BB1          0.0000
    14 H14        1.5215   -21.7162    14.9062 H          1 BB1          0.0000
    15 H15        1.0571   -22.9729    13.7343 H          1 BB1          0.0000
    16 H16       -0.0694   -22.3336    11.5979 H          1 BB1          0.0000
    17 H17       -0.4077   -20.6215    11.2476 H          1 BB1          0.0000
    18 H18        1.2685   -21.2203    11.2254 H          1 BB1          0.0000
    19 H19       -0.8311   -20.8756    14.9373 H          1 BB1          0.0000
    20 H20       -1.6337   -20.4203    13.4152 H          1 BB1          0.0000
    21 H21       -1.2956   -22.1324    13.7655 H          1 BB1          0.0000
    22 H22       -1.0193   -18.8137    13.4485 H          1 BB1          0.0000
    23 H23        0.8212   -18.5742    10.9606 H          1 BB1          0.0000
    24 H24       -0.9858   -18.7600    10.9987 H          1 BB1          0.0000
    25 H25       -1.2829   -16.5461    12.0065 H          1 BB1          0.0000
    26 H26       -1.1893   -16.4850    14.3371 H          1 BB1          0.0000
    27 H27        0.2053   -17.0192    15.3056 H          1 BB1          0.0000
    28 H28        0.2685   -15.4683    14.4343 H          1 BB1          0.0000
    29 H29        2.2887   -16.0398    13.1663 H          1 BB1          0.0000
    30 H30        2.4581   -17.6564    13.8916 H          1 BB1          0.0000
    31 H31        2.3360   -17.4822    12.1244 H          1 BB1          0.0000
    32 H33        1.2254   -16.4776    10.5081 H          1 BB1          0.0000
    33 C2         0.0691   -14.5794    11.3943 C.2        2 BB2          0.0000
    34 O3        -0.6133   -14.3621    12.3811 O.2        2 BB2          0.0000
    35 C4        -0.3286   -14.0010    10.0609 C.3        2 BB2          0.0000
    36 C5         0.7881   -14.0614     9.0053 C.3        2 BB2          0.0000
    37 C6         0.3404   -12.6575     8.5654 C.3        2 BB2          0.0000
    38 C7        -0.2035   -12.4698     9.9915 C.3        2 BB2          0.0000
    39 C8        -1.5280   -11.7529    10.0428 C.ar       2 BB2          0.0000
    40 C9        -2.6243   -12.2791     9.3866 C.ar       2 BB2          0.0000
    41 C10       -3.8397   -11.6218     9.4328 C.ar       2 BB2          0.0000
    42 C11       -3.9599   -10.4369    10.1366 C.ar       2 BB2          0.0000
    43 Cl12      -5.4867    -9.6127    10.1944 Cl         2 BB2          0.0000
    44 C13       -2.8635    -9.9090    10.7946 C.ar       2 BB2          0.0000
    45 C14       -1.6479   -10.5698    10.7526 C.ar       2 BB2          0.0000
    46 F15       -0.5765   -10.0555    11.3951 F          2 BB2          0.0000
    47 H16       -1.2870   -14.3786     9.7046 H          2 BB2          0.0000
    48 H17        1.7910   -14.0862     9.4316 H          2 BB2          0.0000
    49 H18        0.6306   -14.8277     8.2463 H          2 BB2          0.0000
    50 H19        1.1683   -11.9913     8.3226 H          2 BB2          0.0000
    51 H20       -0.4354   -12.6666     7.7998 H          2 BB2          0.0000
    52 H21        0.5283   -12.0595    10.6874 H          2 BB2          0.0000
    53 H22       -2.5316   -13.2041     8.8369 H          2 BB2          0.0000
    54 H23       -4.6958   -12.0336     8.9190 H          2 BB2          0.0000
    55 H24       -2.9569    -8.9840    11.3440 H          2 BB2          0.0000
@<TRIPOS>BOND
     1      1      2 1
     2      1     13 1
     3      1     14 1
     4      1     15 1
     5      2      3 1
     6      2      4 1
     7      2      5 1
     8      3     16 1
     9      3     17 1
    10      3     18 1
    11      4     19 1
    12      4     20 1
    13      4     21 1
    14      5      6 1
    15      6      7 1
    16      6     10 1
    17      6     22 1
    18      7      8 1
    19      7     23 1
    20      7     24 1
    21      8      9 1
    22      8     10 1
    23      8     25 1
    24      9     32 1
    25     10     11 1
    26     10     12 1
    27     11     26 1
    28     11     27 1
    29     11     28 1
    30     12     29 1
    31     12     30 1
    32     12     31 1
    33     33     34 2
    34     33     35 1
    35     35     36 1
    36     35     38 1
    37     35     47 1
    38     36     37 1
    39     36     48 1
    40     36     49 1
    41     37     38 1
    42     37     50 1
    43     37     51 1
    44     38     39 1
    45     38     52 1
    46     39     40 ar
    47     39     45 ar
    48     40     41 ar
    49     40     53 1
    50     41     42 ar
    51     41     54 1
    52     42     43 1
    53     42     44 ar
    54     44     45 ar
    55     44     55 1
    56     45     46 1
    57      9     33 am
@<TRIPOS>SUBSTRUCTURE
     1 BB1           9
     2 BB2          33
@<TRIPOS>MOLECULE
EN300-193626_i001_EN300-222254_i002_4_9_1
  55   57   2   0   0
SMALL
USER_CHARGES
@<TRIPOS>ATOM
     1 C1         1.4231   -21.9523    13.8466 C.3        1 BB1          0.0000
     2 C2         0.4347   -20.9816    13.1974 C.3        1 BB1          0.0000
     3 C3         0.2966   -21.3131    11.7102 C.3        1 BB1          0.0000
     4 C4        -0.9295   -21.1118    13.8778 C.3        1 BB1          0.0000
     5 O5         0.9147   -19.6437    13.3446 O.3        1 BB1          0.0000
     6 C6        -0.0424   -18.6412    12.9967 C.3        1 BB1          0.0000
     7 C7        -0.1046   -18.3459    11.4888 C.3        1 BB1          0.0000
     8 C8        -0.2493   -16.8620    11.8652 C.3        1 BB1          0.0000
     9 N9         0.5094   -15.9566    10.9918 N.am       1 BB1          0.0000
    10 C10        0.4768   -17.2050    13.1766 C.3        1 BB1          0.0000
    11 C11       -0.1013   -16.4933    14.4015 C.3        1 BB1          0.0000
    12 C12        1.9994   -17.0873    13.0830 C.3        1 BB1          0.0000
    13 H13        2.3951   -21.8595    13.3619 H          1 BB1          0.0000
    14 H14        1.5215   -21.7162    14.9062 H          1 BB1          0.0000
    15 H15        1.0571   -22.9729    13.7343 H          1 BB1          0.0000
    16 H16       -0.0694   -22.3336    11.5979 H          1 BB1          0.0000
    17 H17       -0.4077   -20.6215    11.2476 H          1 BB1          0.0000
    18 H18        1.2685   -21.2203    11.2254 H          1 BB1          0.0000
    19 H19       -0.8311   -20.8756    14.9373 H          1 BB1          0.0000
    20 H20       -1.6337   -20.4203    13.4152 H          1 BB1          0.0000
    21 H21       -1.2956   -22.1324    13.7655 H          1 BB1          0.0000
    22 H22       -1.0193   -18.8137    13.4485 H          1 BB1          0.0000
    23 H23        0.8212   -18.5742    10.9606 H          1 BB1          0.0000
    24 H24       -0.9858   -18.7600    10.9987 H          1 BB1          0.0000
    25 H25       -1.2829   -16.5461    12.0065 H          1 BB1          0.0000
    26 H26       -1.1893   -16.4850    14.3371 H          1 BB1          0.0000
    27 H27        0.2053   -17.0192    15.3056 H          1 BB1          0.0000
    28 H28        0.2685   -15.4683    14.4343 H          1 BB1          0.0000
    29 H29        2.2887   -16.0398    13.1663 H          1 BB1          0.0000
    30 H30        2.4581   -17.6564    13.8916 H          1 BB1          0.0000
    31 H31        2.3360   -17.4822    12.1244 H          1 BB1          0.0000
    32 H32        0.9383   -15.2330    11.5489 H          1 BB1          0.0000
    33 C2        -0.3919   -16.9343     9.0444 C.2        2 BB2          0.0000
    34 O3        -0.7231   -17.9815     8.5150 O.2        2 BB2          0.0000
    35 C4        -0.1618   -15.7049     8.2039 C.3        2 BB2          0.0000
    36 C5         0.9915   -15.8536     7.1976 C.3        2 BB2          0.0000
    37 C6         1.3768   -14.4060     7.5447 C.3        2 BB2          0.0000
    38 C7         0.6904   -14.6319     8.9021 C.3        2 BB2          0.0000
    39 C8        -0.1062   -13.4455     9.3806 C.ar       2 BB2          0.0000
    40 C9        -0.3494   -12.3867     8.5268 C.ar       2 BB2          0.0000
    41 C10       -1.0796   -11.2978     8.9651 C.ar       2 BB2          0.0000
    42 C11       -1.5683   -11.2671    10.2590 C.ar       2 BB2          0.0000
    43 Cl12      -2.4857    -9.8994    10.8081 Cl         2 BB2          0.0000
    44 C13       -1.3262   -12.3265    11.1150 C.ar       2 BB2          0.0000
    45 C14       -0.5994   -13.4191    10.6744 C.ar       2 BB2          0.0000
    46 F15       -0.3628   -14.4545    11.5093 F          2 BB2          0.0000
    47 H16       -1.0793   -15.3164     7.7621 H          2 BB2          0.0000
    48 H17        1.7396   -16.5881     7.4961 H          2 BB2          0.0000
    49 H18        0.6586   -15.9819     6.1676 H          2 BB2          0.0000
    50 H19        2.4524   -14.2466     7.6205 H          2 BB2          0.0000
    51 H20        0.8803   -13.6610     6.9229 H          2 BB2          0.0000
    52 H21        1.3560   -15.0323     9.6667 H          2 BB2          0.0000
    53 H22        0.0317   -12.4097     7.5164 H          2 BB2          0.0000
    54 H23       -1.2685   -10.4704     8.2971 H          2 BB2          0.0000
    55 H24       -1.7075   -12.3029    12.1251 H          2 BB2          0.0000
@<TRIPOS>BOND
     1      1      2 1
     2      1     13 1
     3      1     14 1
     4      1     15 1
     5      2      3 1
     6      2      4 1
     7      2      5 1
     8      3     16 1
     9      3     17 1
    10      3     18 1
    11      4     19 1
    12      4     20 1
    13      4     21 1
    14      5      6 1
    15      6      7 1
    16      6     10 1
    17      6     22 1
    18      7      8 1
    19      7     23 1
    20      7     24 1
    21      8      9 1
    22      8     10 1
    23      8     25 1
    24      9     32 1
    25     10     11 1
    26     10     12 1
    27     11     26 1
    28     11     27 1
    29     11     28 1
    30     12     29 1
    31     12     30 1
    32     12     31 1
    33     33     34 2
    34     33     35 1
    35     35     36 1
    36     35     38 1
    37     35     47 1
    38     36     37 1
    39     36     48 1
    40     36     49 1
    41     37     38 1
    42     37     50 1
    43     37     51 1
    44     38     39 1
    45     38     52 1
    46     39     40 ar
    47     39     45 ar
    48     40     41 ar
    49     40     53 1
    50     41     42 ar
    51     41     54 1
    52     42     43 1
    53     42     44 ar
    54     44     45 ar
    55     44     55 1
    56     45     46 1
    57      9     33 am
@<TRIPOS>SUBSTRUCTURE
     1 BB1           9
     2 BB2          33
@<TRIPOS>MOLECULE
EN300-193626_i001_EN300-306118_i001_4_10_1
  54   56   2   0   0
SMALL
USER_CHARGES
@<TRIPOS>ATOM
     1 C1         1.4231   -21.9523    13.8466 C.3        1 BB1          0.0000
     2 C2         0.4347   -20.9816    13.1974 C.3        1 BB1          0.0000
     3 C3         0.2966   -21.3131    11.7102 C.3        1 BB1          0.0000
     4 C4        -0.9295   -21.1118    13.8778 C.3        1 BB1          0.0000
     5 O5         0.9147   -19.6437    13.3446 O.3        1 BB1          0.0000
     6 C6        -0.0424   -18.6412    12.9967 C.3        1 BB1          0.0000
     7 C7        -0.1046   -18.3459    11.4888 C.3        1 BB1          0.0000
     8 C8        -0.2493   -16.8620    11.8652 C.3        1 BB1          0.0000
     9 N9         0.5094   -15.9566    10.9918 N.am       1 BB1          0.0000
    10 C10        0.4768   -17.2050    13.1766 C.3        1 BB1          0.0000
    11 C11       -0.1013   -16.4933    14.4015 C.3        1 BB1          0.0000
    12 C12        1.9994   -17.0873    13.0830 C.3        1 BB1          0.0000
    13 H13        2.3951   -21.8595    13.3619 H          1 BB1          0.0000
    14 H14        1.5215   -21.7162    14.9062 H          1 BB1          0.0000
    15 H15        1.0571   -22.9729    13.7343 H          1 BB1          0.0000
    16 H16       -0.0694   -22.3336    11.5979 H          1 BB1          0.0000
    17 H17       -0.4077   -20.6215    11.2476 H          1 BB1          0.0000
    18 H18        1.2685   -21.2203    11.2254 H          1 BB1          0.0000
    19 H19       -0.8311   -20.8756    14.9373 H          1 BB1          0.0000
    20 H20       -1.6337   -20.4203    13.4152 H          1 BB1          0.0000
    21 H21       -1.2956   -22.1324    13.7655 H          1 BB1          0.0000
    22 H22       -1.0193   -18.8137    13.4485 H          1 BB1          0.0000
    23 H23        0.8212   -18.5742    10.9606 H          1 BB1          0.0000
    24 H24       -0.9858   -18.7600    10.9987 H          1 BB1          0.0000
    25 H25       -1.2829   -16.5461    12.0065 H          1 BB1          0.0000
    26 H26       -1.1893   -16.4850    14.3371 H          1 BB1          0.0000
    27 H27        0.2053   -17.0192    15.3056 H          1 BB1          0.0000
    28 H28        0.2685   -15.4683    14.4343 H          1 BB1          0.0000
    29 H29        2.2887   -16.0398    13.1663 H          1 BB1          0.0000
    30 H30        2.4581   -17.6564    13.8916 H          1 BB1          0.0000
    31 H31        2.3360   -17.4822    12.1244 H          1 BB1          0.0000
    32 H33        1.2254   -16.4776    10.5081 H          1 BB1          0.0000
    33 O1        -0.6922   -13.8017    11.4451 O.2        2 BB2          0.0000
    34 C2         0.1195   -14.4038    10.7566 C.2        2 BB2          0.0000
    35 C4         0.4114   -13.9416     9.3863 C.ar       2 BB2          0.0000
    36 C5         0.5717   -14.8674     8.3525 C.ar       2 BB2          0.0000
    37 C6         0.8445   -14.4280     7.0737 C.ar       2 BB2          0.0000
    38 C7         0.9599   -13.0739     6.8139 C.ar       2 BB2          0.0000
    39 C8         0.8024   -12.1509     7.8331 C.ar       2 BB2          0.0000
    40 C9         0.5231   -12.5754     9.1151 C.ar       2 BB2          0.0000
    41 C10        0.3514   -11.5687    10.2234 C.3        2 BB2          0.0000
    42 N11       -1.0436   -11.1231    10.2665 N.pl3      2 BB2          0.0000
    43 C12       -1.4690    -9.8410    10.1885 C.2        2 BB2          0.0000
    44 C13       -2.8194    -9.8863    10.2682 C.2        2 BB2          0.0000
    45 N14       -3.1497   -11.1769    10.3896 N.2        2 BB2          0.0000
    46 N15       -2.0753   -11.8843    10.3797 N.2        2 BB2          0.0000
    47 H16        0.4826   -15.9247     8.5541 H          2 BB2          0.0000
    48 H17        0.9688   -15.1425     6.2735 H          2 BB2          0.0000
    49 H18        1.1744   -12.7356     5.8108 H          2 BB2          0.0000
    50 H19        0.8941   -11.0955     7.6231 H          2 BB2          0.0000
    51 H20        0.6156   -12.0283    11.1758 H          2 BB2          0.0000
    52 H21        1.0008   -10.7127    10.0405 H          2 BB2          0.0000
    53 H22       -0.8546    -8.9590    10.0839 H          2 BB2          0.0000
    54 H23       -3.4970    -9.0458    10.2398 H          2 BB2          0.0000
@<TRIPOS>BOND
     1      1      2 1
     2      1     13 1
     3      1     14 1
     4      1     15 1
     5      2      3 1
     6      2      4 1
     7      2      5 1
     8      3     16 1
     9      3     17 1
    10      3     18 1
    11      4     19 1
    12      4     20 1
    13      4     21 1
    14      5      6 1
    15      6      7 1
    16      6     10 1
    17      6     22 1
    18      7      8 1
    19      7     23 1
    20      7     24 1
    21      8      9 1
    22      8     10 1
    23      8     25 1
    24      9     32 1
    25     10     11 1
    26     10     12 1
    27     11     26 1
    28     11     27 1
    29     11     28 1
    30     12     29 1
    31     12     30 1
    32     12     31 1
    33     33     34 2
    34     34     35 1
    35     35     36 ar
    36     35     40 ar
    37     36     37 ar
    38     36     47 1
    39     37     38 ar
    40     37     48 1
    41     38     39 ar
    42     38     49 1
    43     39     40 ar
    44     39     50 1
    45     40     41 1
    46     41     42 1
    47     41     51 1
    48     41     52 1
    49     42     43 1
    50     42     46 1
    51     43     44 2
    52     43     53 1
    53     44     45 1
    54     44     54 1
    55     45     46 2
    56      9     34 am
@<TRIPOS>SUBSTRUCTURE
     1 BB1           9
     2 BB2          34
@<TRIPOS>MOLECULE
EN300-193626_i001_EN300-306118_i001_4_13_1
  54   56   2   0   0
SMALL
USER_CHARGES
@<TRIPOS>ATOM
     1 C1         1.4231   -21.9523    13.8466 C.3        1 BB1          0.0000
     2 C2         0.4347   -20.9816    13.1974 C.3        1 BB1          0.0000
     3 C3         0.2966   -21.3131    11.7102 C.3        1 BB1          0.0000
     4 C4        -0.9295   -21.1118    13.8778 C.3        1 BB1          0.0000
     5 O5         0.9147   -19.6437    13.3446 O.3        1 BB1          0.0000
     6 C6        -0.0424   -18.6412    12.9967 C.3        1 BB1          0.0000
     7 C7        -0.1046   -18.3459    11.4888 C.3        1 BB1          0.0000
     8 C8        -0.2493   -16.8620    11.8652 C.3        1 BB1          0.0000
     9 N9         0.5094   -15.9566    10.9918 N.am       1 BB1          0.0000
    10 C10        0.4768   -17.2050    13.1766 C.3        1 BB1          0.0000
    11 C11       -0.1013   -16.4933    14.4015 C.3        1 BB1          0.0000
    12 C12        1.9994   -17.0873    13.0830 C.3        1 BB1          0.0000
    13 H13        2.3951   -21.8595    13.3619 H          1 BB1          0.0000
    14 H14        1.5215   -21.7162    14.9062 H          1 BB1          0.0000
    15 H15        1.0571   -22.9729    13.7343 H          1 BB1          0.0000
    16 H16       -0.0694   -22.3336    11.5979 H          1 BB1          0.0000
    17 H17       -0.4077   -20.6215    11.2476 H          1 BB1          0.0000
    18 H18        1.2685   -21.2203    11.2254 H          1 BB1          0.0000
    19 H19       -0.8311   -20.8756    14.9373 H          1 BB1          0.0000
    20 H20       -1.6337   -20.4203    13.4152 H          1 BB1          0.0000
    21 H21       -1.2956   -22.1324    13.7655 H          1 BB1          0.0000
    22 H22       -1.0193   -18.8137    13.4485 H          1 BB1          0.0000
    23 H23        0.8212   -18.5742    10.9606 H          1 BB1          0.0000
    24 H24       -0.9858   -18.7600    10.9987 H          1 BB1          0.0000
    25 H25       -1.2829   -16.5461    12.0065 H          1 BB1          0.0000
    26 H26       -1.1893   -16.4850    14.3371 H          1 BB1          0.0000
    27 H27        0.2053   -17.0192    15.3056 H          1 BB1          0.0000
    28 H28        0.2685   -15.4683    14.4343 H          1 BB1          0.0000
    29 H29        2.2887   -16.0398    13.1663 H          1 BB1          0.0000
    30 H30        2.4581   -17.6564    13.8916 H          1 BB1          0.0000
    31 H31        2.3360   -17.4822    12.1244 H          1 BB1          0.0000
    32 H34       -0.1145   -15.5376    10.3186 H          1 BB1          0.0000
    33 C2        -0.2542   -14.4147    11.0220 C.2        2 BB2          0.0000
    34 O3        -0.3346   -13.9939    12.1675 O.2        2 BB2          0.0000
    35 C4        -0.0888   -13.4717     9.8995 C.ar       2 BB2          0.0000
    36 C5         0.7755   -13.7793     8.8460 C.ar       2 BB2          0.0000
    37 C6         0.9252   -12.8927     7.7999 C.ar       2 BB2          0.0000
    38 C7         0.2221   -11.7011     7.7926 C.ar       2 BB2          0.0000
    39 C8        -0.6359   -11.3897     8.8329 C.ar       2 BB2          0.0000
    40 C9        -0.8003   -12.2692     9.8823 C.ar       2 BB2          0.0000
    41 C10       -1.7356   -11.9285    11.0138 C.3        2 BB2          0.0000
    42 N11       -2.8881   -11.1914    10.4898 N.pl3      2 BB2          0.0000
    43 C12       -3.9824   -11.7380     9.9113 C.2        2 BB2          0.0000
    44 C13       -4.7891   -10.7036     9.5780 C.2        2 BB2          0.0000
    45 N14       -4.1572    -9.5894     9.9637 N.2        2 BB2          0.0000
    46 N15       -3.0361    -9.9129    10.5053 N.2        2 BB2          0.0000
    47 H16        1.3254   -14.7088     8.8509 H          2 BB2          0.0000
    48 H17        1.5931   -13.1291     6.9848 H          2 BB2          0.0000
    49 H18        0.3438   -11.0104     6.9712 H          2 BB2          0.0000
    50 H19       -1.1813   -10.4576     8.8207 H          2 BB2          0.0000
    51 H20       -2.0780   -12.8466    11.4912 H          2 BB2          0.0000
    52 H21       -1.2121   -11.3124    11.7448 H          2 BB2          0.0000
    53 H22       -4.1735   -12.7883     9.7481 H          2 BB2          0.0000
    54 H23       -5.7532   -10.7654     9.0952 H          2 BB2          0.0000
@<TRIPOS>BOND
     1      1      2 1
     2      1     13 1
     3      1     14 1
     4      1     15 1
     5      2      3 1
     6      2      4 1
     7      2      5 1
     8      3     16 1
     9      3     17 1
    10      3     18 1
    11      4     19 1
    12      4     20 1
    13      4     21 1
    14      5      6 1
    15      6      7 1
    16      6     10 1
    17      6     22 1
    18      7      8 1
    19      7     23 1
    20      7     24 1
    21      8      9 1
    22      8     10 1
    23      8     25 1
    24      9     32 1
    25     10     11 1
    26     10     12 1
    27     11     26 1
    28     11     27 1
    29     11     28 1
    30     12     29 1
    31     12     30 1
    32     12     31 1
    33     33     34 2
    34     33     35 1
    35     35     36 ar
    36     35     40 ar
    37     36     37 ar
    38     36     47 1
    39     37     38 ar
    40     37     48 1
    41     38     39 ar
    42     38     49 1
    43     39     40 ar
    44     39     50 1
    45     40     41 1
    46     41     42 1
    47     41     51 1
    48     41     52 1
    49     42     43 1
    50     42     46 1
    51     43     44 2
    52     43     53 1
    53     44     45 1
    54     44     54 1
    55     45     46 2
    56      9     33 am
@<TRIPOS>SUBSTRUCTURE
     1 BB1           9
     2 BB2          33
@<TRIPOS>MOLECULE
EN300-193626_i001_EN300-306118_i001_4_2_1
  54   56   2   0   0
SMALL
USER_CHARGES
@<TRIPOS>ATOM
     1 C1         1.4231   -21.9523    13.8466 C.3        1 BB1          0.0000
     2 C2         0.4347   -20.9816    13.1974 C.3        1 BB1          0.0000
     3 C3         0.2966   -21.3131    11.7102 C.3        1 BB1          0.0000
     4 C4        -0.9295   -21.1118    13.8778 C.3        1 BB1          0.0000
     5 O5         0.9147   -19.6437    13.3446 O.3        1 BB1          0.0000
     6 C6        -0.0424   -18.6412    12.9967 C.3        1 BB1          0.0000
     7 C7        -0.1046   -18.3459    11.4888 C.3        1 BB1          0.0000
     8 C8        -0.2493   -16.8620    11.8652 C.3        1 BB1          0.0000
     9 N9         0.5094   -15.9566    10.9918 N.am       1 BB1          0.0000
    10 C10        0.4768   -17.2050    13.1766 C.3        1 BB1          0.0000
    11 C11       -0.1013   -16.4933    14.4015 C.3        1 BB1          0.0000
    12 C12        1.9994   -17.0873    13.0830 C.3        1 BB1          0.0000
    13 H13        2.3951   -21.8595    13.3619 H          1 BB1          0.0000
    14 H14        1.5215   -21.7162    14.9062 H          1 BB1          0.0000
    15 H15        1.0571   -22.9729    13.7343 H          1 BB1          0.0000
    16 H16       -0.0694   -22.3336    11.5979 H          1 BB1          0.0000
    17 H17       -0.4077   -20.6215    11.2476 H          1 BB1          0.0000
    18 H18        1.2685   -21.2203    11.2254 H          1 BB1          0.0000
    19 H19       -0.8311   -20.8756    14.9373 H          1 BB1          0.0000
    20 H20       -1.6337   -20.4203    13.4152 H          1 BB1          0.0000
    21 H21       -1.2956   -22.1324    13.7655 H          1 BB1          0.0000
    22 H22       -1.0193   -18.8137    13.4485 H          1 BB1          0.0000
    23 H23        0.8212   -18.5742    10.9606 H          1 BB1          0.0000
    24 H24       -0.9858   -18.7600    10.9987 H          1 BB1          0.0000
    25 H25       -1.2829   -16.5461    12.0065 H          1 BB1          0.0000
    26 H26       -1.1893   -16.4850    14.3371 H          1 BB1          0.0000
    27 H27        0.2053   -17.0192    15.3056 H          1 BB1          0.0000
    28 H28        0.2685   -15.4683    14.4343 H          1 BB1          0.0000
    29 H29        2.2887   -16.0398    13.1663 H          1 BB1          0.0000
    30 H30        2.4581   -17.6564    13.8916 H          1 BB1          0.0000
    31 H31        2.3360   -17.4822    12.1244 H          1 BB1          0.0000
    32 H33        1.2254   -16.4776    10.5081 H          1 BB1          0.0000
    33 O1        -0.3996   -15.0968    11.7939 O.2        2 BB2          0.0000
    34 C2         0.6326   -14.8679    11.1794 C.2        2 BB2          0.0000
    35 C4         0.5817   -14.1401     9.8971 C.ar       2 BB2          0.0000
    36 C5         1.3893   -14.5408     8.8300 C.ar       2 BB2          0.0000
    37 C6         1.3364   -13.8555     7.6340 C.ar       2 BB2          0.0000
    38 C7         0.4864   -12.7733     7.4900 C.ar       2 BB2          0.0000
    39 C8        -0.3166   -12.3706     8.5429 C.ar       2 BB2          0.0000
    40 C9        -0.2789   -13.0501     9.7423 C.ar       2 BB2          0.0000
    41 C10       -1.1546   -12.6104    10.8873 C.3        2 BB2          0.0000
    42 N11       -2.0673   -11.5601    10.4288 N.pl3      2 BB2          0.0000
    43 C12       -1.7295   -10.2775    10.1613 C.2        2 BB2          0.0000
    44 C13       -2.8693    -9.6610     9.7705 C.2        2 BB2          0.0000
    45 N14       -3.8360   -10.5845     9.8175 N.2        2 BB2          0.0000
    46 N15       -3.3272   -11.7003    10.2060 N.2        2 BB2          0.0000
    47 H16        2.0538   -15.3849     8.9414 H          2 BB2          0.0000
    48 H17        1.9603   -14.1641     6.8083 H          2 BB2          0.0000
    49 H18        0.4497   -12.2400     6.5515 H          2 BB2          0.0000
    50 H19       -0.9775   -11.5248     8.4234 H          2 BB2          0.0000
    51 H20       -1.7320   -13.4605    11.2504 H          2 BB2          0.0000
    52 H21       -0.5313   -12.2235    11.6935 H          2 BB2          0.0000
    53 H22       -0.7479    -9.8347    10.2433 H          2 BB2          0.0000
    54 H23       -2.9773    -8.6269     9.4786 H          2 BB2          0.0000
@<TRIPOS>BOND
     1      1      2 1
     2      1     13 1
     3      1     14 1
     4      1     15 1
     5      2      3 1
     6      2      4 1
     7      2      5 1
     8      3     16 1
     9      3     17 1
    10      3     18 1
    11      4     19 1
    12      4     20 1
    13      4     21 1
    14      5      6 1
    15      6      7 1
    16      6     10 1
    17      6     22 1
    18      7      8 1
    19      7     23 1
    20      7     24 1
    21      8      9 1
    22      8     10 1
    23      8     25 1
    24      9     32 1
    25     10     11 1
    26     10     12 1
    27     11     26 1
    28     11     27 1
    29     11     28 1
    30     12     29 1
    31     12     30 1
    32     12     31 1
    33     33     34 2
    34     34     35 1
    35     35     36 ar
    36     35     40 ar
    37     36     37 ar
    38     36     47 1
    39     37     38 ar
    40     37     48 1
    41     38     39 ar
    42     38     49 1
    43     39     40 ar
    44     39     50 1
    45     40     41 1
    46     41     42 1
    47     41     51 1
    48     41     52 1
    49     42     43 1
    50     42     46 1
    51     43     44 2
    52     43     53 1
    53     44     45 1
    54     44     54 1
    55     45     46 2
    56      9     34 am
@<TRIPOS>SUBSTRUCTURE
     1 BB1           9
     2 BB2          34
@<TRIPOS>MOLECULE
EN300-193626_i001_EN300-306118_i001_4_4_1
  54   56   2   0   0
SMALL
USER_CHARGES
@<TRIPOS>ATOM
     1 C1         1.4231   -21.9523    13.8466 C.3        1 BB1          0.0000
     2 C2         0.4347   -20.9816    13.1974 C.3        1 BB1          0.0000
     3 C3         0.2966   -21.3131    11.7102 C.3        1 BB1          0.0000
     4 C4        -0.9295   -21.1118    13.8778 C.3        1 BB1          0.0000
     5 O5         0.9147   -19.6437    13.3446 O.3        1 BB1          0.0000
     6 C6        -0.0424   -18.6412    12.9967 C.3        1 BB1          0.0000
     7 C7        -0.1046   -18.3459    11.4888 C.3        1 BB1          0.0000
     8 C8        -0.2493   -16.8620    11.8652 C.3        1 BB1          0.0000
     9 N9         0.5094   -15.9566    10.9918 N.am       1 BB1          0.0000
    10 C10        0.4768   -17.2050    13.1766 C.3        1 BB1          0.0000
    11 C11       -0.1013   -16.4933    14.4015 C.3        1 BB1          0.0000
    12 C12        1.9994   -17.0873    13.0830 C.3        1 BB1          0.0000
    13 H13        2.3951   -21.8595    13.3619 H          1 BB1          0.0000
    14 H14        1.5215   -21.7162    14.9062 H          1 BB1          0.0000
    15 H15        1.0571   -22.9729    13.7343 H          1 BB1          0.0000
    16 H16       -0.0694   -22.3336    11.5979 H          1 BB1          0.0000
    17 H17       -0.4077   -20.6215    11.2476 H          1 BB1          0.0000
    18 H18        1.2685   -21.2203    11.2254 H          1 BB1          0.0000
    19 H19       -0.8311   -20.8756    14.9373 H          1 BB1          0.0000
    20 H20       -1.6337   -20.4203    13.4152 H          1 BB1          0.0000
    21 H21       -1.2956   -22.1324    13.7655 H          1 BB1          0.0000
    22 H22       -1.0193   -18.8137    13.4485 H          1 BB1          0.0000
    23 H23        0.8212   -18.5742    10.9606 H          1 BB1          0.0000
    24 H24       -0.9858   -18.7600    10.9987 H          1 BB1          0.0000
    25 H25       -1.2829   -16.5461    12.0065 H          1 BB1          0.0000
    26 H26       -1.1893   -16.4850    14.3371 H          1 BB1          0.0000
    27 H27        0.2053   -17.0192    15.3056 H          1 BB1          0.0000
    28 H28        0.2685   -15.4683    14.4343 H          1 BB1          0.0000
    29 H29        2.2887   -16.0398    13.1663 H          1 BB1          0.0000
    30 H30        2.4581   -17.6564    13.8916 H          1 BB1          0.0000
    31 H31        2.3360   -17.4822    12.1244 H          1 BB1          0.0000
    32 H33        1.2254   -16.4776    10.5081 H          1 BB1          0.0000
    33 O1        -0.6959   -13.8083    11.5483 O.2        2 BB2          0.0000
    34 C2         0.0232   -14.5029    10.8440 C.2        2 BB2          0.0000
    35 C4         0.1943   -14.1761     9.4156 C.ar       2 BB2          0.0000
    36 C5         0.2000   -15.1937     8.4585 C.ar       2 BB2          0.0000
    37 C6         0.3606   -14.8807     7.1247 C.ar       2 BB2          0.0000
    38 C7         0.5162   -13.5625     6.7340 C.ar       2 BB2          0.0000
    39 C8         0.5116   -12.5491     7.6766 C.ar       2 BB2          0.0000
    40 C9         0.3458   -12.8466     9.0128 C.ar       2 BB2          0.0000
    41 C10        0.3405   -11.7416    10.0376 C.3        2 BB2          0.0000
    42 N11       -0.8775   -10.9417     9.8869 N.pl3      2 BB2          0.0000
    43 C12       -1.9601   -10.9853    10.6975 C.2        2 BB2          0.0000
    44 C13       -2.8435   -10.0913    10.1954 C.2        2 BB2          0.0000
    45 N14       -2.2659    -9.5516     9.1162 N.2        2 BB2          0.0000
    46 N15       -1.0997   -10.0726     8.9638 N.2        2 BB2          0.0000
    47 H16        0.0794   -16.2231     8.7623 H          2 BB2          0.0000
    48 H17        0.3653   -15.6663     6.3837 H          2 BB2          0.0000
    49 H18        0.6423   -13.3234     5.6883 H          2 BB2          0.0000
    50 H19        0.6339   -11.5225     7.3644 H          2 BB2          0.0000
    51 H20        0.3700   -12.1736    11.0379 H          2 BB2          0.0000
    52 H21        1.2134   -11.1056     9.8906 H          2 BB2          0.0000
    53 H22       -2.0926   -11.6083    11.5697 H          2 BB2          0.0000
    54 H23       -3.8224    -9.8595    10.5883 H          2 BB2          0.0000
@<TRIPOS>BOND
     1      1      2 1
     2      1     13 1
     3      1     14 1
     4      1     15 1
     5      2      3 1
     6      2      4 1
     7      2      5 1
     8      3     16 1
     9      3     17 1
    10      3     18 1
    11      4     19 1
    12      4     20 1
    13      4     21 1
    14      5      6 1
    15      6      7 1
    16      6     10 1
    17      6     22 1
    18      7      8 1
    19      7     23 1
    20      7     24 1
    21      8      9 1
    22      8     10 1
    23      8     25 1
    24      9     32 1
    25     10     11 1
    26     10     12 1
    27     11     26 1
    28     11     27 1
    29     11     28 1
    30     12     29 1
    31     12     30 1
    32     12     31 1
    33     33     34 2
    34     34     35 1
    35     35     36 ar
    36     35     40 ar
    37     36     37 ar
    38     36     47 1
    39     37     38 ar
    40     37     48 1
    41     38     39 ar
    42     38     49 1
    43     39     40 ar
    44     39     50 1
    45     40     41 1
    46     41     42 1
    47     41     51 1
    48     41     52 1
    49     42     43 1
    50     42     46 1
    51     43     44 2
    52     43     53 1
    53     44     45 1
    54     44     54 1
    55     45     46 2
    56      9     34 am
@<TRIPOS>SUBSTRUCTURE
     1 BB1           9
     2 BB2          34
@<TRIPOS>MOLECULE
EN300-193626_i001_EN300-306118_i001_4_6_1
  54   56   2   0   0
SMALL
USER_CHARGES
@<TRIPOS>ATOM
     1 C1         1.4231   -21.9523    13.8466 C.3        1 BB1          0.0000
     2 C2         0.4347   -20.9816    13.1974 C.3        1 BB1          0.0000
     3 C3         0.2966   -21.3131    11.7102 C.3        1 BB1          0.0000
     4 C4        -0.9295   -21.1118    13.8778 C.3        1 BB1          0.0000
     5 O5         0.9147   -19.6437    13.3446 O.3        1 BB1          0.0000
     6 C6        -0.0424   -18.6412    12.9967 C.3        1 BB1          0.0000
     7 C7        -0.1046   -18.3459    11.4888 C.3        1 BB1          0.0000
     8 C8        -0.2493   -16.8620    11.8652 C.3        1 BB1          0.0000
     9 N9         0.5094   -15.9566    10.9918 N.am       1 BB1          0.0000
    10 C10        0.4768   -17.2050    13.1766 C.3        1 BB1          0.0000
    11 C11       -0.1013   -16.4933    14.4015 C.3        1 BB1          0.0000
    12 C12        1.9994   -17.0873    13.0830 C.3        1 BB1          0.0000
    13 H13        2.3951   -21.8595    13.3619 H          1 BB1          0.0000
    14 H14        1.5215   -21.7162    14.9062 H          1 BB1          0.0000
    15 H15        1.0571   -22.9729    13.7343 H          1 BB1          0.0000
    16 H16       -0.0694   -22.3336    11.5979 H          1 BB1          0.0000
    17 H17       -0.4077   -20.6215    11.2476 H          1 BB1          0.0000
    18 H18        1.2685   -21.2203    11.2254 H          1 BB1          0.0000
    19 H19       -0.8311   -20.8756    14.9373 H          1 BB1          0.0000
    20 H20       -1.6337   -20.4203    13.4152 H          1 BB1          0.0000
    21 H21       -1.2956   -22.1324    13.7655 H          1 BB1          0.0000
    22 H22       -1.0193   -18.8137    13.4485 H          1 BB1          0.0000
    23 H23        0.8212   -18.5742    10.9606 H          1 BB1          0.0000
    24 H24       -0.9858   -18.7600    10.9987 H          1 BB1          0.0000
    25 H25       -1.2829   -16.5461    12.0065 H          1 BB1          0.0000
    26 H26       -1.1893   -16.4850    14.3371 H          1 BB1          0.0000
    27 H27        0.2053   -17.0192    15.3056 H          1 BB1          0.0000
    28 H28        0.2685   -15.4683    14.4343 H          1 BB1          0.0000
    29 H29        2.2887   -16.0398    13.1663 H          1 BB1          0.0000
    30 H30        2.4581   -17.6564    13.8916 H          1 BB1          0.0000
    31 H31        2.3360   -17.4822    12.1244 H          1 BB1          0.0000
    32 H33        1.2254   -16.4776    10.5081 H          1 BB1          0.0000
    33 O1        -1.2486   -12.9840    11.2797 O.2        2 BB2          0.0000
    34 C2        -0.3996   -13.7304    10.8133 C.2        2 BB2          0.0000
    35 C4         0.1276   -13.4914     9.4563 C.ar       2 BB2          0.0000
    36 C5         0.3583   -14.5656     8.5936 C.ar       2 BB2          0.0000
    37 C6         0.8514   -14.3346     7.3262 C.ar       2 BB2          0.0000
    38 C7         1.1179   -13.0426     6.9090 C.ar       2 BB2          0.0000
    39 C8         0.8918   -11.9734     7.7582 C.ar       2 BB2          0.0000
    40 C9         0.3932   -12.1888     9.0257 C.ar       2 BB2          0.0000
    41 C10        0.1472   -11.0231     9.9488 C.3        2 BB2          0.0000
    42 N11       -1.2932   -10.7753    10.0492 N.pl3      2 BB2          0.0000
    43 C12       -2.2529   -11.3618     9.2971 C.2        2 BB2          0.0000
    44 C13       -3.4309   -10.8465     9.7198 C.2        2 BB2          0.0000
    45 N14       -3.1380    -9.9810    10.6969 N.2        2 BB2          0.0000
    46 N15       -1.8637    -9.9660    10.8717 N.2        2 BB2          0.0000
    47 H16        0.1514   -15.5747     8.9183 H          2 BB2          0.0000
    48 H17        1.0303   -15.1641     6.6582 H          2 BB2          0.0000
    49 H18        1.5046   -12.8676     5.9157 H          2 BB2          0.0000
    50 H19        1.1024   -10.9676     7.4259 H          2 BB2          0.0000
    51 H20        0.5463   -11.2516    10.9369 H          2 BB2          0.0000
    52 H21        0.6418   -10.1360     9.5534 H          2 BB2          0.0000
    53 H22       -2.1081   -12.0939     8.5164 H          2 BB2          0.0000
    54 H23       -4.4139   -11.0863     9.3423 H          2 BB2          0.0000
@<TRIPOS>BOND
     1      1      2 1
     2      1     13 1
     3      1     14 1
     4      1     15 1
     5      2      3 1
     6      2      4 1
     7      2      5 1
     8      3     16 1
     9      3     17 1
    10      3     18 1
    11      4     19 1
    12      4     20 1
    13      4     21 1
    14      5      6 1
    15      6      7 1
    16      6     10 1
    17      6     22 1
    18      7      8 1
    19      7     23 1
    20      7     24 1
    21      8      9 1
    22      8     10 1
    23      8     25 1
    24      9     32 1
    25     10     11 1
    26     10     12 1
    27     11     26 1
    28     11     27 1
    29     11     28 1
    30     12     29 1
    31     12     30 1
    32     12     31 1
    33     33     34 2
    34     34     35 1
    35     35     36 ar
    36     35     40 ar
    37     36     37 ar
    38     36     47 1
    39     37     38 ar
    40     37     48 1
    41     38     39 ar
    42     38     49 1
    43     39     40 ar
    44     39     50 1
    45     40     41 1
    46     41     42 1
    47     41     51 1
    48     41     52 1
    49     42     43 1
    50     42     46 1
    51     43     44 2
    52     43     53 1
    53     44     45 1
    54     44     54 1
    55     45     46 2
    56      9     34 am
@<TRIPOS>SUBSTRUCTURE
     1 BB1           9
     2 BB2          34
@<TRIPOS>MOLECULE
EN300-193626_i001_EN300-306118_i001_4_7_1
  54   56   2   0   0
SMALL
USER_CHARGES
@<TRIPOS>ATOM
     1 C1         1.4231   -21.9523    13.8466 C.3        1 BB1          0.0000
     2 C2         0.4347   -20.9816    13.1974 C.3        1 BB1          0.0000
     3 C3         0.2966   -21.3131    11.7102 C.3        1 BB1          0.0000
     4 C4        -0.9295   -21.1118    13.8778 C.3        1 BB1          0.0000
     5 O5         0.9147   -19.6437    13.3446 O.3        1 BB1          0.0000
     6 C6        -0.0424   -18.6412    12.9967 C.3        1 BB1          0.0000
     7 C7        -0.1046   -18.3459    11.4888 C.3        1 BB1          0.0000
     8 C8        -0.2493   -16.8620    11.8652 C.3        1 BB1          0.0000
     9 N9         0.5094   -15.9566    10.9918 N.am       1 BB1          0.0000
    10 C10        0.4768   -17.2050    13.1766 C.3        1 BB1          0.0000
    11 C11       -0.1013   -16.4933    14.4015 C.3        1 BB1          0.0000
    12 C12        1.9994   -17.0873    13.0830 C.3        1 BB1          0.0000
    13 H13        2.3951   -21.8595    13.3619 H          1 BB1          0.0000
    14 H14        1.5215   -21.7162    14.9062 H          1 BB1          0.0000
    15 H15        1.0571   -22.9729    13.7343 H          1 BB1          0.0000
    16 H16       -0.0694   -22.3336    11.5979 H          1 BB1          0.0000
    17 H17       -0.4077   -20.6215    11.2476 H          1 BB1          0.0000
    18 H18        1.2685   -21.2203    11.2254 H          1 BB1          0.0000
    19 H19       -0.8311   -20.8756    14.9373 H          1 BB1          0.0000
    20 H20       -1.6337   -20.4203    13.4152 H          1 BB1          0.0000
    21 H21       -1.2956   -22.1324    13.7655 H          1 BB1          0.0000
    22 H22       -1.0193   -18.8137    13.4485 H          1 BB1          0.0000
    23 H23        0.8212   -18.5742    10.9606 H          1 BB1          0.0000
    24 H24       -0.9858   -18.7600    10.9987 H          1 BB1          0.0000
    25 H25       -1.2829   -16.5461    12.0065 H          1 BB1          0.0000
    26 H26       -1.1893   -16.4850    14.3371 H          1 BB1          0.0000
    27 H27        0.2053   -17.0192    15.3056 H          1 BB1          0.0000
    28 H28        0.2685   -15.4683    14.4343 H          1 BB1          0.0000
    29 H29        2.2887   -16.0398    13.1663 H          1 BB1          0.0000
    30 H30        2.4581   -17.6564    13.8916 H          1 BB1          0.0000
    31 H31        2.3360   -17.4822    12.1244 H          1 BB1          0.0000
    32 H33        1.2254   -16.4776    10.5081 H          1 BB1          0.0000
    33 O1        -0.6971   -14.7557    11.9521 O.2        2 BB2          0.0000
    34 C2         0.3107   -14.7692    11.2595 C.2        2 BB2          0.0000
    35 C4         0.2910   -14.1590     9.9165 C.ar       2 BB2          0.0000
    36 C5         0.9400   -14.7869     8.8506 C.ar       2 BB2          0.0000
    37 C6         0.9175   -14.2104     7.5976 C.ar       2 BB2          0.0000
    38 C7         0.2545   -13.0130     7.3953 C.ar       2 BB2          0.0000
    39 C8        -0.3907   -12.3851     8.4465 C.ar       2 BB2          0.0000
    40 C9        -0.3818   -12.9530     9.7032 C.ar       2 BB2          0.0000
    41 C10       -1.0854   -12.2680    10.8464 C.3        2 BB2          0.0000
    42 N11       -1.9001   -11.1660    10.3286 N.pl3      2 BB2          0.0000
    43 C12       -3.2480   -11.0736    10.4030 C.2        2 BB2          0.0000
    44 C13       -3.5794    -9.9055     9.8051 C.2        2 BB2          0.0000
    45 N14       -2.4331    -9.3478     9.3992 N.2        2 BB2          0.0000
    46 N15       -1.4563   -10.1169     9.7294 N.2        2 BB2          0.0000
    47 H16        1.4585   -15.7213     9.0074 H          2 BB2          0.0000
    48 H17        1.4188   -14.6947     6.7727 H          2 BB2          0.0000
    49 H18        0.2408   -12.5658     6.4122 H          2 BB2          0.0000
    50 H19       -0.9059   -11.4505     8.2813 H          2 BB2          0.0000
    51 H20       -1.7270   -12.9843    11.3596 H          2 BB2          0.0000
    52 H21       -0.3465   -11.8763    11.5454 H          2 BB2          0.0000
    53 H22       -3.9235   -11.7882    10.8496 H          2 BB2          0.0000
    54 H23       -4.5737    -9.5029     9.6797 H          2 BB2          0.0000
@<TRIPOS>BOND
     1      1      2 1
     2      1     13 1
     3      1     14 1
     4      1     15 1
     5      2      3 1
     6      2      4 1
     7      2      5 1
     8      3     16 1
     9      3     17 1
    10      3     18 1
    11      4     19 1
    12      4     20 1
    13      4     21 1
    14      5      6 1
    15      6      7 1
    16      6     10 1
    17      6     22 1
    18      7      8 1
    19      7     23 1
    20      7     24 1
    21      8      9 1
    22      8     10 1
    23      8     25 1
    24      9     32 1
    25     10     11 1
    26     10     12 1
    27     11     26 1
    28     11     27 1
    29     11     28 1
    30     12     29 1
    31     12     30 1
    32     12     31 1
    33     33     34 2
    34     34     35 1
    35     35     36 ar
    36     35     40 ar
    37     36     37 ar
    38     36     47 1
    39     37     38 ar
    40     37     48 1
    41     38     39 ar
    42     38     49 1
    43     39     40 ar
    44     39     50 1
    45     40     41 1
    46     41     42 1
    47     41     51 1
    48     41     52 1
    49     42     43 1
    50     42     46 1
    51     43     44 2
    52     43     53 1
    53     44     45 1
    54     44     54 1
    55     45     46 2
    56      9     34 am
@<TRIPOS>SUBSTRUCTURE
     1 BB1           9
     2 BB2          34
@<TRIPOS>MOLECULE
EN300-193626_i001_EN300-223795_i001_4_13_1
  45   46   2   0   0
SMALL
USER_CHARGES
@<TRIPOS>ATOM
     1 C1         1.4231   -21.9523    13.8466 C.3        1 BB1          0.0000
     2 C2         0.4347   -20.9816    13.1974 C.3        1 BB1          0.0000
     3 C3         0.2966   -21.3131    11.7102 C.3        1 BB1          0.0000
     4 C4        -0.9295   -21.1118    13.8778 C.3        1 BB1          0.0000
     5 O5         0.9147   -19.6437    13.3446 O.3        1 BB1          0.0000
     6 C6        -0.0424   -18.6412    12.9967 C.3        1 BB1          0.0000
     7 C7        -0.1046   -18.3459    11.4888 C.3        1 BB1          0.0000
     8 C8        -0.2493   -16.8620    11.8652 C.3        1 BB1          0.0000
     9 N9         0.5094   -15.9566    10.9918 N.am       1 BB1          0.0000
    10 C10        0.4768   -17.2050    13.1766 C.3        1 BB1          0.0000
    11 C11       -0.1013   -16.4933    14.4015 C.3        1 BB1          0.0000
    12 C12        1.9994   -17.0873    13.0830 C.3        1 BB1          0.0000
    13 H13        2.3951   -21.8595    13.3619 H          1 BB1          0.0000
    14 H14        1.5215   -21.7162    14.9062 H          1 BB1          0.0000
    15 H15        1.0571   -22.9729    13.7343 H          1 BB1          0.0000
    16 H16       -0.0694   -22.3336    11.5979 H          1 BB1          0.0000
    17 H17       -0.4077   -20.6215    11.2476 H          1 BB1          0.0000
    18 H18        1.2685   -21.2203    11.2254 H          1 BB1          0.0000
    19 H19       -0.8311   -20.8756    14.9373 H          1 BB1          0.0000
    20 H20       -1.6337   -20.4203    13.4152 H          1 BB1          0.0000
    21 H21       -1.2956   -22.1324    13.7655 H          1 BB1          0.0000
    22 H22       -1.0193   -18.8137    13.4485 H          1 BB1          0.0000
    23 H23        0.8212   -18.5742    10.9606 H          1 BB1          0.0000
    24 H24       -0.9858   -18.7600    10.9987 H          1 BB1          0.0000
    25 H25       -1.2829   -16.5461    12.0065 H          1 BB1          0.0000
    26 H26       -1.1893   -16.4850    14.3371 H          1 BB1          0.0000
    27 H27        0.2053   -17.0192    15.3056 H          1 BB1          0.0000
    28 H28        0.2685   -15.4683    14.4343 H          1 BB1          0.0000
    29 H29        2.2887   -16.0398    13.1663 H          1 BB1          0.0000
    30 H30        2.4581   -17.6564    13.8916 H          1 BB1          0.0000
    31 H31        2.3360   -17.4822    12.1244 H          1 BB1          0.0000
    32 H34       -0.1145   -15.5376    10.3186 H          1 BB1          0.0000
    33 C2        -0.1214   -14.6741    11.0454 C.2        2 BB2          0.0000
    34 O3        -0.1055   -14.8596    12.2551 O.2        2 BB2          0.0000
    35 C4        -0.5198   -13.3679    10.5087 C.2        2 BB2          0.0000
    36 C5        -1.2337   -12.3734    11.2774 C.2        2 BB2          0.0000
    37 C6        -1.4890   -11.2682    10.5893 C.2        2 BB2          0.0000
    38 S7        -0.8614   -11.3974     8.9556 S.3        2 BB2          0.0000
    39 C8        -0.2501   -12.9637     9.2351 C.2        2 BB2          0.0000
    40 C9         0.4817   -13.7924     8.2110 C.3        2 BB2          0.0000
    41 F10        0.6752   -13.0353     7.0506 F          2 BB2          0.0000
    42 F11        1.7227   -14.1815     8.7264 F          2 BB2          0.0000
    43 F12       -0.2737   -14.9296     7.9053 F          2 BB2          0.0000
    44 H13       -1.5292   -12.5156    12.3063 H          2 BB2          0.0000
    45 H14       -2.0113   -10.4077    10.9806 H          2 BB2          0.0000
@<TRIPOS>BOND
     1      1      2 1
     2      1     13 1
     3      1     14 1
     4      1     15 1
     5      2      3 1
     6      2      4 1
     7      2      5 1
     8      3     16 1
     9      3     17 1
    10      3     18 1
    11      4     19 1
    12      4     20 1
    13      4     21 1
    14      5      6 1
    15      6      7 1
    16      6     10 1
    17      6     22 1
    18      7      8 1
    19      7     23 1
    20      7     24 1
    21      8      9 1
    22      8     10 1
    23      8     25 1
    24      9     32 1
    25     10     11 1
    26     10     12 1
    27     11     26 1
    28     11     27 1
    29     11     28 1
    30     12     29 1
    31     12     30 1
    32     12     31 1
    33     33     34 2
    34     33     35 1
    35     35     36 1
    36     35     39 2
    37     36     37 2
    38     36     44 1
    39     37     38 1
    40     37     45 1
    41     38     39 1
    42     39     40 1
    43     40     41 1
    44     40     42 1
    45     40     43 1
    46      9     33 am
@<TRIPOS>SUBSTRUCTURE
     1 BB1           9
     2 BB2          33
@<TRIPOS>MOLECULE
EN300-193626_i001_EN300-344045_i001_4_2_1
  61   63   2   0   0
SMALL
USER_CHARGES
@<TRIPOS>ATOM
     1 C1         1.4231   -21.9523    13.8466 C.3        1 BB1          0.0000
     2 C2         0.4347   -20.9816    13.1974 C.3        1 BB1          0.0000
     3 C3         0.2966   -21.3131    11.7102 C.3        1 BB1          0.0000
     4 C4        -0.9295   -21.1118    13.8778 C.3        1 BB1          0.0000
     5 O5         0.9147   -19.6437    13.3446 O.3        1 BB1          0.0000
     6 C6        -0.0424   -18.6412    12.9967 C.3        1 BB1          0.0000
     7 C7        -0.1046   -18.3459    11.4888 C.3        1 BB1          0.0000
     8 C8        -0.2493   -16.8620    11.8652 C.3        1 BB1          0.0000
     9 N9         0.5094   -15.9566    10.9918 N.am       1 BB1          0.0000
    10 C10        0.4768   -17.2050    13.1766 C.3        1 BB1          0.0000
    11 C11       -0.1013   -16.4933    14.4015 C.3        1 BB1          0.0000
    12 C12        1.9994   -17.0873    13.0830 C.3        1 BB1          0.0000
    13 H13        2.3951   -21.8595    13.3619 H          1 BB1          0.0000
    14 H14        1.5215   -21.7162    14.9062 H          1 BB1          0.0000
    15 H15        1.0571   -22.9729    13.7343 H          1 BB1          0.0000
    16 H16       -0.0694   -22.3336    11.5979 H          1 BB1          0.0000
    17 H17       -0.4077   -20.6215    11.2476 H          1 BB1          0.0000
    18 H18        1.2685   -21.2203    11.2254 H          1 BB1          0.0000
    19 H19       -0.8311   -20.8756    14.9373 H          1 BB1          0.0000
    20 H20       -1.6337   -20.4203    13.4152 H          1 BB1          0.0000
    21 H21       -1.2956   -22.1324    13.7655 H          1 BB1          0.0000
    22 H22       -1.0193   -18.8137    13.4485 H          1 BB1          0.0000
    23 H23        0.8212   -18.5742    10.9606 H          1 BB1          0.0000
    24 H24       -0.9858   -18.7600    10.9987 H          1 BB1          0.0000
    25 H25       -1.2829   -16.5461    12.0065 H          1 BB1          0.0000
    26 H26       -1.1893   -16.4850    14.3371 H          1 BB1          0.0000
    27 H27        0.2053   -17.0192    15.3056 H          1 BB1          0.0000
    28 H28        0.2685   -15.4683    14.4343 H          1 BB1          0.0000
    29 H29        2.2887   -16.0398    13.1663 H          1 BB1          0.0000
    30 H30        2.4581   -17.6564    13.8916 H          1 BB1          0.0000
    31 H31        2.3360   -17.4822    12.1244 H          1 BB1          0.0000
    32 H33        1.2254   -16.4776    10.5081 H          1 BB1          0.0000
    33 C2         0.2489   -14.5943    11.0019 C.2        2 BB2          0.0000
    34 O3        -0.6663   -14.2364    11.7237 O.2        2 BB2          0.0000
    35 C4         0.9922   -13.5817    10.1694 C.3        2 BB2          0.0000
    36 C5         0.0568   -13.0163     9.0988 C.3        2 BB2          0.0000
    37 C6         0.8768   -12.3025     8.0042 C.3        2 BB2          0.0000
    38 C7         1.0511   -13.3749     6.9002 C.3        2 BB2          0.0000
    39 C8        -0.3163   -14.1023     6.9114 C.3        2 BB2          0.0000
    40 C9        -0.7017   -14.1605     8.4040 C.3        2 BB2          0.0000
    41 C10       -0.9194   -12.0528     9.7233 C.ar       2 BB2          0.0000
    42 C11       -0.7018   -11.5818    11.0046 C.ar       2 BB2          0.0000
    43 C12       -1.5972   -10.6981    11.5774 C.ar       2 BB2          0.0000
    44 C13       -2.7099   -10.2850    10.8687 C.ar       2 BB2          0.0000
    45 C14       -2.9270   -10.7553     9.5871 C.ar       2 BB2          0.0000
    46 C15       -2.0292   -11.6357     9.0126 C.ar       2 BB2          0.0000
    47 H16        1.3431   -12.7722    10.8096 H          2 BB2          0.0000
    48 H17        1.8455   -14.0614     9.6898 H          2 BB2          0.0000
    49 H18        0.3298   -11.4425     7.6177 H          2 BB2          0.0000
    50 H19        1.8472   -11.9949     8.3939 H          2 BB2          0.0000
    51 H20        1.2319   -12.9071     5.9324 H          2 BB2          0.0000
    52 H21        1.8570   -14.0634     7.1543 H          2 BB2          0.0000
    53 H22       -1.0559   -13.5330     6.3483 H          2 BB2          0.0000
    54 H23       -0.2166   -15.1082     6.5036 H          2 BB2          0.0000
    55 H24       -0.4034   -15.1187     8.8294 H          2 BB2          0.0000
    56 H25       -1.7765   -14.0194     8.5179 H          2 BB2          0.0000
    57 H26        0.1674   -11.9045    11.5583 H          2 BB2          0.0000
    58 H27       -1.4278   -10.3307    12.5787 H          2 BB2          0.0000
    59 H28       -3.4099    -9.5951    11.3165 H          2 BB2          0.0000
    60 H29       -3.7964   -10.4328     9.0334 H          2 BB2          0.0000
    61 H30       -2.1987   -12.0032     8.0113 H          2 BB2          0.0000
@<TRIPOS>BOND
     1      1      2 1
     2      1     13 1
     3      1     14 1
     4      1     15 1
     5      2      3 1
     6      2      4 1
     7      2      5 1
     8      3     16 1
     9      3     17 1
    10      3     18 1
    11      4     19 1
    12      4     20 1
    13      4     21 1
    14      5      6 1
    15      6      7 1
    16      6     10 1
    17      6     22 1
    18      7      8 1
    19      7     23 1
    20      7     24 1
    21      8      9 1
    22      8     10 1
    23      8     25 1
    24      9     32 1
    25     10     11 1
    26     10     12 1
    27     11     26 1
    28     11     27 1
    29     11     28 1
    30     12     29 1
    31     12     30 1
    32     12     31 1
    33     33     34 2
    34     33     35 1
    35     35     36 1
    36     35     47 1
    37     35     48 1
    38     36     37 1
    39     36     40 1
    40     36     41 1
    41     37     38 1
    42     37     49 1
    43     37     50 1
    44     38     39 1
    45     38     51 1
    46     38     52 1
    47     39     40 1
    48     39     53 1
    49     39     54 1
    50     40     55 1
    51     40     56 1
    52     41     42 ar
    53     41     46 ar
    54     42     43 ar
    55     42     57 1
    56     43     44 ar
    57     43     58 1
    58     44     45 ar
    59     44     59 1
    60     45     46 ar
    61     45     60 1
    62     46     61 1
    63      9     33 am
@<TRIPOS>SUBSTRUCTURE
     1 BB1           9
     2 BB2          33
@<TRIPOS>MOLECULE
EN300-193626_i001_EN300-19857_i001_8_19_1
  45   46   2   0   0
SMALL
USER_CHARGES
@<TRIPOS>ATOM
     1 C1         1.7406   -22.5963    14.1011 C.3        1 BB1          0.0000
     2 C2         0.5820   -21.6030    13.9924 C.3        1 BB1          0.0000
     3 C3        -0.3558   -22.0349    12.8633 C.3        1 BB1          0.0000
     4 C4        -0.1898   -21.5733    15.3131 C.3        1 BB1          0.0000
     5 O5         1.0966   -20.2998    13.7120 O.3        1 BB1          0.0000
     6 C6         0.0896   -19.3236    13.4384 C.3        1 BB1          0.0000
     7 C7        -0.2244   -19.1653    11.9413 C.3        1 BB1          0.0000
     8 C8        -0.3126   -17.6520    12.2003 C.3        1 BB1          0.0000
     9 N9         0.2852   -16.8368    11.1344 N.am       1 BB1          0.0000
    10 C10        0.6236   -17.8821    13.3984 C.3        1 BB1          0.0000
    11 C11        0.2535   -17.0570    14.6326 C.3        1 BB1          0.0000
    12 C12        2.1087   -17.7882    13.0427 C.3        1 BB1          0.0000
    13 H13        2.2905   -22.6176    13.1601 H          1 BB1          0.0000
    14 H14        2.4087   -22.2887    14.9055 H          1 BB1          0.0000
    15 H15        1.3480   -23.5905    14.3150 H          1 BB1          0.0000
    16 H16       -0.7483   -23.0290    13.0772 H          1 BB1          0.0000
    17 H17       -1.1813   -21.3272    12.7859 H          1 BB1          0.0000
    18 H18        0.1940   -22.0561    11.9223 H          1 BB1          0.0000
    19 H19        0.4782   -21.2656    16.1175 H          1 BB1          0.0000
    20 H20       -1.0153   -20.8656    15.2357 H          1 BB1          0.0000
    21 H21       -0.5824   -22.5674    15.5271 H          1 BB1          0.0000
    22 H22       -0.7976   -19.4450    14.0601 H          1 BB1          0.0000
    23 H23        0.6019   -19.4493    11.2896 H          1 BB1          0.0000
    24 H24       -1.1725   -19.6134    11.6442 H          1 BB1          0.0000
    25 H25       -1.3099   -17.3146    12.4822 H          1 BB1          0.0000
    26 H26       -0.8301   -17.0440    14.7495 H          1 BB1          0.0000
    27 H27        0.7091   -17.5020    15.5172 H          1 BB1          0.0000
    28 H28        0.6179   -16.0369    14.5103 H          1 BB1          0.0000
    29 H29        2.4021   -16.7403    12.9813 H          1 BB1          0.0000
    30 H30        2.6987   -18.2863    13.8121 H          1 BB1          0.0000
    31 H31        2.2832   -18.2714    12.0813 H          1 BB1          0.0000
    32 H34       -0.3690   -16.7487    10.3713 H          1 BB1          0.0000
    33 C2         0.1084   -15.2492    12.0190 C.2        2 BB2          0.0000
    34 O3        -0.1015   -15.0032    13.1984 O.2        2 BB2          0.0000
    35 C4        -0.1003   -14.2039    10.9989 C.ar       2 BB2          0.0000
    36 C5         0.6067   -14.2472     9.7949 C.ar       2 BB2          0.0000
    37 C6         0.4070   -13.2666     8.8454 C.ar       2 BB2          0.0000
    38 C7        -0.4913   -12.2416     9.0830 C.ar       2 BB2          0.0000
    39 C8        -1.1956   -12.1914    10.2743 C.ar       2 BB2          0.0000
    40 Br9       -2.4207   -10.7854    10.5877 Br         2 BB2          0.0000
    41 C10       -1.0103   -13.1691    11.2304 C.ar       2 BB2          0.0000
    42 H11        1.3085   -15.0465     9.6080 H          2 BB2          0.0000
    43 H12        0.9533   -13.2990     7.9144 H          2 BB2          0.0000
    44 H13       -0.6436   -11.4766     8.3360 H          2 BB2          0.0000
    45 H14       -1.5600   -13.1293    12.1592 H          2 BB2          0.0000
@<TRIPOS>BOND
     1      1      2 1
     2      1     13 1
     3      1     14 1
     4      1     15 1
     5      2      3 1
     6      2      4 1
     7      2      5 1
     8      3     16 1
     9      3     17 1
    10      3     18 1
    11      4     19 1
    12      4     20 1
    13      4     21 1
    14      5      6 1
    15      6      7 1
    16      6     10 1
    17      6     22 1
    18      7      8 1
    19      7     23 1
    20      7     24 1
    21      8      9 1
    22      8     10 1
    23      8     25 1
    24      9     32 1
    25     10     11 1
    26     10     12 1
    27     11     26 1
    28     11     27 1
    29     11     28 1
    30     12     29 1
    31     12     30 1
    32     12     31 1
    33     33     34 2
    34     33     35 1
    35     35     36 ar
    36     35     41 ar
    37     36     37 ar
    38     36     42 1
    39     37     38 ar
    40     37     43 1
    41     38     39 ar
    42     38     44 1
    43     39     40 1
    44     39     41 ar
    45     41     45 1
    46      9     33 am
@<TRIPOS>SUBSTRUCTURE
     1 BB1           9
     2 BB2          33
@<TRIPOS>MOLECULE
EN300-193626_i001_EN300-1071101_i001_8_8_1
  72   73   2   0   0
SMALL
USER_CHARGES
@<TRIPOS>ATOM
     1 C1         1.7406   -22.5963    14.1011 C.3        1 BB1          0.0000
     2 C2         0.5820   -21.6030    13.9924 C.3        1 BB1          0.0000
     3 C3        -0.3558   -22.0349    12.8633 C.3        1 BB1          0.0000
     4 C4        -0.1898   -21.5733    15.3131 C.3        1 BB1          0.0000
     5 O5         1.0966   -20.2998    13.7120 O.3        1 BB1          0.0000
     6 C6         0.0896   -19.3236    13.4384 C.3        1 BB1          0.0000
     7 C7        -0.2244   -19.1653    11.9413 C.3        1 BB1          0.0000
     8 C8        -0.3126   -17.6520    12.2003 C.3        1 BB1          0.0000
     9 N9         0.2852   -16.8368    11.1344 N.am       1 BB1          0.0000
    10 C10        0.6236   -17.8821    13.3984 C.3        1 BB1          0.0000
    11 C11        0.2535   -17.0570    14.6326 C.3        1 BB1          0.0000
    12 C12        2.1087   -17.7882    13.0427 C.3        1 BB1          0.0000
    13 H13        2.2905   -22.6176    13.1601 H          1 BB1          0.0000
    14 H14        2.4087   -22.2887    14.9055 H          1 BB1          0.0000
    15 H15        1.3480   -23.5905    14.3150 H          1 BB1          0.0000
    16 H16       -0.7483   -23.0290    13.0772 H          1 BB1          0.0000
    17 H17       -1.1813   -21.3272    12.7859 H          1 BB1          0.0000
    18 H18        0.1940   -22.0561    11.9223 H          1 BB1          0.0000
    19 H19        0.4782   -21.2656    16.1175 H          1 BB1          0.0000
    20 H20       -1.0153   -20.8656    15.2357 H          1 BB1          0.0000
    21 H21       -0.5824   -22.5674    15.5271 H          1 BB1          0.0000
    22 H22       -0.7976   -19.4450    14.0601 H          1 BB1          0.0000
    23 H23        0.6019   -19.4493    11.2896 H          1 BB1          0.0000
    24 H24       -1.1725   -19.6134    11.6442 H          1 BB1          0.0000
    25 H25       -1.3099   -17.3146    12.4822 H          1 BB1          0.0000
    26 H26       -0.8301   -17.0440    14.7495 H          1 BB1          0.0000
    27 H27        0.7091   -17.5020    15.5172 H          1 BB1          0.0000
    28 H28        0.6179   -16.0369    14.5103 H          1 BB1          0.0000
    29 H29        2.4021   -16.7403    12.9813 H          1 BB1          0.0000
    30 H30        2.6987   -18.2863    13.8121 H          1 BB1          0.0000
    31 H31        2.2832   -18.2714    12.0813 H          1 BB1          0.0000
    32 H34       -0.3690   -16.7487    10.3713 H          1 BB1          0.0000
    33 C1         0.3515   -13.6135     6.6485 C.3        2 BB2          0.0000
    34 O2        -0.0879   -14.3590     7.7857 O.3        2 BB2          0.0000
    35 C3         0.9245   -14.5635     8.7732 C.3        2 BB2          0.0000
    36 C4         0.2818   -15.0750    10.0640 C.3        2 BB2          0.0000
    37 N5        -0.8631   -14.2283    10.4085 N.am       2 BB2          0.0000
    38 C6        -0.6994   -12.8977    10.5475 C.2        2 BB2          0.0000
    39 O7         0.3977   -12.4005    10.3872 O.2        2 BB2          0.0000
    40 O8        -1.7515   -12.1196    10.8640 O.3        2 BB2          0.0000
    41 C9        -1.7329   -10.7537    10.3717 C.3        2 BB2          0.0000
    42 C10       -0.7441    -9.9276    11.1967 C.3        2 BB2          0.0000
    43 C11       -1.3028   -10.7467     8.9034 C.3        2 BB2          0.0000
    44 C12       -3.1322   -10.1476    10.4961 C.3        2 BB2          0.0000
    45 C13        1.2931   -15.0310    11.1804 C.2        2 BB2          0.0000
    46 O15        0.9626   -15.3326    12.3146 O.2        2 BB2          0.0000
    47 C16       -0.1850   -16.4941     9.8647 C.ar       2 BB2          0.0000
    48 C17       -0.3964   -16.9791     8.5876 C.ar       2 BB2          0.0000
    49 C18       -0.8246   -18.2807     8.4047 C.ar       2 BB2          0.0000
    50 C19       -1.0410   -19.0973     9.4989 C.ar       2 BB2          0.0000
    51 C20       -0.8286   -18.6125    10.7758 C.ar       2 BB2          0.0000
    52 C21       -0.3963   -17.3123    10.9586 C.ar       2 BB2          0.0000
    53 H22       -0.4744   -13.5016     5.9461 H          2 BB2          0.0000
    54 H23        0.6919   -12.6288     6.9690 H          2 BB2          0.0000
    55 H24        1.1724   -14.1414     6.1631 H          2 BB2          0.0000
    56 H25        1.6436   -15.2975     8.4097 H          2 BB2          0.0000
    57 H26        1.4353   -13.6211     8.9704 H          2 BB2          0.0000
    58 H27        0.2528   -10.3594    11.1081 H          2 BB2          0.0000
    59 H28       -0.7302    -8.9022    10.8272 H          2 BB2          0.0000
    60 H29       -1.0506    -9.9327    12.2427 H          2 BB2          0.0000
    61 H30       -2.0073   -11.3352     8.3156 H          2 BB2          0.0000
    62 H31       -1.2888    -9.7213     8.5338 H          2 BB2          0.0000
    63 H32       -0.3059   -11.1785     8.8148 H          2 BB2          0.0000
    64 H33       -3.4387   -10.1527    11.5421 H          2 BB2          0.0000
    65 H34       -3.1183    -9.1222    10.1265 H          2 BB2          0.0000
    66 H35       -3.8367   -10.7361     9.9082 H          2 BB2          0.0000
    67 H36       -0.2274   -16.3411     7.7327 H          2 BB2          0.0000
    68 H37       -0.9904   -18.6594     7.4070 H          2 BB2          0.0000
    69 H38       -1.3762   -20.1140     9.3560 H          2 BB2          0.0000
    70 H39       -0.9980   -19.2505    11.6307 H          2 BB2          0.0000
    71 H40       -0.2304   -16.9335    11.9563 H          2 BB2          0.0000
    72 H41       -1.7388   -14.6253    10.5365 H          2 BB2          0.0000
@<TRIPOS>BOND
     1      1      2 1
     2      1     13 1
     3      1     14 1
     4      1     15 1
     5      2      3 1
     6      2      4 1
     7      2      5 1
     8      3     16 1
     9      3     17 1
    10      3     18 1
    11      4     19 1
    12      4     20 1
    13      4     21 1
    14      5      6 1
    15      6      7 1
    16      6     10 1
    17      6     22 1
    18      7      8 1
    19      7     23 1
    20      7     24 1
    21      8      9 1
    22      8     10 1
    23      8     25 1
    24      9     32 1
    25     10     11 1
    26     10     12 1
    27     11     26 1
    28     11     27 1
    29     11     28 1
    30     12     29 1
    31     12     30 1
    32     12     31 1
    33     33     34 1
    34     33     53 1
    35     33     54 1
    36     33     55 1
    37     34     35 1
    38     35     36 1
    39     35     56 1
    40     35     57 1
    41     36     37 1
    42     36     45 1
    43     36     47 1
    44     37     38 am
    45     37     72 1
    46     38     39 2
    47     38     40 1
    48     40     41 1
    49     41     42 1
    50     41     43 1
    51     41     44 1
    52     42     58 1
    53     42     59 1
    54     42     60 1
    55     43     61 1
    56     43     62 1
    57     43     63 1
    58     44     64 1
    59     44     65 1
    60     44     66 1
    61     45     46 2
    62     47     48 ar
    63     47     52 ar
    64     48     49 ar
    65     48     67 1
    66     49     50 ar
    67     49     68 1
    68     50     51 ar
    69     50     69 1
    70     51     52 ar
    71     51     70 1
    72     52     71 1
    73      9     45 am
@<TRIPOS>SUBSTRUCTURE
     1 BB1           9
     2 BB2          45
@<TRIPOS>MOLECULE
EN300-193626_i001_EN300-222254_i002_8_9_1
  55   57   2   0   0
SMALL
USER_CHARGES
@<TRIPOS>ATOM
     1 C1         1.7406   -22.5963    14.1011 C.3        1 BB1          0.0000
     2 C2         0.5820   -21.6030    13.9924 C.3        1 BB1          0.0000
     3 C3        -0.3558   -22.0349    12.8633 C.3        1 BB1          0.0000
     4 C4        -0.1898   -21.5733    15.3131 C.3        1 BB1          0.0000
     5 O5         1.0966   -20.2998    13.7120 O.3        1 BB1          0.0000
     6 C6         0.0896   -19.3236    13.4384 C.3        1 BB1          0.0000
     7 C7        -0.2244   -19.1653    11.9413 C.3        1 BB1          0.0000
     8 C8        -0.3126   -17.6520    12.2003 C.3        1 BB1          0.0000
     9 N9         0.2852   -16.8368    11.1344 N.am       1 BB1          0.0000
    10 C10        0.6236   -17.8821    13.3984 C.3        1 BB1          0.0000
    11 C11        0.2535   -17.0570    14.6326 C.3        1 BB1          0.0000
    12 C12        2.1087   -17.7882    13.0427 C.3        1 BB1          0.0000
    13 H13        2.2905   -22.6176    13.1601 H          1 BB1          0.0000
    14 H14        2.4087   -22.2887    14.9055 H          1 BB1          0.0000
    15 H15        1.3480   -23.5905    14.3150 H          1 BB1          0.0000
    16 H16       -0.7483   -23.0290    13.0772 H          1 BB1          0.0000
    17 H17       -1.1813   -21.3272    12.7859 H          1 BB1          0.0000
    18 H18        0.1940   -22.0561    11.9223 H          1 BB1          0.0000
    19 H19        0.4782   -21.2656    16.1175 H          1 BB1          0.0000
    20 H20       -1.0153   -20.8656    15.2357 H          1 BB1          0.0000
    21 H21       -0.5824   -22.5674    15.5271 H          1 BB1          0.0000
    22 H22       -0.7976   -19.4450    14.0601 H          1 BB1          0.0000
    23 H23        0.6019   -19.4493    11.2896 H          1 BB1          0.0000
    24 H24       -1.1725   -19.6134    11.6442 H          1 BB1          0.0000
    25 H25       -1.3099   -17.3146    12.4822 H          1 BB1          0.0000
    26 H26       -0.8301   -17.0440    14.7495 H          1 BB1          0.0000
    27 H27        0.7091   -17.5020    15.5172 H          1 BB1          0.0000
    28 H28        0.6179   -16.0369    14.5103 H          1 BB1          0.0000
    29 H29        2.4021   -16.7403    12.9813 H          1 BB1          0.0000
    30 H30        2.6987   -18.2863    13.8121 H          1 BB1          0.0000
    31 H31        2.2832   -18.2714    12.0813 H          1 BB1          0.0000
    32 H32        0.5062   -15.9209    11.4954 H          1 BB1          0.0000
    33 C2        -0.3919   -16.9343     9.0444 C.2        2 BB2          0.0000
    34 O3        -0.7231   -17.9815     8.5150 O.2        2 BB2          0.0000
    35 C4        -0.1618   -15.7049     8.2039 C.3        2 BB2          0.0000
    36 C5         0.9915   -15.8536     7.1976 C.3        2 BB2          0.0000
    37 C6         1.3768   -14.4060     7.5447 C.3        2 BB2          0.0000
    38 C7         0.6904   -14.6319     8.9021 C.3        2 BB2          0.0000
    39 C8        -0.1062   -13.4455     9.3806 C.ar       2 BB2          0.0000
    40 C9        -0.3494   -12.3867     8.5268 C.ar       2 BB2          0.0000
    41 C10       -1.0796   -11.2978     8.9651 C.ar       2 BB2          0.0000
    42 C11       -1.5683   -11.2671    10.2590 C.ar       2 BB2          0.0000
    43 Cl12      -2.4857    -9.8994    10.8081 Cl         2 BB2          0.0000
    44 C13       -1.3262   -12.3265    11.1150 C.ar       2 BB2          0.0000
    45 C14       -0.5994   -13.4191    10.6744 C.ar       2 BB2          0.0000
    46 F15       -0.3628   -14.4545    11.5093 F          2 BB2          0.0000
    47 H16       -1.0793   -15.3164     7.7621 H          2 BB2          0.0000
    48 H17        1.7396   -16.5881     7.4961 H          2 BB2          0.0000
    49 H18        0.6586   -15.9819     6.1676 H          2 BB2          0.0000
    50 H19        2.4524   -14.2466     7.6205 H          2 BB2          0.0000
    51 H20        0.8803   -13.6610     6.9229 H          2 BB2          0.0000
    52 H21        1.3560   -15.0323     9.6667 H          2 BB2          0.0000
    53 H22        0.0317   -12.4097     7.5164 H          2 BB2          0.0000
    54 H23       -1.2685   -10.4704     8.2971 H          2 BB2          0.0000
    55 H24       -1.7075   -12.3029    12.1251 H          2 BB2          0.0000
@<TRIPOS>BOND
     1      1      2 1
     2      1     13 1
     3      1     14 1
     4      1     15 1
     5      2      3 1
     6      2      4 1
     7      2      5 1
     8      3     16 1
     9      3     17 1
    10      3     18 1
    11      4     19 1
    12      4     20 1
    13      4     21 1
    14      5      6 1
    15      6      7 1
    16      6     10 1
    17      6     22 1
    18      7      8 1
    19      7     23 1
    20      7     24 1
    21      8      9 1
    22      8     10 1
    23      8     25 1
    24      9     32 1
    25     10     11 1
    26     10     12 1
    27     11     26 1
    28     11     27 1
    29     11     28 1
    30     12     29 1
    31     12     30 1
    32     12     31 1
    33     33     34 2
    34     33     35 1
    35     35     36 1
    36     35     38 1
    37     35     47 1
    38     36     37 1
    39     36     48 1
    40     36     49 1
    41     37     38 1
    42     37     50 1
    43     37     51 1
    44     38     39 1
    45     38     52 1
    46     39     40 ar
    47     39     45 ar
    48     40     41 ar
    49     40     53 1
    50     41     42 ar
    51     41     54 1
    52     42     43 1
    53     42     44 ar
    54     44     45 ar
    55     44     55 1
    56     45     46 1
    57      9     33 am
@<TRIPOS>SUBSTRUCTURE
     1 BB1           9
     2 BB2          33
@<TRIPOS>MOLECULE
EN300-193626_i001_EN300-194291_i002_8_16_1
  56   58   2   0   0
SMALL
USER_CHARGES
@<TRIPOS>ATOM
     1 C1         1.7406   -22.5963    14.1011 C.3        1 BB1          0.0000
     2 C2         0.5820   -21.6030    13.9924 C.3        1 BB1          0.0000
     3 C3        -0.3558   -22.0349    12.8633 C.3        1 BB1          0.0000
     4 C4        -0.1898   -21.5733    15.3131 C.3        1 BB1          0.0000
     5 O5         1.0966   -20.2998    13.7120 O.3        1 BB1          0.0000
     6 C6         0.0896   -19.3236    13.4384 C.3        1 BB1          0.0000
     7 C7        -0.2244   -19.1653    11.9413 C.3        1 BB1          0.0000
     8 C8        -0.3126   -17.6520    12.2003 C.3        1 BB1          0.0000
     9 N9         0.2852   -16.8368    11.1344 N.am       1 BB1          0.0000
    10 C10        0.6236   -17.8821    13.3984 C.3        1 BB1          0.0000
    11 C11        0.2535   -17.0570    14.6326 C.3        1 BB1          0.0000
    12 C12        2.1087   -17.7882    13.0427 C.3        1 BB1          0.0000
    13 H13        2.2905   -22.6176    13.1601 H          1 BB1          0.0000
    14 H14        2.4087   -22.2887    14.9055 H          1 BB1          0.0000
    15 H15        1.3480   -23.5905    14.3150 H          1 BB1          0.0000
    16 H16       -0.7483   -23.0290    13.0772 H          1 BB1          0.0000
    17 H17       -1.1813   -21.3272    12.7859 H          1 BB1          0.0000
    18 H18        0.1940   -22.0561    11.9223 H          1 BB1          0.0000
    19 H19        0.4782   -21.2656    16.1175 H          1 BB1          0.0000
    20 H20       -1.0153   -20.8656    15.2357 H          1 BB1          0.0000
    21 H21       -0.5824   -22.5674    15.5271 H          1 BB1          0.0000
    22 H22       -0.7976   -19.4450    14.0601 H          1 BB1          0.0000
    23 H23        0.6019   -19.4493    11.2896 H          1 BB1          0.0000
    24 H24       -1.1725   -19.6134    11.6442 H          1 BB1          0.0000
    25 H25       -1.3099   -17.3146    12.4822 H          1 BB1          0.0000
    26 H26       -0.8301   -17.0440    14.7495 H          1 BB1          0.0000
    27 H27        0.7091   -17.5020    15.5172 H          1 BB1          0.0000
    28 H28        0.6179   -16.0369    14.5103 H          1 BB1          0.0000
    29 H29        2.4021   -16.7403    12.9813 H          1 BB1          0.0000
    30 H30        2.6987   -18.2863    13.8121 H          1 BB1          0.0000
    31 H31        2.2832   -18.2714    12.0813 H          1 BB1          0.0000
    32 H34       -0.3690   -16.7487    10.3713 H          1 BB1          0.0000
    33 C2         0.9864   -15.6654    12.0206 C.2        2 BB2          0.0000
    34 O3         2.1974   -15.5995    12.1456 O.2        2 BB2          0.0000
    35 C4         0.3162   -15.0305    10.8295 C.3        2 BB2          0.0000
    36 C5        -0.7059   -13.9613    11.2751 C.3        2 BB2          0.0000
    37 N6        -0.6164   -12.8925    10.2732 N.am       2 BB2          0.0000
    38 C7         0.5153   -12.9905     9.5545 C.2        2 BB2          0.0000
    39 O8         0.8423   -12.2317     8.6666 O.2        2 BB2          0.0000
    40 C9         1.3218   -14.1850    10.0143 C.3        2 BB2          0.0000
    41 C10       -1.5851   -11.8982    10.0900 C.ar       2 BB2          0.0000
    42 C11       -1.1994   -10.5761     9.9146 C.ar       2 BB2          0.0000
    43 C12       -2.1559    -9.5957     9.7334 C.ar       2 BB2          0.0000
    44 C13       -3.4988    -9.9298     9.7271 C.ar       2 BB2          0.0000
    45 F14       -4.4322    -8.9694     9.5498 F          2 BB2          0.0000
    46 C15       -3.8874   -11.2498     9.9021 C.ar       2 BB2          0.0000
    47 F16       -5.1988   -11.5745     9.8952 F          2 BB2          0.0000
    48 C17       -2.9323   -12.2343    10.0779 C.ar       2 BB2          0.0000
    49 H18       -0.1577   -15.7858    10.2026 H          2 BB2          0.0000
    50 H19       -1.7111   -14.3826    11.2883 H          2 BB2          0.0000
    51 H20       -0.4442   -13.5770    12.2610 H          2 BB2          0.0000
    52 H21        2.1512   -13.8654    10.6453 H          2 BB2          0.0000
    53 H22        1.6889   -14.7501     9.1575 H          2 BB2          0.0000
    54 H23       -0.1517   -10.3141     9.9201 H          2 BB2          0.0000
    55 H24       -1.8553    -8.5674     9.5970 H          2 BB2          0.0000
    56 H25       -3.2342   -13.2622    10.2142 H          2 BB2          0.0000
@<TRIPOS>BOND
     1      1      2 1
     2      1     13 1
     3      1     14 1
     4      1     15 1
     5      2      3 1
     6      2      4 1
     7      2      5 1
     8      3     16 1
     9      3     17 1
    10      3     18 1
    11      4     19 1
    12      4     20 1
    13      4     21 1
    14      5      6 1
    15      6      7 1
    16      6     10 1
    17      6     22 1
    18      7      8 1
    19      7     23 1
    20      7     24 1
    21      8      9 1
    22      8     10 1
    23      8     25 1
    24      9     32 1
    25     10     11 1
    26     10     12 1
    27     11     26 1
    28     11     27 1
    29     11     28 1
    30     12     29 1
    31     12     30 1
    32     12     31 1
    33     33     34 2
    34     33     35 1
    35     35     36 1
    36     35     40 1
    37     35     49 1
    38     36     37 1
    39     36     50 1
    40     36     51 1
    41     37     38 am
    42     37     41 1
    43     38     39 2
    44     38     40 1
    45     40     52 1
    46     40     53 1
    47     41     42 ar
    48     41     48 ar
    49     42     43 ar
    50     42     54 1
    51     43     44 ar
    52     43     55 1
    53     44     45 1
    54     44     46 ar
    55     46     47 1
    56     46     48 ar
    57     48     56 1
    58      9     33 am
@<TRIPOS>SUBSTRUCTURE
     1 BB1           9
     2 BB2          33
@<TRIPOS>MOLECULE
EN300-124870_i001_EN300-1165841_i001_19_15_1
  51   53   2   0   0
SMALL
USER_CHARGES
@<TRIPOS>ATOM
     1 N1         1.8700   -19.8136    11.3043 N.am       1 BB1          0.0000
     2 C2         0.4749   -20.0501    11.6990 C.3        1 BB1          0.0000
     3 C3         0.0865   -19.7344    13.1451 C.3        1 BB1          0.0000
     4 C4         0.2032   -21.1867    12.6835 C.3        1 BB1          0.0000
     5 C5         1.4017   -21.9982    13.1844 C.3        1 BB1          0.0000
     6 C6         1.0072   -22.7184    14.4774 C.3        1 BB1          0.0000
     7 C7        -0.2244   -23.5882    14.2205 C.3        1 BB1          0.0000
     8 C8        -1.4092   -22.7057    13.8252 C.3        1 BB1          0.0000
     9 C9        -1.0925   -21.9849    12.5113 C.3        1 BB1          0.0000
    10 H10       -0.2704   -19.8646    10.9256 H          1 BB1          0.0000
    11 H11        0.8660   -19.3513    13.8036 H          1 BB1          0.0000
    12 H12       -0.9147   -19.3417    13.3231 H          1 BB1          0.0000
    13 H13        1.6867   -22.7318    12.4302 H          1 BB1          0.0000
    14 H14        2.2395   -21.3290    13.3801 H          1 BB1          0.0000
    15 H15        1.8332   -23.3472    14.8097 H          1 BB1          0.0000
    16 H16        0.7780   -21.9824    15.2480 H          1 BB1          0.0000
    17 H17       -0.0105   -24.2899    13.4145 H          1 BB1          0.0000
    18 H18       -0.4716   -24.1425    15.1260 H          1 BB1          0.0000
    19 H19       -2.2964   -23.3254    13.6952 H          1 BB1          0.0000
    20 H20       -1.5916   -21.9698    14.6086 H          1 BB1          0.0000
    21 H21       -1.9084   -21.3069    12.2610 H          1 BB1          0.0000
    22 H22       -0.9667   -22.7176    11.7141 H          1 BB1          0.0000
    23 H24        1.9662   -18.8709    10.9575 H          1 BB1          0.0000
    24 C1         0.6384   -15.9161    13.9931 C.3        2 BB2          0.0000
    25 C2         1.2587   -16.9663    13.0695 C.3        2 BB2          0.0000
    26 N3         1.2755   -16.4578    11.6914 N.4        2 BB2          1.0000
    27 C4         1.9456   -15.1523    11.6613 C.3        2 BB2          0.0000
    28 C5         2.0379   -14.6552    10.2171 C.3        2 BB2          0.0000
    29 C6         0.6264   -14.5196     9.6385 C.3        2 BB2          0.0000
    30 O7        -0.1000   -13.5351    10.3766 O.3        2 BB2          0.0000
    31 C8        -0.0893   -15.8694     9.7431 C.3        2 BB2          0.0000
    32 C9        -0.1027   -16.3215    11.2050 C.3        2 BB2          0.0000
    33 C10        0.7103   -14.1134     8.2262 C.1        2 BB2          0.0000
    34 C11        0.7773   -13.7894     7.0997 C.1        2 BB2          0.0000
    35 C12        0.4426   -18.2318    13.1281 C.2        2 BB2          0.0000
    36 O14       -0.5672   -18.2751    13.8100 O.2        2 BB2          0.0000
    37 H15       -0.3816   -15.7060    13.6709 H          2 BB2          0.0000
    38 H16        0.6259   -16.2934    15.0157 H          2 BB2          0.0000
    39 H17        1.2287   -15.0008    13.9507 H          2 BB2          0.0000
    40 H18        2.2786   -17.1766    13.3916 H          2 BB2          0.0000
    41 H19        1.3756   -14.4379    12.2553 H          2 BB2          0.0000
    42 H20        2.9488   -15.2497    12.0763 H          2 BB2          0.0000
    43 H21        2.5341   -13.6849    10.1971 H          2 BB2          0.0000
    44 H22        2.6081   -15.3688     9.6222 H          2 BB2          0.0000
    45 H23       -1.1135   -15.7672     9.3844 H          2 BB2          0.0000
    46 H24        0.4368   -16.6082     9.1385 H          2 BB2          0.0000
    47 H25       -0.6118   -17.2822    11.2831 H          2 BB2          0.0000
    48 H26       -0.6292   -15.5823    11.8086 H          2 BB2          0.0000
    49 H27        0.8371   -13.4996     6.0924 H          2 BB2          0.0000
    50 H28        0.4608   -12.9017    10.8452 H          2 BB2          0.0000
    51 H29        1.7758   -17.1053    11.1011 H          2 BB2          0.0000
@<TRIPOS>BOND
     1      1      2 1
     2      1     23 1
     3      2      3 1
     4      2      4 1
     5      2     10 1
     6      3      4 1
     7      3     11 1
     8      3     12 1
     9      4      5 1
    10      4      9 1
    11      5      6 1
    12      5     13 1
    13      5     14 1
    14      6      7 1
    15      6     15 1
    16      6     16 1
    17      7      8 1
    18      7     17 1
    19      7     18 1
    20      8      9 1
    21      8     19 1
    22      8     20 1
    23      9     21 1
    24      9     22 1
    25     24     25 1
    26     24     37 1
    27     24     38 1
    28     24     39 1
    29     25     26 1
    30     25     35 1
    31     25     40 1
    32     26     27 1
    33     26     32 1
    34     26     51 1
    35     27     28 1
    36     27     41 1
    37     27     42 1
    38     28     29 1
    39     28     43 1
    40     28     44 1
    41     29     30 1
    42     29     31 1
    43     29     33 1
    44     30     50 1
    45     31     32 1
    46     31     45 1
    47     31     46 1
    48     32     47 1
    49     32     48 1
    50     33     34 3
    51     34     49 1
    52     35     36 2
    53      1     35 am
@<TRIPOS>SUBSTRUCTURE
     1 BB1           1
     2 BB2          35
@<TRIPOS>MOLECULE
EN300-124870_i001_EN300-4287209_i001_2_4_1
  38   40   2   0   0
SMALL
USER_CHARGES
@<TRIPOS>ATOM
     1 N1         0.2028   -15.9522    10.2833 N.am       1 BB1          0.0000
     2 C2         0.4075   -14.8358     9.3507 C.3        1 BB1          0.0000
     3 C3         1.3310   -13.7010     9.7987 C.3        1 BB1          0.0000
     4 C4        -0.1797   -13.4785     9.7352 C.3        1 BB1          0.0000
     5 C5        -0.9408   -13.3803    11.0606 C.3        1 BB1          0.0000
     6 C6        -1.0090   -11.9102    11.4853 C.3        1 BB1          0.0000
     7 C7        -1.6605   -11.0882    10.3721 C.3        1 BB1          0.0000
     8 C8        -0.7968   -11.1460     9.1114 C.3        1 BB1          0.0000
     9 C9        -0.7216   -12.5915     8.6103 C.3        1 BB1          0.0000
    10 H10        0.4125   -15.1013     8.2935 H          1 BB1          0.0000
    11 H11        1.7867   -13.7826    10.7855 H          1 BB1          0.0000
    12 H12        1.9433   -13.2194     9.0362 H          1 BB1          0.0000
    13 H13       -1.9504   -13.7703    10.9316 H          1 BB1          0.0000
    14 H14       -0.4195   -13.9572    11.8244 H          1 BB1          0.0000
    15 H15       -1.6011   -11.8222    12.3962 H          1 BB1          0.0000
    16 H16       -0.0012   -11.5380    11.6696 H          1 BB1          0.0000
    17 H17       -2.6484   -11.4934    10.1534 H          1 BB1          0.0000
    18 H18       -1.7588   -10.0523    10.6969 H          1 BB1          0.0000
    19 H19       -1.2385   -10.5161     8.3392 H          1 BB1          0.0000
    20 H20        0.2069   -10.7885     9.3418 H          1 BB1          0.0000
    21 H21       -0.0549   -12.6453     7.7497 H          1 BB1          0.0000
    22 H22       -1.7172   -12.9312     8.3249 H          1 BB1          0.0000
    23 H23       -0.6808   -16.3977    10.0859 H          1 BB1          0.0000
    24 C2         0.1374   -15.9786    13.2675 C.2        2 BB2          0.0000
    25 O3         0.4732   -15.8862    14.4399 O.2        2 BB2          0.0000
    26 C4         0.0246   -17.3063    12.6353 C.ar       2 BB2          0.0000
    27 C5        -0.4127   -17.4178    11.3154 C.ar       2 BB2          0.0000
    28 C6        -0.5157   -18.6752    10.7265 C.ar       2 BB2          0.0000
    29 C7        -0.9632   -18.7981     9.3719 C.1        2 BB2          0.0000
    30 C8        -1.3302   -18.8989     8.2612 C.1        2 BB2          0.0000
    31 C9        -0.1813   -19.8166    11.4589 C.ar       2 BB2          0.0000
    32 C10        0.2505   -19.7020    12.7651 C.ar       2 BB2          0.0000
    33 C11        0.3614   -18.4578    13.3560 C.ar       2 BB2          0.0000
    34 Cl12       0.9055   -18.3238    14.9992 Cl         2 BB2          0.0000
    35 H13       -0.6705   -16.5327    10.7528 H          2 BB2          0.0000
    36 H14       -1.6582   -18.9891     7.2679 H          2 BB2          0.0000
    37 H15       -0.2613   -20.7919    11.0019 H          2 BB2          0.0000
    38 H16        0.5072   -20.5884    13.3261 H          2 BB2          0.0000
@<TRIPOS>BOND
     1      1      2 1
     2      1     23 1
     3      2      3 1
     4      2      4 1
     5      2     10 1
     6      3      4 1
     7      3     11 1
     8      3     12 1
     9      4      5 1
    10      4      9 1
    11      5      6 1
    12      5     13 1
    13      5     14 1
    14      6      7 1
    15      6     15 1
    16      6     16 1
    17      7      8 1
    18      7     17 1
    19      7     18 1
    20      8      9 1
    21      8     19 1
    22      8     20 1
    23      9     21 1
    24      9     22 1
    25     24     25 2
    26     24     26 1
    27     26     27 ar
    28     26     33 ar
    29     27     28 ar
    30     27     35 1
    31     28     29 1
    32     28     31 ar
    33     29     30 3
    34     30     36 1
    35     31     32 ar
    36     31     37 1
    37     32     33 ar
    38     32     38 1
    39     33     34 1
    40      1     24 am
@<TRIPOS>SUBSTRUCTURE
     1 BB1           1
     2 BB2          24
@<TRIPOS>MOLECULE
EN300-124870_i001_EN300-15782_i003_2_1_1
  57   59   2   0   0
SMALL
USER_CHARGES
@<TRIPOS>ATOM
     1 N1         0.2028   -15.9522    10.2833 N.am       1 BB1          0.0000
     2 C2         0.4075   -14.8358     9.3507 C.3        1 BB1          0.0000
     3 C3         1.3310   -13.7010     9.7987 C.3        1 BB1          0.0000
     4 C4        -0.1797   -13.4785     9.7352 C.3        1 BB1          0.0000
     5 C5        -0.9408   -13.3803    11.0606 C.3        1 BB1          0.0000
     6 C6        -1.0090   -11.9102    11.4853 C.3        1 BB1          0.0000
     7 C7        -1.6605   -11.0882    10.3721 C.3        1 BB1          0.0000
     8 C8        -0.7968   -11.1460     9.1114 C.3        1 BB1          0.0000
     9 C9        -0.7216   -12.5915     8.6103 C.3        1 BB1          0.0000
    10 H10        0.4125   -15.1013     8.2935 H          1 BB1          0.0000
    11 H11        1.7867   -13.7826    10.7855 H          1 BB1          0.0000
    12 H12        1.9433   -13.2194     9.0362 H          1 BB1          0.0000
    13 H13       -1.9504   -13.7703    10.9316 H          1 BB1          0.0000
    14 H14       -0.4195   -13.9572    11.8244 H          1 BB1          0.0000
    15 H15       -1.6011   -11.8222    12.3962 H          1 BB1          0.0000
    16 H16       -0.0012   -11.5380    11.6696 H          1 BB1          0.0000
    17 H17       -2.6484   -11.4934    10.1534 H          1 BB1          0.0000
    18 H18       -1.7588   -10.0523    10.6969 H          1 BB1          0.0000
    19 H19       -1.2385   -10.5161     8.3392 H          1 BB1          0.0000
    20 H20        0.2069   -10.7885     9.3418 H          1 BB1          0.0000
    21 H21       -0.0549   -12.6453     7.7497 H          1 BB1          0.0000
    22 H22       -1.7172   -12.9312     8.3249 H          1 BB1          0.0000
    23 H24        0.9492   -16.6225    10.1745 H          1 BB1          0.0000
    24 C1         2.8040   -17.0897    14.7732 C.3        2 BB2          0.0000
    25 C2         2.4576   -16.8604    13.3007 C.3        2 BB2          0.0000
    26 O3         3.3001   -17.6732    12.4810 O.3        2 BB2          0.0000
    27 C4         0.9943   -17.2346    13.0567 C.3        2 BB2          0.0000
    28 N5         0.8397   -17.7347    11.6884 N.pl3      2 BB2          0.0000
    29 S6        -0.3586   -18.8215    11.3345 S.o2       2 BB2          0.0000
    30 O7        -1.5562   -18.2922    11.8866 O.2        2 BB2          0.0000
    31 O8        -0.2136   -19.1445     9.9584 O.2        2 BB2          0.0000
    32 C9        -0.0065   -20.2966    12.2316 C.ar       2 BB2          0.0000
    33 C10        1.1015   -20.3563    13.0557 C.ar       2 BB2          0.0000
    34 C11        1.3777   -21.5139    13.7596 C.ar       2 BB2          0.0000
    35 C12        0.5457   -22.6109    13.6394 C.ar       2 BB2          0.0000
    36 C13        0.8472   -23.8727    14.4063 C.3        2 BB2          0.0000
    37 C14       -0.5633   -22.5507    12.8162 C.ar       2 BB2          0.0000
    38 C15       -1.4707   -23.7467    12.6856 C.3        2 BB2          0.0000
    39 C16       -0.8416   -21.3922    12.1155 C.ar       2 BB2          0.0000
    40 C17        0.1261   -16.0176    13.2478 C.2        2 BB2          0.0000
    41 O18       -0.0325   -15.5509    14.3629 O.2        2 BB2          0.0000
    42 H20        3.8466   -16.8233    14.9470 H          2 BB2          0.0000
    43 H21        2.1614   -16.4699    15.3984 H          2 BB2          0.0000
    44 H22        2.6508   -18.1396    15.0233 H          2 BB2          0.0000
    45 H23        2.6109   -15.8106    13.0506 H          2 BB2          0.0000
    46 H24        0.6947   -18.0090    13.7627 H          2 BB2          0.0000
    47 H25        1.7516   -19.4990    13.1496 H          2 BB2          0.0000
    48 H26        2.2439   -21.5608    14.4030 H          2 BB2          0.0000
    49 H27        0.3543   -23.8341    15.3777 H          2 BB2          0.0000
    50 H28        0.4814   -24.7339    13.8472 H          2 BB2          0.0000
    51 H29        1.9242   -23.9628    14.5487 H          2 BB2          0.0000
    52 H30       -2.2548   -23.6921    13.4408 H          2 BB2          0.0000
    53 H31       -1.9218   -23.7540    11.6934 H          2 BB2          0.0000
    54 H32       -0.8918   -24.6592    12.8283 H          2 BB2          0.0000
    55 H33       -1.7081   -21.3452    11.4724 H          2 BB2          0.0000
    56 H34        3.2428   -17.4720    11.5370 H          2 BB2          0.0000
    57 H35        1.4393   -17.4293    10.9898 H          2 BB2          0.0000
@<TRIPOS>BOND
     1      1      2 1
     2      1     23 1
     3      2      3 1
     4      2      4 1
     5      2     10 1
     6      3      4 1
     7      3     11 1
     8      3     12 1
     9      4      5 1
    10      4      9 1
    11      5      6 1
    12      5     13 1
    13      5     14 1
    14      6      7 1
    15      6     15 1
    16      6     16 1
    17      7      8 1
    18      7     17 1
    19      7     18 1
    20      8      9 1
    21      8     19 1
    22      8     20 1
    23      9     21 1
    24      9     22 1
    25     24     25 1
    26     24     42 1
    27     24     43 1
    28     24     44 1
    29     25     26 1
    30     25     27 1
    31     25     45 1
    32     26     56 1
    33     27     28 1
    34     27     40 1
    35     27     46 1
    36     28     29 1
    37     28     57 1
    38     29     30 2
    39     29     31 2
    40     29     32 1
    41     32     33 ar
    42     32     39 ar
    43     33     34 ar
    44     33     47 1
    45     34     35 ar
    46     34     48 1
    47     35     36 1
    48     35     37 ar
    49     36     49 1
    50     36     50 1
    51     36     51 1
    52     37     38 1
    53     37     39 ar
    54     38     52 1
    55     38     53 1
    56     38     54 1
    57     39     55 1
    58     40     41 2
    59      1     40 am
@<TRIPOS>SUBSTRUCTURE
     1 BB1           1
     2 BB2          40
@<TRIPOS>MOLECULE
EN300-124870_i001_EN300-15782_i003_2_6_1
  57   59   2   0   0
SMALL
USER_CHARGES
@<TRIPOS>ATOM
     1 N1         0.2028   -15.9522    10.2833 N.am       1 BB1          0.0000
     2 C2         0.4075   -14.8358     9.3507 C.3        1 BB1          0.0000
     3 C3         1.3310   -13.7010     9.7987 C.3        1 BB1          0.0000
     4 C4        -0.1797   -13.4785     9.7352 C.3        1 BB1          0.0000
     5 C5        -0.9408   -13.3803    11.0606 C.3        1 BB1          0.0000
     6 C6        -1.0090   -11.9102    11.4853 C.3        1 BB1          0.0000
     7 C7        -1.6605   -11.0882    10.3721 C.3        1 BB1          0.0000
     8 C8        -0.7968   -11.1460     9.1114 C.3        1 BB1          0.0000
     9 C9        -0.7216   -12.5915     8.6103 C.3        1 BB1          0.0000
    10 H10        0.4125   -15.1013     8.2935 H          1 BB1          0.0000
    11 H11        1.7867   -13.7826    10.7855 H          1 BB1          0.0000
    12 H12        1.9433   -13.2194     9.0362 H          1 BB1          0.0000
    13 H13       -1.9504   -13.7703    10.9316 H          1 BB1          0.0000
    14 H14       -0.4195   -13.9572    11.8244 H          1 BB1          0.0000
    15 H15       -1.6011   -11.8222    12.3962 H          1 BB1          0.0000
    16 H16       -0.0012   -11.5380    11.6696 H          1 BB1          0.0000
    17 H17       -2.6484   -11.4934    10.1534 H          1 BB1          0.0000
    18 H18       -1.7588   -10.0523    10.6969 H          1 BB1          0.0000
    19 H19       -1.2385   -10.5161     8.3392 H          1 BB1          0.0000
    20 H20        0.2069   -10.7885     9.3418 H          1 BB1          0.0000
    21 H21       -0.0549   -12.6453     7.7497 H          1 BB1          0.0000
    22 H22       -1.7172   -12.9312     8.3249 H          1 BB1          0.0000
    23 H24        0.9492   -16.6225    10.1745 H          1 BB1          0.0000
    24 C1         2.0709   -17.5199    14.3312 C.3        2 BB2          0.0000
    25 C2         2.1075   -16.5245    13.1698 C.3        2 BB2          0.0000
    26 O3         3.2140   -16.8273    12.3176 O.3        2 BB2          0.0000
    27 C4         0.8063   -16.6246    12.3711 C.3        2 BB2          0.0000
    28 N5         0.9157   -17.7103    11.3936 N.pl3      2 BB2          0.0000
    29 S6        -0.3271   -18.7896    11.2125 S.o2       2 BB2          0.0000
    30 O7        -1.4574   -18.2108    11.8500 O.2        2 BB2          0.0000
    31 O8        -0.3215   -19.1825     9.8469 O.2        2 BB2          0.0000
    32 C9         0.0891   -20.2255    12.1449 C.ar       2 BB2          0.0000
    33 C10        1.2108   -20.2238    12.9525 C.ar       2 BB2          0.0000
    34 C11        1.5374   -21.3506    13.6842 C.ar       2 BB2          0.0000
    35 C12        0.7421   -22.4784    13.6083 C.ar       2 BB2          0.0000
    36 C13        1.0985   -23.7067    14.4054 C.3        2 BB2          0.0000
    37 C14       -0.3806   -22.4796    12.8015 C.ar       2 BB2          0.0000
    38 C15       -1.2480   -23.7091    12.7192 C.3        2 BB2          0.0000
    39 C16       -0.7093   -21.3519    12.0731 C.ar       2 BB2          0.0000
    40 C17        0.5573   -15.3240    11.6517 C.2        2 BB2          0.0000
    41 O19       -0.4202   -14.6507    11.9302 O.2        2 BB2          0.0000
    42 H20        2.9979   -17.4487    14.9001 H          2 BB2          0.0000
    43 H21        1.2269   -17.2891    14.9811 H          2 BB2          0.0000
    44 H22        1.9618   -18.5313    13.9395 H          2 BB2          0.0000
    45 H23        2.2166   -15.5131    13.5614 H          2 BB2          0.0000
    46 H24       -0.0217   -16.8287    13.0498 H          2 BB2          0.0000
    47 H25        1.8323   -19.3425    13.0118 H          2 BB2          0.0000
    48 H26        2.4143   -21.3496    14.3147 H          2 BB2          0.0000
    49 H27        0.6192   -23.6571    15.3831 H          2 BB2          0.0000
    50 H28        0.7542   -24.5955    13.8767 H          2 BB2          0.0000
    51 H29        2.1799   -23.7560    14.5330 H          2 BB2          0.0000
    52 H30       -2.0221   -23.6597    13.4850 H          2 BB2          0.0000
    53 H31       -1.7135   -23.7602    11.7349 H          2 BB2          0.0000
    54 H32       -0.6359   -24.5969    12.8782 H          2 BB2          0.0000
    55 H33       -1.5864   -21.3528    11.4429 H          2 BB2          0.0000
    56 H34        2.9957   -16.8297    11.3756 H          2 BB2          0.0000
    57 H35        1.7160   -17.7969    10.8524 H          2 BB2          0.0000
@<TRIPOS>BOND
     1      1      2 1
     2      1     23 1
     3      2      3 1
     4      2      4 1
     5      2     10 1
     6      3      4 1
     7      3     11 1
     8      3     12 1
     9      4      5 1
    10      4      9 1
    11      5      6 1
    12      5     13 1
    13      5     14 1
    14      6      7 1
    15      6     15 1
    16      6     16 1
    17      7      8 1
    18      7     17 1
    19      7     18 1
    20      8      9 1
    21      8     19 1
    22      8     20 1
    23      9     21 1
    24      9     22 1
    25     24     25 1
    26     24     42 1
    27     24     43 1
    28     24     44 1
    29     25     26 1
    30     25     27 1
    31     25     45 1
    32     26     56 1
    33     27     28 1
    34     27     40 1
    35     27     46 1
    36     28     29 1
    37     28     57 1
    38     29     30 2
    39     29     31 2
    40     29     32 1
    41     32     33 ar
    42     32     39 ar
    43     33     34 ar
    44     33     47 1
    45     34     35 ar
    46     34     48 1
    47     35     36 1
    48     35     37 ar
    49     36     49 1
    50     36     50 1
    51     36     51 1
    52     37     38 1
    53     37     39 ar
    54     38     52 1
    55     38     53 1
    56     38     54 1
    57     39     55 1
    58     40     41 2
    59      1     40 am
@<TRIPOS>SUBSTRUCTURE
     1 BB1           1
     2 BB2          40
@<TRIPOS>MOLECULE
EN300-124870_i001_EN300-1165841_i001_4_10_1
  51   53   2   0   0
SMALL
USER_CHARGES
@<TRIPOS>ATOM
     1 N1         2.3112   -15.4061    11.1322 N.am       1 BB1          0.0000
     2 C2         1.2779   -14.3661    11.0394 C.3        1 BB1          0.0000
     3 C3        -0.0477   -14.7443    10.3749 C.3        1 BB1          0.0000
     4 C4         0.9389   -13.8302     9.6491 C.3        1 BB1          0.0000
     5 C5         1.7015   -14.4120     8.4551 C.3        1 BB1          0.0000
     6 C6         0.9081   -14.1307     7.1754 C.3        1 BB1          0.0000
     7 C7         0.6712   -12.6254     7.0435 C.3        1 BB1          0.0000
     8 C8        -0.1821   -12.1304     8.2122 C.3        1 BB1          0.0000
     9 C9         0.5762   -12.3474     9.5253 C.3        1 BB1          0.0000
    10 H10        1.2411   -13.6642    11.8726 H          1 BB1          0.0000
    11 H11       -0.1531   -15.7647    10.0065 H          1 BB1          0.0000
    12 H12       -0.9565   -14.2908    10.7706 H          1 BB1          0.0000
    13 H13        2.6836   -13.9441     8.3861 H          1 BB1          0.0000
    14 H14        1.8163   -15.4881     8.5845 H          1 BB1          0.0000
    15 H15        1.4713   -14.4869     6.3129 H          1 BB1          0.0000
    16 H16       -0.0509   -14.6468     7.2215 H          1 BB1          0.0000
    17 H17        1.6294   -12.1061     7.0490 H          1 BB1          0.0000
    18 H18        0.1548   -12.4209     6.1057 H          1 BB1          0.0000
    19 H19       -0.3917   -11.0684     8.0848 H          1 BB1          0.0000
    20 H20       -1.1199   -12.6854     8.2382 H          1 BB1          0.0000
    21 H21       -0.0552   -12.0548    10.3641 H          1 BB1          0.0000
    22 H22        1.4864   -11.7477     9.5246 H          1 BB1          0.0000
    23 H23        2.2048   -16.0552    10.3669 H          1 BB1          0.0000
    24 C1        -0.7086   -16.1151    14.9647 C.3        2 BB2          0.0000
    25 C2        -0.2456   -16.3017    13.5184 C.3        2 BB2          0.0000
    26 N3        -0.6091   -17.6484    13.0577 N.4        2 BB2          1.0000
    27 C4         0.1821   -18.6446    13.7899 C.3        2 BB2          0.0000
    28 C5        -0.2499   -20.0519    13.3722 C.3        2 BB2          0.0000
    29 C6        -0.0237   -20.2238    11.8674 C.3        2 BB2          0.0000
    30 O7         1.3709   -20.1085    11.5776 O.3        2 BB2          0.0000
    31 C8        -0.7944   -19.1335    11.1174 C.3        2 BB2          0.0000
    32 C9        -0.3422   -17.7602    11.6187 C.3        2 BB2          0.0000
    33 C10       -0.5062   -21.5488    11.4453 C.1        2 BB2          0.0000
    34 C11       -0.8911   -22.6057    11.1088 C.1        2 BB2          0.0000
    35 C12        1.2499   -16.1319    13.4438 C.2        2 BB2          0.0000
    36 O14        1.8887   -15.9021    14.4566 O.2        2 BB2          0.0000
    37 H15       -0.2264   -16.8588    15.5993 H          2 BB2          0.0000
    38 H16       -0.4388   -15.1159    15.3066 H          2 BB2          0.0000
    39 H17       -1.7903   -16.2380    15.0186 H          2 BB2          0.0000
    40 H18       -0.7277   -15.5581    12.8838 H          2 BB2          0.0000
    41 H19        1.2392   -18.5070    13.5624 H          2 BB2          0.0000
    42 H20        0.0225   -18.5189    14.8608 H          2 BB2          0.0000
    43 H21        0.3399   -20.7900    13.9156 H          2 BB2          0.0000
    44 H22       -1.3069   -20.1906    13.5996 H          2 BB2          0.0000
    45 H23       -0.5938   -19.2152    10.0492 H          2 BB2          0.0000
    46 H24       -1.8626   -19.2532    11.2980 H          2 BB2          0.0000
    47 H25       -0.8888   -16.9816    11.0867 H          2 BB2          0.0000
    48 H26        0.7260   -17.6415    11.4374 H          2 BB2          0.0000
    49 H27       -1.2353   -23.5508    10.8077 H          2 BB2          0.0000
    50 H28        1.5903   -20.2342    10.6442 H          2 BB2          0.0000
    51 H29       -1.5906   -17.8078    13.2291 H          2 BB2          0.0000
@<TRIPOS>BOND
     1      1      2 1
     2      1     23 1
     3      2      3 1
     4      2      4 1
     5      2     10 1
     6      3      4 1
     7      3     11 1
     8      3     12 1
     9      4      5 1
    10      4      9 1
    11      5      6 1
    12      5     13 1
    13      5     14 1
    14      6      7 1
    15      6     15 1
    16      6     16 1
    17      7      8 1
    18      7     17 1
    19      7     18 1
    20      8      9 1
    21      8     19 1
    22      8     20 1
    23      9     21 1
    24      9     22 1
    25     24     25 1
    26     24     37 1
    27     24     38 1
    28     24     39 1
    29     25     26 1
    30     25     35 1
    31     25     40 1
    32     26     27 1
    33     26     32 1
    34     26     51 1
    35     27     28 1
    36     27     41 1
    37     27     42 1
    38     28     29 1
    39     28     43 1
    40     28     44 1
    41     29     30 1
    42     29     31 1
    43     29     33 1
    44     30     50 1
    45     31     32 1
    46     31     45 1
    47     31     46 1
    48     32     47 1
    49     32     48 1
    50     33     34 3
    51     34     49 1
    52     35     36 2
    53      1     35 am
@<TRIPOS>SUBSTRUCTURE
     1 BB1           1
     2 BB2          35
@<TRIPOS>MOLECULE
EN300-124870_i001_EN300-34862_i002_4_1_1
  35   37   2   0   0
SMALL
USER_CHARGES
@<TRIPOS>ATOM
     1 N1         2.3112   -15.4061    11.1322 N.am       1 BB1          0.0000
     2 C2         1.2779   -14.3661    11.0394 C.3        1 BB1          0.0000
     3 C3        -0.0477   -14.7443    10.3749 C.3        1 BB1          0.0000
     4 C4         0.9389   -13.8302     9.6491 C.3        1 BB1          0.0000
     5 C5         1.7015   -14.4120     8.4551 C.3        1 BB1          0.0000
     6 C6         0.9081   -14.1307     7.1754 C.3        1 BB1          0.0000
     7 C7         0.6712   -12.6254     7.0435 C.3        1 BB1          0.0000
     8 C8        -0.1821   -12.1304     8.2122 C.3        1 BB1          0.0000
     9 C9         0.5762   -12.3474     9.5253 C.3        1 BB1          0.0000
    10 H10        1.2411   -13.6642    11.8726 H          1 BB1          0.0000
    11 H11       -0.1531   -15.7647    10.0065 H          1 BB1          0.0000
    12 H12       -0.9565   -14.2908    10.7706 H          1 BB1          0.0000
    13 H13        2.6836   -13.9441     8.3861 H          1 BB1          0.0000
    14 H14        1.8163   -15.4881     8.5845 H          1 BB1          0.0000
    15 H15        1.4713   -14.4869     6.3129 H          1 BB1          0.0000
    16 H16       -0.0509   -14.6468     7.2215 H          1 BB1          0.0000
    17 H17        1.6294   -12.1061     7.0490 H          1 BB1          0.0000
    18 H18        0.1548   -12.4209     6.1057 H          1 BB1          0.0000
    19 H19       -0.3917   -11.0684     8.0848 H          1 BB1          0.0000
    20 H20       -1.1199   -12.6854     8.2382 H          1 BB1          0.0000
    21 H21       -0.0552   -12.0548    10.3641 H          1 BB1          0.0000
    22 H22        1.4864   -11.7477     9.5246 H          1 BB1          0.0000
    23 H23        2.2048   -16.0552    10.3669 H          1 BB1          0.0000
    24 O1         0.9775   -15.9087    14.1996 O.2        2 BB2          0.0000
    25 C2         1.7110   -16.2827    13.3004 C.2        2 BB2          0.0000
    26 C4         2.4553   -17.5868    13.4281 C.3        2 BB2          0.0000
    27 C5         2.0008   -18.2992    14.7086 C.3        2 BB2          0.0000
    28 S6         1.3339   -19.8858    14.1146 S.3        2 BB2          0.0000
    29 C7         1.6432   -19.5854    12.4010 C.2        2 BB2          0.0000
    30 O8         1.3812   -20.3543    11.4960 O.2        2 BB2          0.0000
    31 N9         2.2058   -18.3893    12.2522 N.am       2 BB2          0.0000
    32 H10        3.5235   -17.3808    13.4958 H          2 BB2          0.0000
    33 H11        2.8475   -18.4656    15.3747 H          2 BB2          0.0000
    34 H12        1.2247   -17.7226    15.2121 H          2 BB2          0.0000
    35 H13        2.4438   -18.0617    11.3709 H          2 BB2          0.0000
@<TRIPOS>BOND
     1      1      2 1
     2      1     23 1
     3      2      3 1
     4      2      4 1
     5      2     10 1
     6      3      4 1
     7      3     11 1
     8      3     12 1
     9      4      5 1
    10      4      9 1
    11      5      6 1
    12      5     13 1
    13      5     14 1
    14      6      7 1
    15      6     15 1
    16      6     16 1
    17      7      8 1
    18      7     17 1
    19      7     18 1
    20      8      9 1
    21      8     19 1
    22      8     20 1
    23      9     21 1
    24      9     22 1
    25     24     25 2
    26     25     26 1
    27     26     27 1
    28     26     31 1
    29     26     32 1
    30     27     28 1
    31     27     33 1
    32     27     34 1
    33     28     29 1
    34     29     30 2
    35     29     31 am
    36     31     35 1
    37      1     25 am
@<TRIPOS>SUBSTRUCTURE
     1 BB1           1
     2 BB2          25
@<TRIPOS>MOLECULE
EN300-124870_i001_EN300-34862_i002_4_14_1
  35   37   2   0   0
SMALL
USER_CHARGES
@<TRIPOS>ATOM
     1 N1         2.3112   -15.4061    11.1322 N.am       1 BB1          0.0000
     2 C2         1.2779   -14.3661    11.0394 C.3        1 BB1          0.0000
     3 C3        -0.0477   -14.7443    10.3749 C.3        1 BB1          0.0000
     4 C4         0.9389   -13.8302     9.6491 C.3        1 BB1          0.0000
     5 C5         1.7015   -14.4120     8.4551 C.3        1 BB1          0.0000
     6 C6         0.9081   -14.1307     7.1754 C.3        1 BB1          0.0000
     7 C7         0.6712   -12.6254     7.0435 C.3        1 BB1          0.0000
     8 C8        -0.1821   -12.1304     8.2122 C.3        1 BB1          0.0000
     9 C9         0.5762   -12.3474     9.5253 C.3        1 BB1          0.0000
    10 H10        1.2411   -13.6642    11.8726 H          1 BB1          0.0000
    11 H11       -0.1531   -15.7647    10.0065 H          1 BB1          0.0000
    12 H12       -0.9565   -14.2908    10.7706 H          1 BB1          0.0000
    13 H13        2.6836   -13.9441     8.3861 H          1 BB1          0.0000
    14 H14        1.8163   -15.4881     8.5845 H          1 BB1          0.0000
    15 H15        1.4713   -14.4869     6.3129 H          1 BB1          0.0000
    16 H16       -0.0509   -14.6468     7.2215 H          1 BB1          0.0000
    17 H17        1.6294   -12.1061     7.0490 H          1 BB1          0.0000
    18 H18        0.1548   -12.4209     6.1057 H          1 BB1          0.0000
    19 H19       -0.3917   -11.0684     8.0848 H          1 BB1          0.0000
    20 H20       -1.1199   -12.6854     8.2382 H          1 BB1          0.0000
    21 H21       -0.0552   -12.0548    10.3641 H          1 BB1          0.0000
    22 H22        1.4864   -11.7477     9.5246 H          1 BB1          0.0000
    23 H23        2.2048   -16.0552    10.3669 H          1 BB1          0.0000
    24 C2         0.8251   -16.2952    13.2882 C.2        2 BB2          0.0000
    25 O3         0.8709   -15.8251    14.4122 O.2        2 BB2          0.0000
    26 C4         1.0108   -17.7766    13.0830 C.3        2 BB2          0.0000
    27 C5        -0.0651   -18.5304    13.8755 C.3        2 BB2          0.0000
    28 S6        -0.9625   -19.4773    12.6055 S.3        2 BB2          0.0000
    29 C7         0.0017   -18.9102    11.2376 C.2        2 BB2          0.0000
    30 O8        -0.1655   -19.2378    10.0784 O.2        2 BB2          0.0000
    31 N9         0.9376   -18.0697    11.6695 N.am       2 BB2          0.0000
    32 H10        1.9940   -18.0661    13.4540 H          2 BB2          0.0000
    33 H11        0.3944   -19.2026    14.6002 H          2 BB2          0.0000
    34 H12       -0.7345   -17.8292    14.3739 H          2 BB2          0.0000
    35 H13        1.5594   -17.6608    11.0474 H          2 BB2          0.0000
@<TRIPOS>BOND
     1      1      2 1
     2      1     23 1
     3      2      3 1
     4      2      4 1
     5      2     10 1
     6      3      4 1
     7      3     11 1
     8      3     12 1
     9      4      5 1
    10      4      9 1
    11      5      6 1
    12      5     13 1
    13      5     14 1
    14      6      7 1
    15      6     15 1
    16      6     16 1
    17      7      8 1
    18      7     17 1
    19      7     18 1
    20      8      9 1
    21      8     19 1
    22      8     20 1
    23      9     21 1
    24      9     22 1
    25     24     25 2
    26     24     26 1
    27     26     27 1
    28     26     31 1
    29     26     32 1
    30     27     28 1
    31     27     33 1
    32     27     34 1
    33     28     29 1
    34     29     30 2
    35     29     31 am
    36     31     35 1
    37      1     24 am
@<TRIPOS>SUBSTRUCTURE
     1 BB1           1
     2 BB2          24
@<TRIPOS>MOLECULE
EN300-124870_i001_EN300-34862_i002_4_3_1
  35   37   2   0   0
SMALL
USER_CHARGES
@<TRIPOS>ATOM
     1 N1         2.3112   -15.4061    11.1322 N.am       1 BB1          0.0000
     2 C2         1.2779   -14.3661    11.0394 C.3        1 BB1          0.0000
     3 C3        -0.0477   -14.7443    10.3749 C.3        1 BB1          0.0000
     4 C4         0.9389   -13.8302     9.6491 C.3        1 BB1          0.0000
     5 C5         1.7015   -14.4120     8.4551 C.3        1 BB1          0.0000
     6 C6         0.9081   -14.1307     7.1754 C.3        1 BB1          0.0000
     7 C7         0.6712   -12.6254     7.0435 C.3        1 BB1          0.0000
     8 C8        -0.1821   -12.1304     8.2122 C.3        1 BB1          0.0000
     9 C9         0.5762   -12.3474     9.5253 C.3        1 BB1          0.0000
    10 H10        1.2411   -13.6642    11.8726 H          1 BB1          0.0000
    11 H11       -0.1531   -15.7647    10.0065 H          1 BB1          0.0000
    12 H12       -0.9565   -14.2908    10.7706 H          1 BB1          0.0000
    13 H13        2.6836   -13.9441     8.3861 H          1 BB1          0.0000
    14 H14        1.8163   -15.4881     8.5845 H          1 BB1          0.0000
    15 H15        1.4713   -14.4869     6.3129 H          1 BB1          0.0000
    16 H16       -0.0509   -14.6468     7.2215 H          1 BB1          0.0000
    17 H17        1.6294   -12.1061     7.0490 H          1 BB1          0.0000
    18 H18        0.1548   -12.4209     6.1057 H          1 BB1          0.0000
    19 H19       -0.3917   -11.0684     8.0848 H          1 BB1          0.0000
    20 H20       -1.1199   -12.6854     8.2382 H          1 BB1          0.0000
    21 H21       -0.0552   -12.0548    10.3641 H          1 BB1          0.0000
    22 H22        1.4864   -11.7477     9.5246 H          1 BB1          0.0000
    23 H23        2.2048   -16.0552    10.3669 H          1 BB1          0.0000
    24 O1         0.8494   -16.1347    14.3982 O.2        2 BB2          0.0000
    25 C2         1.5373   -16.5492    13.4809 C.2        2 BB2          0.0000
    26 C4         1.8134   -18.0252    13.3532 C.3        2 BB2          0.0000
    27 C5         1.0261   -18.7770    14.4343 C.3        2 BB2          0.0000
    28 S6        -0.0426   -19.9094    13.4907 S.3        2 BB2          0.0000
    29 C7         0.5226   -19.4077    11.8934 C.2        2 BB2          0.0000
    30 O8         0.1265   -19.8593    10.8359 O.2        2 BB2          0.0000
    31 N9         1.4468   -18.4603    12.0245 N.am       2 BB2          0.0000
    32 H10        2.8788   -18.2013    13.5019 H          2 BB2          0.0000
    33 H11        1.7025   -19.3380    15.0793 H          2 BB2          0.0000
    34 H12        0.4242   -18.0832    15.0212 H          2 BB2          0.0000
    35 H13        1.8667   -18.0683    11.2429 H          2 BB2          0.0000
@<TRIPOS>BOND
     1      1      2 1
     2      1     23 1
     3      2      3 1
     4      2      4 1
     5      2     10 1
     6      3      4 1
     7      3     11 1
     8      3     12 1
     9      4      5 1
    10      4      9 1
    11      5      6 1
    12      5     13 1
    13      5     14 1
    14      6      7 1
    15      6     15 1
    16      6     16 1
    17      7      8 1
    18      7     17 1
    19      7     18 1
    20      8      9 1
    21      8     19 1
    22      8     20 1
    23      9     21 1
    24      9     22 1
    25     24     25 2
    26     25     26 1
    27     26     27 1
    28     26     31 1
    29     26     32 1
    30     27     28 1
    31     27     33 1
    32     27     34 1
    33     28     29 1
    34     29     30 2
    35     29     31 am
    36     31     35 1
    37      1     25 am
@<TRIPOS>SUBSTRUCTURE
     1 BB1           1
     2 BB2          25
@<TRIPOS>MOLECULE
EN300-124870_i001_EN300-15782_i003_4_11_1
  57   59   2   0   0
SMALL
USER_CHARGES
@<TRIPOS>ATOM
     1 N1         2.3112   -15.4061    11.1322 N.am       1 BB1          0.0000
     2 C2         1.2779   -14.3661    11.0394 C.3        1 BB1          0.0000
     3 C3        -0.0477   -14.7443    10.3749 C.3        1 BB1          0.0000
     4 C4         0.9389   -13.8302     9.6491 C.3        1 BB1          0.0000
     5 C5         1.7015   -14.4120     8.4551 C.3        1 BB1          0.0000
     6 C6         0.9081   -14.1307     7.1754 C.3        1 BB1          0.0000
     7 C7         0.6712   -12.6254     7.0435 C.3        1 BB1          0.0000
     8 C8        -0.1821   -12.1304     8.2122 C.3        1 BB1          0.0000
     9 C9         0.5762   -12.3474     9.5253 C.3        1 BB1          0.0000
    10 H10        1.2411   -13.6642    11.8726 H          1 BB1          0.0000
    11 H11       -0.1531   -15.7647    10.0065 H          1 BB1          0.0000
    12 H12       -0.9565   -14.2908    10.7706 H          1 BB1          0.0000
    13 H13        2.6836   -13.9441     8.3861 H          1 BB1          0.0000
    14 H14        1.8163   -15.4881     8.5845 H          1 BB1          0.0000
    15 H15        1.4713   -14.4869     6.3129 H          1 BB1          0.0000
    16 H16       -0.0509   -14.6468     7.2215 H          1 BB1          0.0000
    17 H17        1.6294   -12.1061     7.0490 H          1 BB1          0.0000
    18 H18        0.1548   -12.4209     6.1057 H          1 BB1          0.0000
    19 H19       -0.3917   -11.0684     8.0848 H          1 BB1          0.0000
    20 H20       -1.1199   -12.6854     8.2382 H          1 BB1          0.0000
    21 H21       -0.0552   -12.0548    10.3641 H          1 BB1          0.0000
    22 H22        1.4864   -11.7477     9.5246 H          1 BB1          0.0000
    23 H24        3.2239   -14.9785    11.0860 H          1 BB1          0.0000
    24 C1         2.3888   -16.8238    14.4189 C.3        2 BB2          0.0000
    25 C2         1.9103   -16.1792    13.1165 C.3        2 BB2          0.0000
    26 O3         2.9070   -16.3493    12.1065 O.3        2 BB2          0.0000
    27 C4         0.6087   -16.8453    12.6658 C.3        2 BB2          0.0000
    28 N5         0.8534   -18.2651    12.4000 N.pl3      2 BB2          0.0000
    29 S6        -0.3647   -19.2187    11.8092 S.o2       2 BB2          0.0000
    30 O7        -1.5814   -18.6453    12.2674 O.2        2 BB2          0.0000
    31 O8        -0.0757   -19.4327    10.4344 O.2        2 BB2          0.0000
    32 C9        -0.2267   -20.7888    12.5969 C.ar       2 BB2          0.0000
    33 C10        0.9570   -21.1520    13.2110 C.ar       2 BB2          0.0000
    34 C11        1.0653   -22.3840    13.8291 C.ar       2 BB2          0.0000
    35 C12       -0.0101   -23.2521    13.8331 C.ar       2 BB2          0.0000
    36 C13        0.1082   -24.5951    14.5064 C.3        2 BB2          0.0000
    37 C14       -1.1946   -22.8882    13.2199 C.ar       2 BB2          0.0000
    38 C15       -2.3673   -23.8345    13.2247 C.3        2 BB2          0.0000
    39 C16       -1.3041   -21.6550    12.6054 C.ar       2 BB2          0.0000
    40 C17        0.1114   -16.1775    11.4097 C.2        2 BB2          0.0000
    41 O19       -0.1342   -16.8460    10.4202 O.2        2 BB2          0.0000
    42 H20        3.3161   -16.3492    14.7399 H          2 BB2          0.0000
    43 H21        1.6286   -16.6940    15.1892 H          2 BB2          0.0000
    44 H22        2.5626   -17.8873    14.2555 H          2 BB2          0.0000
    45 H23        1.7365   -15.1155    13.2799 H          2 BB2          0.0000
    46 H24       -0.1407   -16.7465    13.4510 H          2 BB2          0.0000
    47 H25        1.7974   -20.4736    13.2080 H          2 BB2          0.0000
    48 H26        1.9905   -22.6682    14.3085 H          2 BB2          0.0000
    49 H27       -0.1932   -24.5062    15.5500 H          2 BB2          0.0000
    50 H28       -0.5383   -25.3129    14.0014 H          2 BB2          0.0000
    51 H29        1.1417   -24.9378    14.4545 H          2 BB2          0.0000
    52 H30       -2.9797   -23.6499    14.1073 H          2 BB2          0.0000
    53 H31       -2.9659   -23.6760    12.3276 H          2 BB2          0.0000
    54 H32       -2.0048   -24.8623    13.2426 H          2 BB2          0.0000
    55 H33       -2.2295   -21.3707    12.1264 H          2 BB2          0.0000
    56 H34        2.5702   -16.7226    11.2806 H          2 BB2          0.0000
    57 H35        1.7288   -18.6466    12.5701 H          2 BB2          0.0000
@<TRIPOS>BOND
     1      1      2 1
     2      1     23 1
     3      2      3 1
     4      2      4 1
     5      2     10 1
     6      3      4 1
     7      3     11 1
     8      3     12 1
     9      4      5 1
    10      4      9 1
    11      5      6 1
    12      5     13 1
    13      5     14 1
    14      6      7 1
    15      6     15 1
    16      6     16 1
    17      7      8 1
    18      7     17 1
    19      7     18 1
    20      8      9 1
    21      8     19 1
    22      8     20 1
    23      9     21 1
    24      9     22 1
    25     24     25 1
    26     24     42 1
    27     24     43 1
    28     24     44 1
    29     25     26 1
    30     25     27 1
    31     25     45 1
    32     26     56 1
    33     27     28 1
    34     27     40 1
    35     27     46 1
    36     28     29 1
    37     28     57 1
    38     29     30 2
    39     29     31 2
    40     29     32 1
    41     32     33 ar
    42     32     39 ar
    43     33     34 ar
    44     33     47 1
    45     34     35 ar
    46     34     48 1
    47     35     36 1
    48     35     37 ar
    49     36     49 1
    50     36     50 1
    51     36     51 1
    52     37     38 1
    53     37     39 ar
    54     38     52 1
    55     38     53 1
    56     38     54 1
    57     39     55 1
    58     40     41 2
    59      1     40 am
@<TRIPOS>SUBSTRUCTURE
     1 BB1           1
     2 BB2          40
@<TRIPOS>MOLECULE
EN300-124870_i001_EN300-1198129_i001_5_11_1
  47   49   2   0   0
SMALL
USER_CHARGES
@<TRIPOS>ATOM
     1 N1         1.3878   -15.2052    10.9410 N.am       1 BB1          0.0000
     2 C2         0.3197   -15.8331    11.7303 C.3        1 BB1          0.0000
     3 C3         0.0809   -15.3015    13.1452 C.3        1 BB1          0.0000
     4 C4         0.7347   -16.6678    12.9411 C.3        1 BB1          0.0000
     5 C5         2.2311   -16.7925    13.2424 C.3        1 BB1          0.0000
     6 C6         2.4089   -17.2205    14.7023 C.3        1 BB1          0.0000
     7 C7         1.6503   -18.5260    14.9463 C.3        1 BB1          0.0000
     8 C8         0.1529   -18.3042    14.7284 C.3        1 BB1          0.0000
     9 C9        -0.0975   -17.9109    13.2693 C.3        1 BB1          0.0000
    10 H10       -0.5503   -16.1652    11.1638 H          1 BB1          0.0000
    11 H11        0.7163   -14.4859    13.4905 H          1 BB1          0.0000
    12 H12       -0.9463   -15.2844    13.5098 H          1 BB1          0.0000
    13 H13        2.6745   -17.5411    12.5858 H          1 BB1          0.0000
    14 H14        2.7172   -15.8301    13.0822 H          1 BB1          0.0000
    15 H15        3.4682   -17.3714    14.9103 H          1 BB1          0.0000
    16 H16        2.0166   -16.4440    15.3590 H          1 BB1          0.0000
    17 H17        2.0083   -19.2878    14.2538 H          1 BB1          0.0000
    18 H18        1.8222   -18.8589    15.9699 H          1 BB1          0.0000
    19 H19       -0.3873   -19.2234    14.9549 H          1 BB1          0.0000
    20 H20       -0.1956   -17.5067    15.3847 H          1 BB1          0.0000
    21 H21       -1.1554   -17.6900    13.1272 H          1 BB1          0.0000
    22 H22        0.1972   -18.7309    12.6144 H          1 BB1          0.0000
    23 H25        1.8364   -14.4888    11.4920 H          1 BB1          0.0000
    24 C2        -0.1070   -15.9082     9.4535 C.2        2 BB2          0.0000
    25 O3        -0.3959   -16.7803     8.6460 O.2        2 BB2          0.0000
    26 C4         0.0888   -14.5199     9.0003 C.ar       2 BB2          0.0000
    27 C5        -0.2536   -13.4529     9.8358 C.ar       2 BB2          0.0000
    28 C6        -0.0676   -12.1568     9.4051 C.ar       2 BB2          0.0000
    29 C7         0.4567   -11.9083     8.1479 C.ar       2 BB2          0.0000
    30 C8         0.7986   -12.9562     7.3134 C.ar       2 BB2          0.0000
    31 C9         0.6244   -14.2623     7.7324 C.ar       2 BB2          0.0000
    32 F10        0.9586   -15.2862     6.9169 F          2 BB2          0.0000
    33 S11       -0.4990   -10.8115    10.4579 S.o2       2 BB2          0.0000
    34 O12       -0.9885   -11.4332    11.6382 O.2        2 BB2          0.0000
    35 O13        0.6677   -10.0009    10.4867 O.2        2 BB2          0.0000
    36 C14       -1.8418    -9.9635     9.5814 C.3        2 BB2          0.0000
    37 C15       -3.0735    -9.8878    10.4860 C.3        2 BB2          0.0000
    38 C16       -4.1017   -10.8192     9.9938 C.1        2 BB2          0.0000
    39 C17       -4.9218   -11.5619     9.6012 C.1        2 BB2          0.0000
    40 H18       -0.6632   -13.6436    10.8167 H          2 BB2          0.0000
    41 H19        0.5988   -10.8901     7.8170 H          2 BB2          0.0000
    42 H20        1.2070   -12.7542     6.3343 H          2 BB2          0.0000
    43 H21       -1.5232    -8.9553     9.3166 H          2 BB2          0.0000
    44 H22       -2.0901   -10.5158     8.6751 H          2 BB2          0.0000
    45 H23       -2.7940   -10.1601    11.5037 H          2 BB2          0.0000
    46 H24       -3.4691    -8.8722    10.4771 H          2 BB2          0.0000
    47 H25       -5.6553   -12.2263     9.2502 H          2 BB2          0.0000
@<TRIPOS>BOND
     1      1      2 1
     2      1     23 1
     3      2      3 1
     4      2      4 1
     5      2     10 1
     6      3      4 1
     7      3     11 1
     8      3     12 1
     9      4      5 1
    10      4      9 1
    11      5      6 1
    12      5     13 1
    13      5     14 1
    14      6      7 1
    15      6     15 1
    16      6     16 1
    17      7      8 1
    18      7     17 1
    19      7     18 1
    20      8      9 1
    21      8     19 1
    22      8     20 1
    23      9     21 1
    24      9     22 1
    25     24     25 2
    26     24     26 1
    27     26     27 ar
    28     26     31 ar
    29     27     28 ar
    30     27     40 1
    31     28     29 ar
    32     28     33 1
    33     29     30 ar
    34     29     41 1
    35     30     31 ar
    36     30     42 1
    37     31     32 1
    38     33     34 2
    39     33     35 2
    40     33     36 1
    41     36     37 1
    42     36     43 1
    43     36     44 1
    44     37     38 1
    45     37     45 1
    46     37     46 1
    47     38     39 3
    48     39     47 1
    49      1     24 am
@<TRIPOS>SUBSTRUCTURE
     1 BB1           1
     2 BB2          24
@<TRIPOS>MOLECULE
EN300-124870_i001_EN300-4287209_i001_5_19_1
  38   40   2   0   0
SMALL
USER_CHARGES
@<TRIPOS>ATOM
     1 N1         1.3878   -15.2052    10.9410 N.am       1 BB1          0.0000
     2 C2         0.3197   -15.8331    11.7303 C.3        1 BB1          0.0000
     3 C3         0.0809   -15.3015    13.1452 C.3        1 BB1          0.0000
     4 C4         0.7347   -16.6678    12.9411 C.3        1 BB1          0.0000
     5 C5         2.2311   -16.7925    13.2424 C.3        1 BB1          0.0000
     6 C6         2.4089   -17.2205    14.7023 C.3        1 BB1          0.0000
     7 C7         1.6503   -18.5260    14.9463 C.3        1 BB1          0.0000
     8 C8         0.1529   -18.3042    14.7284 C.3        1 BB1          0.0000
     9 C9        -0.0975   -17.9109    13.2693 C.3        1 BB1          0.0000
    10 H10       -0.5503   -16.1652    11.1638 H          1 BB1          0.0000
    11 H11        0.7163   -14.4859    13.4905 H          1 BB1          0.0000
    12 H12       -0.9463   -15.2844    13.5098 H          1 BB1          0.0000
    13 H13        2.6745   -17.5411    12.5858 H          1 BB1          0.0000
    14 H14        2.7172   -15.8301    13.0822 H          1 BB1          0.0000
    15 H15        3.4682   -17.3714    14.9103 H          1 BB1          0.0000
    16 H16        2.0166   -16.4440    15.3590 H          1 BB1          0.0000
    17 H17        2.0083   -19.2878    14.2538 H          1 BB1          0.0000
    18 H18        1.8222   -18.8589    15.9699 H          1 BB1          0.0000
    19 H19       -0.3873   -19.2234    14.9549 H          1 BB1          0.0000
    20 H20       -0.1956   -17.5067    15.3847 H          1 BB1          0.0000
    21 H21       -1.1554   -17.6900    13.1272 H          1 BB1          0.0000
    22 H22        0.1972   -18.7309    12.6144 H          1 BB1          0.0000
    23 H25        1.8364   -14.4888    11.4920 H          1 BB1          0.0000
    24 O1         0.8790   -15.4749     8.7555 O.2        2 BB2          0.0000
    25 C2         0.4092   -14.3881     8.4488 C.2        2 BB2          0.0000
    26 C4        -0.3178   -13.5892     9.4529 C.ar       2 BB2          0.0000
    27 C5        -1.0338   -12.4577     9.0618 C.ar       2 BB2          0.0000
    28 C6        -1.7175   -11.7097    10.0165 C.ar       2 BB2          0.0000
    29 C7        -2.4553   -10.5472     9.6230 C.1        2 BB2          0.0000
    30 C8        -3.0603    -9.5942     9.3004 C.1        2 BB2          0.0000
    31 C9        -1.6834   -12.0952    11.3586 C.ar       2 BB2          0.0000
    32 C10       -0.9732   -13.2154    11.7416 C.ar       2 BB2          0.0000
    33 C11       -0.2963   -13.9673    10.8002 C.ar       2 BB2          0.0000
    34 Cl12       0.5940   -15.3743    11.2916 Cl         2 BB2          0.0000
    35 H13       -1.0574   -12.1629     8.0230 H          2 BB2          0.0000
    36 H14       -3.6012    -8.7418     9.0118 H          2 BB2          0.0000
    37 H15       -2.2138   -11.5149    12.0990 H          2 BB2          0.0000
    38 H16       -0.9504   -13.5081    12.7809 H          2 BB2          0.0000
@<TRIPOS>BOND
     1      1      2 1
     2      1     23 1
     3      2      3 1
     4      2      4 1
     5      2     10 1
     6      3      4 1
     7      3     11 1
     8      3     12 1
     9      4      5 1
    10      4      9 1
    11      5      6 1
    12      5     13 1
    13      5     14 1
    14      6      7 1
    15      6     15 1
    16      6     16 1
    17      7      8 1
    18      7     17 1
    19      7     18 1
    20      8      9 1
    21      8     19 1
    22      8     20 1
    23      9     21 1
    24      9     22 1
    25     24     25 2
    26     25     26 1
    27     26     27 ar
    28     26     33 ar
    29     27     28 ar
    30     27     35 1
    31     28     29 1
    32     28     31 ar
    33     29     30 3
    34     30     36 1
    35     31     32 ar
    36     31     37 1
    37     32     33 ar
    38     32     38 1
    39     33     34 1
    40      1     25 am
@<TRIPOS>SUBSTRUCTURE
     1 BB1           1
     2 BB2          25
@<TRIPOS>MOLECULE
EN300-124870_i001_EN300-19857_i001_5_20_1
  36   38   2   0   0
SMALL
USER_CHARGES
@<TRIPOS>ATOM
     1 N1         1.3878   -15.2052    10.9410 N.am       1 BB1          0.0000
     2 C2         0.3197   -15.8331    11.7303 C.3        1 BB1          0.0000
     3 C3         0.0809   -15.3015    13.1452 C.3        1 BB1          0.0000
     4 C4         0.7347   -16.6678    12.9411 C.3        1 BB1          0.0000
     5 C5         2.2311   -16.7925    13.2424 C.3        1 BB1          0.0000
     6 C6         2.4089   -17.2205    14.7023 C.3        1 BB1          0.0000
     7 C7         1.6503   -18.5260    14.9463 C.3        1 BB1          0.0000
     8 C8         0.1529   -18.3042    14.7284 C.3        1 BB1          0.0000
     9 C9        -0.0975   -17.9109    13.2693 C.3        1 BB1          0.0000
    10 H10       -0.5503   -16.1652    11.1638 H          1 BB1          0.0000
    11 H11        0.7163   -14.4859    13.4905 H          1 BB1          0.0000
    12 H12       -0.9463   -15.2844    13.5098 H          1 BB1          0.0000
    13 H13        2.6745   -17.5411    12.5858 H          1 BB1          0.0000
    14 H14        2.7172   -15.8301    13.0822 H          1 BB1          0.0000
    15 H15        3.4682   -17.3714    14.9103 H          1 BB1          0.0000
    16 H16        2.0166   -16.4440    15.3590 H          1 BB1          0.0000
    17 H17        2.0083   -19.2878    14.2538 H          1 BB1          0.0000
    18 H18        1.8222   -18.8589    15.9699 H          1 BB1          0.0000
    19 H19       -0.3873   -19.2234    14.9549 H          1 BB1          0.0000
    20 H20       -0.1956   -17.5067    15.3847 H          1 BB1          0.0000
    21 H21       -1.1554   -17.6900    13.1272 H          1 BB1          0.0000
    22 H22        0.1972   -18.7309    12.6144 H          1 BB1          0.0000
    23 H24        0.9930   -14.7921    10.1094 H          1 BB1          0.0000
    24 O1        -0.6801   -14.7334    12.2748 O.2        2 BB2          0.0000
    25 C2        -0.0612   -14.3703    11.2846 C.2        2 BB2          0.0000
    26 C4        -0.4899   -13.1665    10.5471 C.ar       2 BB2          0.0000
    27 C5         0.2870   -12.6738     9.4958 C.ar       2 BB2          0.0000
    28 C6        -0.1195   -11.5478     8.8104 C.ar       2 BB2          0.0000
    29 C7        -1.2938   -10.9062     9.1618 C.ar       2 BB2          0.0000
    30 C8        -2.0692   -11.3882    10.2031 C.ar       2 BB2          0.0000
    31 Br9       -3.6723   -10.5028    10.6742 Br         2 BB2          0.0000
    32 C10       -1.6778   -12.5173    10.8933 C.ar       2 BB2          0.0000
    33 H11        1.2041   -13.1732     9.2205 H          2 BB2          0.0000
    34 H12        0.4805   -11.1659     7.9978 H          2 BB2          0.0000
    35 H13       -1.6071   -10.0250     8.6216 H          2 BB2          0.0000
    36 H14       -2.2830   -12.8926    11.7053 H          2 BB2          0.0000
@<TRIPOS>BOND
     1      1      2 1
     2      1     23 1
     3      2      3 1
     4      2      4 1
     5      2     10 1
     6      3      4 1
     7      3     11 1
     8      3     12 1
     9      4      5 1
    10      4      9 1
    11      5      6 1
    12      5     13 1
    13      5     14 1
    14      6      7 1
    15      6     15 1
    16      6     16 1
    17      7      8 1
    18      7     17 1
    19      7     18 1
    20      8      9 1
    21      8     19 1
    22      8     20 1
    23      9     21 1
    24      9     22 1
    25     24     25 2
    26     25     26 1
    27     26     27 ar
    28     26     32 ar
    29     27     28 ar
    30     27     33 1
    31     28     29 ar
    32     28     34 1
    33     29     30 ar
    34     29     35 1
    35     30     31 1
    36     30     32 ar
    37     32     36 1
    38      1     25 am
@<TRIPOS>SUBSTRUCTURE
     1 BB1           1
     2 BB2          25
@<TRIPOS>MOLECULE
EN300-124870_i001_EN300-222254_i002_5_16_1
  46   49   2   0   0
SMALL
USER_CHARGES
@<TRIPOS>ATOM
     1 N1         1.3878   -15.2052    10.9410 N.am       1 BB1          0.0000
     2 C2         0.3197   -15.8331    11.7303 C.3        1 BB1          0.0000
     3 C3         0.0809   -15.3015    13.1452 C.3        1 BB1          0.0000
     4 C4         0.7347   -16.6678    12.9411 C.3        1 BB1          0.0000
     5 C5         2.2311   -16.7925    13.2424 C.3        1 BB1          0.0000
     6 C6         2.4089   -17.2205    14.7023 C.3        1 BB1          0.0000
     7 C7         1.6503   -18.5260    14.9463 C.3        1 BB1          0.0000
     8 C8         0.1529   -18.3042    14.7284 C.3        1 BB1          0.0000
     9 C9        -0.0975   -17.9109    13.2693 C.3        1 BB1          0.0000
    10 H10       -0.5503   -16.1652    11.1638 H          1 BB1          0.0000
    11 H11        0.7163   -14.4859    13.4905 H          1 BB1          0.0000
    12 H12       -0.9463   -15.2844    13.5098 H          1 BB1          0.0000
    13 H13        2.6745   -17.5411    12.5858 H          1 BB1          0.0000
    14 H14        2.7172   -15.8301    13.0822 H          1 BB1          0.0000
    15 H15        3.4682   -17.3714    14.9103 H          1 BB1          0.0000
    16 H16        2.0166   -16.4440    15.3590 H          1 BB1          0.0000
    17 H17        2.0083   -19.2878    14.2538 H          1 BB1          0.0000
    18 H18        1.8222   -18.8589    15.9699 H          1 BB1          0.0000
    19 H19       -0.3873   -19.2234    14.9549 H          1 BB1          0.0000
    20 H20       -0.1956   -17.5067    15.3847 H          1 BB1          0.0000
    21 H21       -1.1554   -17.6900    13.1272 H          1 BB1          0.0000
    22 H22        0.1972   -18.7309    12.6144 H          1 BB1          0.0000
    23 H25        1.8364   -14.4888    11.4920 H          1 BB1          0.0000
    24 C2         0.7784   -14.4710     8.2649 C.2        2 BB2          0.0000
    25 O3         0.2780   -15.5440     7.9733 O.2        2 BB2          0.0000
    26 C4         0.2585   -13.2024     7.6397 C.3        2 BB2          0.0000
    27 C5         1.2379   -12.5605     6.6429 C.3        2 BB2          0.0000
    28 C6         0.8192   -11.2012     7.2275 C.3        2 BB2          0.0000
    29 C7         0.4584   -11.9558     8.5179 C.3        2 BB2          0.0000
    30 C8        -0.8094   -11.4665     9.1691 C.ar       2 BB2          0.0000
    31 C9        -1.4548   -10.3502     8.6725 C.ar       2 BB2          0.0000
    32 C10       -2.6177    -9.9002     9.2695 C.ar       2 BB2          0.0000
    33 C11       -3.1369   -10.5674    10.3645 C.ar       2 BB2          0.0000
    34 Cl12      -4.5976   -10.0019    11.1131 Cl         2 BB2          0.0000
    35 C13       -2.4924   -11.6855    10.8627 C.ar       2 BB2          0.0000
    36 C14       -1.3308   -12.1389    10.2617 C.ar       2 BB2          0.0000
    37 F15       -0.7006   -13.2310    10.7470 F          2 BB2          0.0000
    38 H16       -0.7545   -13.3063     7.2510 H          2 BB2          0.0000
    39 H17        2.2812   -12.8140     6.8310 H          2 BB2          0.0000
    40 H18        0.9501   -12.6945     5.6001 H          2 BB2          0.0000
    41 H19        1.6479   -10.5033     7.3470 H          2 BB2          0.0000
    42 H20       -0.0409   -10.7567     6.7267 H          2 BB2          0.0000
    43 H21        1.2886   -12.0441     9.2187 H          2 BB2          0.0000
    44 H22       -1.0503    -9.8285     7.8176 H          2 BB2          0.0000
    45 H23       -3.1211    -9.0272     8.8810 H          2 BB2          0.0000
    46 H24       -2.8973   -12.2065    11.7176 H          2 BB2          0.0000
@<TRIPOS>BOND
     1      1      2 1
     2      1     23 1
     3      2      3 1
     4      2      4 1
     5      2     10 1
     6      3      4 1
     7      3     11 1
     8      3     12 1
     9      4      5 1
    10      4      9 1
    11      5      6 1
    12      5     13 1
    13      5     14 1
    14      6      7 1
    15      6     15 1
    16      6     16 1
    17      7      8 1
    18      7     17 1
    19      7     18 1
    20      8      9 1
    21      8     19 1
    22      8     20 1
    23      9     21 1
    24      9     22 1
    25     24     25 2
    26     24     26 1
    27     26     27 1
    28     26     29 1
    29     26     38 1
    30     27     28 1
    31     27     39 1
    32     27     40 1
    33     28     29 1
    34     28     41 1
    35     28     42 1
    36     29     30 1
    37     29     43 1
    38     30     31 ar
    39     30     36 ar
    40     31     32 ar
    41     31     44 1
    42     32     33 ar
    43     32     45 1
    44     33     34 1
    45     33     35 ar
    46     35     36 ar
    47     35     46 1
    48     36     37 1
    49      1     24 am
@<TRIPOS>SUBSTRUCTURE
     1 BB1           1
     2 BB2          24
@<TRIPOS>MOLECULE
EN300-124870_i001_EN300-306118_i001_5_10_1
  45   48   2   0   0
SMALL
USER_CHARGES
@<TRIPOS>ATOM
     1 N1         1.3878   -15.2052    10.9410 N.am       1 BB1          0.0000
     2 C2         0.3197   -15.8331    11.7303 C.3        1 BB1          0.0000
     3 C3         0.0809   -15.3015    13.1452 C.3        1 BB1          0.0000
     4 C4         0.7347   -16.6678    12.9411 C.3        1 BB1          0.0000
     5 C5         2.2311   -16.7925    13.2424 C.3        1 BB1          0.0000
     6 C6         2.4089   -17.2205    14.7023 C.3        1 BB1          0.0000
     7 C7         1.6503   -18.5260    14.9463 C.3        1 BB1          0.0000
     8 C8         0.1529   -18.3042    14.7284 C.3        1 BB1          0.0000
     9 C9        -0.0975   -17.9109    13.2693 C.3        1 BB1          0.0000
    10 H10       -0.5503   -16.1652    11.1638 H          1 BB1          0.0000
    11 H11        0.7163   -14.4859    13.4905 H          1 BB1          0.0000
    12 H12       -0.9463   -15.2844    13.5098 H          1 BB1          0.0000
    13 H13        2.6745   -17.5411    12.5858 H          1 BB1          0.0000
    14 H14        2.7172   -15.8301    13.0822 H          1 BB1          0.0000
    15 H15        3.4682   -17.3714    14.9103 H          1 BB1          0.0000
    16 H16        2.0166   -16.4440    15.3590 H          1 BB1          0.0000
    17 H17        2.0083   -19.2878    14.2538 H          1 BB1          0.0000
    18 H18        1.8222   -18.8589    15.9699 H          1 BB1          0.0000
    19 H19       -0.3873   -19.2234    14.9549 H          1 BB1          0.0000
    20 H20       -0.1956   -17.5067    15.3847 H          1 BB1          0.0000
    21 H21       -1.1554   -17.6900    13.1272 H          1 BB1          0.0000
    22 H22        0.1972   -18.7309    12.6144 H          1 BB1          0.0000
    23 H24        0.9930   -14.7921    10.1094 H          1 BB1          0.0000
    24 O1        -0.6922   -13.8017    11.4451 O.2        2 BB2          0.0000
    25 C2         0.1195   -14.4038    10.7566 C.2        2 BB2          0.0000
    26 C4         0.4114   -13.9416     9.3863 C.ar       2 BB2          0.0000
    27 C5         0.5717   -14.8674     8.3525 C.ar       2 BB2          0.0000
    28 C6         0.8445   -14.4280     7.0737 C.ar       2 BB2          0.0000
    29 C7         0.9599   -13.0739     6.8139 C.ar       2 BB2          0.0000
    30 C8         0.8024   -12.1509     7.8331 C.ar       2 BB2          0.0000
    31 C9         0.5231   -12.5754     9.1151 C.ar       2 BB2          0.0000
    32 C10        0.3514   -11.5687    10.2234 C.3        2 BB2          0.0000
    33 N11       -1.0436   -11.1231    10.2665 N.pl3      2 BB2          0.0000
    34 C12       -1.4690    -9.8410    10.1885 C.2        2 BB2          0.0000
    35 C13       -2.8194    -9.8863    10.2682 C.2        2 BB2          0.0000
    36 N14       -3.1497   -11.1769    10.3896 N.2        2 BB2          0.0000
    37 N15       -2.0753   -11.8843    10.3797 N.2        2 BB2          0.0000
    38 H16        0.4826   -15.9247     8.5541 H          2 BB2          0.0000
    39 H17        0.9688   -15.1425     6.2735 H          2 BB2          0.0000
    40 H18        1.1744   -12.7356     5.8108 H          2 BB2          0.0000
    41 H19        0.8941   -11.0955     7.6231 H          2 BB2          0.0000
    42 H20        0.6156   -12.0283    11.1758 H          2 BB2          0.0000
    43 H21        1.0008   -10.7127    10.0405 H          2 BB2          0.0000
    44 H22       -0.8546    -8.9590    10.0839 H          2 BB2          0.0000
    45 H23       -3.4970    -9.0458    10.2398 H          2 BB2          0.0000
@<TRIPOS>BOND
     1      1      2 1
     2      1     23 1
     3      2      3 1
     4      2      4 1
     5      2     10 1
     6      3      4 1
     7      3     11 1
     8      3     12 1
     9      4      5 1
    10      4      9 1
    11      5      6 1
    12      5     13 1
    13      5     14 1
    14      6      7 1
    15      6     15 1
    16      6     16 1
    17      7      8 1
    18      7     17 1
    19      7     18 1
    20      8      9 1
    21      8     19 1
    22      8     20 1
    23      9     21 1
    24      9     22 1
    25     24     25 2
    26     25     26 1
    27     26     27 ar
    28     26     31 ar
    29     27     28 ar
    30     27     38 1
    31     28     29 ar
    32     28     39 1
    33     29     30 ar
    34     29     40 1
    35     30     31 ar
    36     30     41 1
    37     31     32 1
    38     32     33 1
    39     32     42 1
    40     32     43 1
    41     33     34 1
    42     33     37 1
    43     34     35 2
    44     34     44 1
    45     35     36 1
    46     35     45 1
    47     36     37 2
    48      1     25 am
@<TRIPOS>SUBSTRUCTURE
     1 BB1           1
     2 BB2          25
@<TRIPOS>MOLECULE
EN300-124870_i001_EN300-306118_i001_5_13_1
  45   48   2   0   0
SMALL
USER_CHARGES
@<TRIPOS>ATOM
     1 N1         1.3878   -15.2052    10.9410 N.am       1 BB1          0.0000
     2 C2         0.3197   -15.8331    11.7303 C.3        1 BB1          0.0000
     3 C3         0.0809   -15.3015    13.1452 C.3        1 BB1          0.0000
     4 C4         0.7347   -16.6678    12.9411 C.3        1 BB1          0.0000
     5 C5         2.2311   -16.7925    13.2424 C.3        1 BB1          0.0000
     6 C6         2.4089   -17.2205    14.7023 C.3        1 BB1          0.0000
     7 C7         1.6503   -18.5260    14.9463 C.3        1 BB1          0.0000
     8 C8         0.1529   -18.3042    14.7284 C.3        1 BB1          0.0000
     9 C9        -0.0975   -17.9109    13.2693 C.3        1 BB1          0.0000
    10 H10       -0.5503   -16.1652    11.1638 H          1 BB1          0.0000
    11 H11        0.7163   -14.4859    13.4905 H          1 BB1          0.0000
    12 H12       -0.9463   -15.2844    13.5098 H          1 BB1          0.0000
    13 H13        2.6745   -17.5411    12.5858 H          1 BB1          0.0000
    14 H14        2.7172   -15.8301    13.0822 H          1 BB1          0.0000
    15 H15        3.4682   -17.3714    14.9103 H          1 BB1          0.0000
    16 H16        2.0166   -16.4440    15.3590 H          1 BB1          0.0000
    17 H17        2.0083   -19.2878    14.2538 H          1 BB1          0.0000
    18 H18        1.8222   -18.8589    15.9699 H          1 BB1          0.0000
    19 H19       -0.3873   -19.2234    14.9549 H          1 BB1          0.0000
    20 H20       -0.1956   -17.5067    15.3847 H          1 BB1          0.0000
    21 H21       -1.1554   -17.6900    13.1272 H          1 BB1          0.0000
    22 H22        0.1972   -18.7309    12.6144 H          1 BB1          0.0000
    23 H25        1.8364   -14.4888    11.4920 H          1 BB1          0.0000
    24 O1        -0.3061   -15.6175    10.8075 O.2        2 BB2          0.0000
    25 C2        -0.2542   -14.4147    11.0220 C.2        2 BB2          0.0000
    26 C4        -0.0888   -13.4717     9.8995 C.ar       2 BB2          0.0000
    27 C5         0.7755   -13.7793     8.8460 C.ar       2 BB2          0.0000
    28 C6         0.9252   -12.8927     7.7999 C.ar       2 BB2          0.0000
    29 C7         0.2221   -11.7011     7.7926 C.ar       2 BB2          0.0000
    30 C8        -0.6359   -11.3897     8.8329 C.ar       2 BB2          0.0000
    31 C9        -0.8003   -12.2692     9.8823 C.ar       2 BB2          0.0000
    32 C10       -1.7356   -11.9285    11.0138 C.3        2 BB2          0.0000
    33 N11       -2.8881   -11.1914    10.4898 N.pl3      2 BB2          0.0000
    34 C12       -3.9824   -11.7380     9.9113 C.2        2 BB2          0.0000
    35 C13       -4.7891   -10.7036     9.5780 C.2        2 BB2          0.0000
    36 N14       -4.1572    -9.5894     9.9637 N.2        2 BB2          0.0000
    37 N15       -3.0361    -9.9129    10.5053 N.2        2 BB2          0.0000
    38 H16        1.3254   -14.7088     8.8509 H          2 BB2          0.0000
    39 H17        1.5931   -13.1291     6.9848 H          2 BB2          0.0000
    40 H18        0.3438   -11.0104     6.9712 H          2 BB2          0.0000
    41 H19       -1.1813   -10.4576     8.8207 H          2 BB2          0.0000
    42 H20       -2.0780   -12.8466    11.4912 H          2 BB2          0.0000
    43 H21       -1.2121   -11.3124    11.7448 H          2 BB2          0.0000
    44 H22       -4.1735   -12.7883     9.7481 H          2 BB2          0.0000
    45 H23       -5.7532   -10.7654     9.0952 H          2 BB2          0.0000
@<TRIPOS>BOND
     1      1      2 1
     2      1     23 1
     3      2      3 1
     4      2      4 1
     5      2     10 1
     6      3      4 1
     7      3     11 1
     8      3     12 1
     9      4      5 1
    10      4      9 1
    11      5      6 1
    12      5     13 1
    13      5     14 1
    14      6      7 1
    15      6     15 1
    16      6     16 1
    17      7      8 1
    18      7     17 1
    19      7     18 1
    20      8      9 1
    21      8     19 1
    22      8     20 1
    23      9     21 1
    24      9     22 1
    25     24     25 2
    26     25     26 1
    27     26     27 ar
    28     26     31 ar
    29     27     28 ar
    30     27     38 1
    31     28     29 ar
    32     28     39 1
    33     29     30 ar
    34     29     40 1
    35     30     31 ar
    36     30     41 1
    37     31     32 1
    38     32     33 1
    39     32     42 1
    40     32     43 1
    41     33     34 1
    42     33     37 1
    43     34     35 2
    44     34     44 1
    45     35     36 1
    46     35     45 1
    47     36     37 2
    48      1     25 am
@<TRIPOS>SUBSTRUCTURE
     1 BB1           1
     2 BB2          25
@<TRIPOS>MOLECULE
EN300-124870_i001_EN300-306118_i001_5_14_1
  45   48   2   0   0
SMALL
USER_CHARGES
@<TRIPOS>ATOM
     1 N1         1.3878   -15.2052    10.9410 N.am       1 BB1          0.0000
     2 C2         0.3197   -15.8331    11.7303 C.3        1 BB1          0.0000
     3 C3         0.0809   -15.3015    13.1452 C.3        1 BB1          0.0000
     4 C4         0.7347   -16.6678    12.9411 C.3        1 BB1          0.0000
     5 C5         2.2311   -16.7925    13.2424 C.3        1 BB1          0.0000
     6 C6         2.4089   -17.2205    14.7023 C.3        1 BB1          0.0000
     7 C7         1.6503   -18.5260    14.9463 C.3        1 BB1          0.0000
     8 C8         0.1529   -18.3042    14.7284 C.3        1 BB1          0.0000
     9 C9        -0.0975   -17.9109    13.2693 C.3        1 BB1          0.0000
    10 H10       -0.5503   -16.1652    11.1638 H          1 BB1          0.0000
    11 H11        0.7163   -14.4859    13.4905 H          1 BB1          0.0000
    12 H12       -0.9463   -15.2844    13.5098 H          1 BB1          0.0000
    13 H13        2.6745   -17.5411    12.5858 H          1 BB1          0.0000
    14 H14        2.7172   -15.8301    13.0822 H          1 BB1          0.0000
    15 H15        3.4682   -17.3714    14.9103 H          1 BB1          0.0000
    16 H16        2.0166   -16.4440    15.3590 H          1 BB1          0.0000
    17 H17        2.0083   -19.2878    14.2538 H          1 BB1          0.0000
    18 H18        1.8222   -18.8589    15.9699 H          1 BB1          0.0000
    19 H19       -0.3873   -19.2234    14.9549 H          1 BB1          0.0000
    20 H20       -0.1956   -17.5067    15.3847 H          1 BB1          0.0000
    21 H21       -1.1554   -17.6900    13.1272 H          1 BB1          0.0000
    22 H22        0.1972   -18.7309    12.6144 H          1 BB1          0.0000
    23 H25        1.8364   -14.4888    11.4920 H          1 BB1          0.0000
    24 C2         0.2503   -14.8942     9.5067 C.2        2 BB2          0.0000
    25 O3        -0.1008   -15.9875     9.0861 O.2        2 BB2          0.0000
    26 C4         0.4361   -13.7687     8.5711 C.ar       2 BB2          0.0000
    27 C5         1.0712   -13.9736     7.3438 C.ar       2 BB2          0.0000
    28 C6         1.2414   -12.9166     6.4741 C.ar       2 BB2          0.0000
    29 C7         0.7852   -11.6556     6.8150 C.ar       2 BB2          0.0000
    30 C8         0.1551   -11.4451     8.0291 C.ar       2 BB2          0.0000
    31 C9        -0.0276   -12.4937     8.9058 C.ar       2 BB2          0.0000
    32 C10       -0.7145   -12.2625    10.2272 C.3        2 BB2          0.0000
    33 N11       -1.8406   -11.3447    10.0382 N.pl3      2 BB2          0.0000
    34 C12       -3.1396   -11.6193    10.2990 C.2        2 BB2          0.0000
    35 C13       -3.8324   -10.5002     9.9835 C.2        2 BB2          0.0000
    36 N14       -2.9351    -9.6073     9.5507 N.2        2 BB2          0.0000
    37 N15       -1.7637   -10.1366     9.6005 N.2        2 BB2          0.0000
    38 H16        1.4284   -14.9573     7.0769 H          2 BB2          0.0000
    39 H17        1.7323   -13.0735     5.5250 H          2 BB2          0.0000
    40 H18        0.9219   -10.8314     6.1303 H          2 BB2          0.0000
    41 H19       -0.1982   -10.4580     8.2887 H          2 BB2          0.0000
    42 H20       -1.0811   -13.2120    10.6171 H          2 BB2          0.0000
    43 H21       -0.0068   -11.8286    10.9335 H          2 BB2          0.0000
    44 H22       -3.5426   -12.5453    10.6817 H          2 BB2          0.0000
    45 H23       -4.8996   -10.3563    10.0648 H          2 BB2          0.0000
@<TRIPOS>BOND
     1      1      2 1
     2      1     23 1
     3      2      3 1
     4      2      4 1
     5      2     10 1
     6      3      4 1
     7      3     11 1
     8      3     12 1
     9      4      5 1
    10      4      9 1
    11      5      6 1
    12      5     13 1
    13      5     14 1
    14      6      7 1
    15      6     15 1
    16      6     16 1
    17      7      8 1
    18      7     17 1
    19      7     18 1
    20      8      9 1
    21      8     19 1
    22      8     20 1
    23      9     21 1
    24      9     22 1
    25     24     25 2
    26     24     26 1
    27     26     27 ar
    28     26     31 ar
    29     27     28 ar
    30     27     38 1
    31     28     29 ar
    32     28     39 1
    33     29     30 ar
    34     29     40 1
    35     30     31 ar
    36     30     41 1
    37     31     32 1
    38     32     33 1
    39     32     42 1
    40     32     43 1
    41     33     34 1
    42     33     37 1
    43     34     35 2
    44     34     44 1
    45     35     36 1
    46     35     45 1
    47     36     37 2
    48      1     24 am
@<TRIPOS>SUBSTRUCTURE
     1 BB1           1
     2 BB2          24
@<TRIPOS>MOLECULE
EN300-124870_i001_EN300-306118_i001_5_17_1
  45   48   2   0   0
SMALL
USER_CHARGES
@<TRIPOS>ATOM
     1 N1         1.3878   -15.2052    10.9410 N.am       1 BB1          0.0000
     2 C2         0.3197   -15.8331    11.7303 C.3        1 BB1          0.0000
     3 C3         0.0809   -15.3015    13.1452 C.3        1 BB1          0.0000
     4 C4         0.7347   -16.6678    12.9411 C.3        1 BB1          0.0000
     5 C5         2.2311   -16.7925    13.2424 C.3        1 BB1          0.0000
     6 C6         2.4089   -17.2205    14.7023 C.3        1 BB1          0.0000
     7 C7         1.6503   -18.5260    14.9463 C.3        1 BB1          0.0000
     8 C8         0.1529   -18.3042    14.7284 C.3        1 BB1          0.0000
     9 C9        -0.0975   -17.9109    13.2693 C.3        1 BB1          0.0000
    10 H10       -0.5503   -16.1652    11.1638 H          1 BB1          0.0000
    11 H11        0.7163   -14.4859    13.4905 H          1 BB1          0.0000
    12 H12       -0.9463   -15.2844    13.5098 H          1 BB1          0.0000
    13 H13        2.6745   -17.5411    12.5858 H          1 BB1          0.0000
    14 H14        2.7172   -15.8301    13.0822 H          1 BB1          0.0000
    15 H15        3.4682   -17.3714    14.9103 H          1 BB1          0.0000
    16 H16        2.0166   -16.4440    15.3590 H          1 BB1          0.0000
    17 H17        2.0083   -19.2878    14.2538 H          1 BB1          0.0000
    18 H18        1.8222   -18.8589    15.9699 H          1 BB1          0.0000
    19 H19       -0.3873   -19.2234    14.9549 H          1 BB1          0.0000
    20 H20       -0.1956   -17.5067    15.3847 H          1 BB1          0.0000
    21 H21       -1.1554   -17.6900    13.1272 H          1 BB1          0.0000
    22 H22        0.1972   -18.7309    12.6144 H          1 BB1          0.0000
    23 H25        1.8364   -14.4888    11.4920 H          1 BB1          0.0000
    24 O1        -0.1025   -16.2314     9.1013 O.2        2 BB2          0.0000
    25 C2         0.1377   -15.1500     9.6193 C.2        2 BB2          0.0000
    26 C4         0.3036   -13.9496     8.7778 C.ar       2 BB2          0.0000
    27 C5         0.9945   -14.0317     7.5664 C.ar       2 BB2          0.0000
    28 C6         1.1457   -12.9052     6.7847 C.ar       2 BB2          0.0000
    29 C7         0.6154   -11.6960     7.1982 C.ar       2 BB2          0.0000
    30 C8        -0.0703   -11.6071     8.3972 C.ar       2 BB2          0.0000
    31 C9        -0.2347   -12.7263     9.1858 C.ar       2 BB2          0.0000
    32 C10       -0.9821   -12.6276    10.4908 C.3        2 BB2          0.0000
    33 N11       -2.0934   -11.6839    10.3468 N.pl3      2 BB2          0.0000
    34 C12       -1.9923   -10.3346    10.3447 C.2        2 BB2          0.0000
    35 C13       -3.2511    -9.8624    10.1881 C.2        2 BB2          0.0000
    36 N14       -4.0501   -10.9319    10.1033 N.2        2 BB2          0.0000
    37 N15       -3.3329   -11.9958    10.1953 N.2        2 BB2          0.0000
    38 H16        1.4095   -14.9748     7.2428 H          2 BB2          0.0000
    39 H17        1.6796   -12.9671     5.8480 H          2 BB2          0.0000
    40 H18        0.7375   -10.8170     6.5825 H          2 BB2          0.0000
    41 H19       -0.4813   -10.6599     8.7138 H          2 BB2          0.0000
    42 H20       -1.3716   -13.6090    10.7615 H          2 BB2          0.0000
    43 H21       -0.3064   -12.2770    11.2708 H          2 BB2          0.0000
    44 H22       -1.0890    -9.7516    10.4475 H          2 BB2          0.0000
    45 H23       -3.5514    -8.8261    10.1412 H          2 BB2          0.0000
@<TRIPOS>BOND
     1      1      2 1
     2      1     23 1
     3      2      3 1
     4      2      4 1
     5      2     10 1
     6      3      4 1
     7      3     11 1
     8      3     12 1
     9      4      5 1
    10      4      9 1
    11      5      6 1
    12      5     13 1
    13      5     14 1
    14      6      7 1
    15      6     15 1
    16      6     16 1
    17      7      8 1
    18      7     17 1
    19      7     18 1
    20      8      9 1
    21      8     19 1
    22      8     20 1
    23      9     21 1
    24      9     22 1
    25     24     25 2
    26     25     26 1
    27     26     27 ar
    28     26     31 ar
    29     27     28 ar
    30     27     38 1
    31     28     29 ar
    32     28     39 1
    33     29     30 ar
    34     29     40 1
    35     30     31 ar
    36     30     41 1
    37     31     32 1
    38     32     33 1
    39     32     42 1
    40     32     43 1
    41     33     34 1
    42     33     37 1
    43     34     35 2
    44     34     44 1
    45     35     36 1
    46     35     45 1
    47     36     37 2
    48      1     25 am
@<TRIPOS>SUBSTRUCTURE
     1 BB1           1
     2 BB2          25
@<TRIPOS>MOLECULE
EN300-124870_i001_EN300-306118_i001_5_4_1
  45   48   2   0   0
SMALL
USER_CHARGES
@<TRIPOS>ATOM
     1 N1         1.3878   -15.2052    10.9410 N.am       1 BB1          0.0000
     2 C2         0.3197   -15.8331    11.7303 C.3        1 BB1          0.0000
     3 C3         0.0809   -15.3015    13.1452 C.3        1 BB1          0.0000
     4 C4         0.7347   -16.6678    12.9411 C.3        1 BB1          0.0000
     5 C5         2.2311   -16.7925    13.2424 C.3        1 BB1          0.0000
     6 C6         2.4089   -17.2205    14.7023 C.3        1 BB1          0.0000
     7 C7         1.6503   -18.5260    14.9463 C.3        1 BB1          0.0000
     8 C8         0.1529   -18.3042    14.7284 C.3        1 BB1          0.0000
     9 C9        -0.0975   -17.9109    13.2693 C.3        1 BB1          0.0000
    10 H10       -0.5503   -16.1652    11.1638 H          1 BB1          0.0000
    11 H11        0.7163   -14.4859    13.4905 H          1 BB1          0.0000
    12 H12       -0.9463   -15.2844    13.5098 H          1 BB1          0.0000
    13 H13        2.6745   -17.5411    12.5858 H          1 BB1          0.0000
    14 H14        2.7172   -15.8301    13.0822 H          1 BB1          0.0000
    15 H15        3.4682   -17.3714    14.9103 H          1 BB1          0.0000
    16 H16        2.0166   -16.4440    15.3590 H          1 BB1          0.0000
    17 H17        2.0083   -19.2878    14.2538 H          1 BB1          0.0000
    18 H18        1.8222   -18.8589    15.9699 H          1 BB1          0.0000
    19 H19       -0.3873   -19.2234    14.9549 H          1 BB1          0.0000
    20 H20       -0.1956   -17.5067    15.3847 H          1 BB1          0.0000
    21 H21       -1.1554   -17.6900    13.1272 H          1 BB1          0.0000
    22 H22        0.1972   -18.7309    12.6144 H          1 BB1          0.0000
    23 H23        2.0676   -15.9035    10.6795 H          1 BB1          0.0000
    24 O1        -0.6959   -13.8083    11.5483 O.2        2 BB2          0.0000
    25 C2         0.0232   -14.5029    10.8440 C.2        2 BB2          0.0000
    26 C4         0.1943   -14.1761     9.4156 C.ar       2 BB2          0.0000
    27 C5         0.2000   -15.1937     8.4585 C.ar       2 BB2          0.0000
    28 C6         0.3606   -14.8807     7.1247 C.ar       2 BB2          0.0000
    29 C7         0.5162   -13.5625     6.7340 C.ar       2 BB2          0.0000
    30 C8         0.5116   -12.5491     7.6766 C.ar       2 BB2          0.0000
    31 C9         0.3458   -12.8466     9.0128 C.ar       2 BB2          0.0000
    32 C10        0.3405   -11.7416    10.0376 C.3        2 BB2          0.0000
    33 N11       -0.8775   -10.9417     9.8869 N.pl3      2 BB2          0.0000
    34 C12       -1.9601   -10.9853    10.6975 C.2        2 BB2          0.0000
    35 C13       -2.8435   -10.0913    10.1954 C.2        2 BB2          0.0000
    36 N14       -2.2659    -9.5516     9.1162 N.2        2 BB2          0.0000
    37 N15       -1.0997   -10.0726     8.9638 N.2        2 BB2          0.0000
    38 H16        0.0794   -16.2231     8.7623 H          2 BB2          0.0000
    39 H17        0.3653   -15.6663     6.3837 H          2 BB2          0.0000
    40 H18        0.6423   -13.3234     5.6883 H          2 BB2          0.0000
    41 H19        0.6339   -11.5225     7.3644 H          2 BB2          0.0000
    42 H20        0.3700   -12.1736    11.0379 H          2 BB2          0.0000
    43 H21        1.2134   -11.1056     9.8906 H          2 BB2          0.0000
    44 H22       -2.0926   -11.6083    11.5697 H          2 BB2          0.0000
    45 H23       -3.8224    -9.8595    10.5883 H          2 BB2          0.0000
@<TRIPOS>BOND
     1      1      2 1
     2      1     23 1
     3      2      3 1
     4      2      4 1
     5      2     10 1
     6      3      4 1
     7      3     11 1
     8      3     12 1
     9      4      5 1
    10      4      9 1
    11      5      6 1
    12      5     13 1
    13      5     14 1
    14      6      7 1
    15      6     15 1
    16      6     16 1
    17      7      8 1
    18      7     17 1
    19      7     18 1
    20      8      9 1
    21      8     19 1
    22      8     20 1
    23      9     21 1
    24      9     22 1
    25     24     25 2
    26     25     26 1
    27     26     27 ar
    28     26     31 ar
    29     27     28 ar
    30     27     38 1
    31     28     29 ar
    32     28     39 1
    33     29     30 ar
    34     29     40 1
    35     30     31 ar
    36     30     41 1
    37     31     32 1
    38     32     33 1
    39     32     42 1
    40     32     43 1
    41     33     34 1
    42     33     37 1
    43     34     35 2
    44     34     44 1
    45     35     36 1
    46     35     45 1
    47     36     37 2
    48      1     25 am
@<TRIPOS>SUBSTRUCTURE
     1 BB1           1
     2 BB2          25
@<TRIPOS>MOLECULE
EN300-124870_i001_EN300-306118_i001_5_6_1
  45   48   2   0   0
SMALL
USER_CHARGES
@<TRIPOS>ATOM
     1 N1         1.3878   -15.2052    10.9410 N.am       1 BB1          0.0000
     2 C2         0.3197   -15.8331    11.7303 C.3        1 BB1          0.0000
     3 C3         0.0809   -15.3015    13.1452 C.3        1 BB1          0.0000
     4 C4         0.7347   -16.6678    12.9411 C.3        1 BB1          0.0000
     5 C5         2.2311   -16.7925    13.2424 C.3        1 BB1          0.0000
     6 C6         2.4089   -17.2205    14.7023 C.3        1 BB1          0.0000
     7 C7         1.6503   -18.5260    14.9463 C.3        1 BB1          0.0000
     8 C8         0.1529   -18.3042    14.7284 C.3        1 BB1          0.0000
     9 C9        -0.0975   -17.9109    13.2693 C.3        1 BB1          0.0000
    10 H10       -0.5503   -16.1652    11.1638 H          1 BB1          0.0000
    11 H11        0.7163   -14.4859    13.4905 H          1 BB1          0.0000
    12 H12       -0.9463   -15.2844    13.5098 H          1 BB1          0.0000
    13 H13        2.6745   -17.5411    12.5858 H          1 BB1          0.0000
    14 H14        2.7172   -15.8301    13.0822 H          1 BB1          0.0000
    15 H15        3.4682   -17.3714    14.9103 H          1 BB1          0.0000
    16 H16        2.0166   -16.4440    15.3590 H          1 BB1          0.0000
    17 H17        2.0083   -19.2878    14.2538 H          1 BB1          0.0000
    18 H18        1.8222   -18.8589    15.9699 H          1 BB1          0.0000
    19 H19       -0.3873   -19.2234    14.9549 H          1 BB1          0.0000
    20 H20       -0.1956   -17.5067    15.3847 H          1 BB1          0.0000
    21 H21       -1.1554   -17.6900    13.1272 H          1 BB1          0.0000
    22 H22        0.1972   -18.7309    12.6144 H          1 BB1          0.0000
    23 H24        0.9930   -14.7921    10.1094 H          1 BB1          0.0000
    24 O1        -1.2486   -12.9840    11.2797 O.2        2 BB2          0.0000
    25 C2        -0.3996   -13.7304    10.8133 C.2        2 BB2          0.0000
    26 C4         0.1276   -13.4914     9.4563 C.ar       2 BB2          0.0000
    27 C5         0.3583   -14.5656     8.5936 C.ar       2 BB2          0.0000
    28 C6         0.8514   -14.3346     7.3262 C.ar       2 BB2          0.0000
    29 C7         1.1179   -13.0426     6.9090 C.ar       2 BB2          0.0000
    30 C8         0.8918   -11.9734     7.7582 C.ar       2 BB2          0.0000
    31 C9         0.3932   -12.1888     9.0257 C.ar       2 BB2          0.0000
    32 C10        0.1472   -11.0231     9.9488 C.3        2 BB2          0.0000
    33 N11       -1.2932   -10.7753    10.0492 N.pl3      2 BB2          0.0000
    34 C12       -2.2529   -11.3618     9.2971 C.2        2 BB2          0.0000
    35 C13       -3.4309   -10.8465     9.7198 C.2        2 BB2          0.0000
    36 N14       -3.1380    -9.9810    10.6969 N.2        2 BB2          0.0000
    37 N15       -1.8637    -9.9660    10.8717 N.2        2 BB2          0.0000
    38 H16        0.1514   -15.5747     8.9183 H          2 BB2          0.0000
    39 H17        1.0303   -15.1641     6.6582 H          2 BB2          0.0000
    40 H18        1.5046   -12.8676     5.9157 H          2 BB2          0.0000
    41 H19        1.1024   -10.9676     7.4259 H          2 BB2          0.0000
    42 H20        0.5463   -11.2516    10.9369 H          2 BB2          0.0000
    43 H21        0.6418   -10.1360     9.5534 H          2 BB2          0.0000
    44 H22       -2.1081   -12.0939     8.5164 H          2 BB2          0.0000
    45 H23       -4.4139   -11.0863     9.3423 H          2 BB2          0.0000
@<TRIPOS>BOND
     1      1      2 1
     2      1     23 1
     3      2      3 1
     4      2      4 1
     5      2     10 1
     6      3      4 1
     7      3     11 1
     8      3     12 1
     9      4      5 1
    10      4      9 1
    11      5      6 1
    12      5     13 1
    13      5     14 1
    14      6      7 1
    15      6     15 1
    16      6     16 1
    17      7      8 1
    18      7     17 1
    19      7     18 1
    20      8      9 1
    21      8     19 1
    22      8     20 1
    23      9     21 1
    24      9     22 1
    25     24     25 2
    26     25     26 1
    27     26     27 ar
    28     26     31 ar
    29     27     28 ar
    30     27     38 1
    31     28     29 ar
    32     28     39 1
    33     29     30 ar
    34     29     40 1
    35     30     31 ar
    36     30     41 1
    37     31     32 1
    38     32     33 1
    39     32     42 1
    40     32     43 1
    41     33     34 1
    42     33     37 1
    43     34     35 2
    44     34     44 1
    45     35     36 1
    46     35     45 1
    47     36     37 2
    48      1     25 am
@<TRIPOS>SUBSTRUCTURE
     1 BB1           1
     2 BB2          25
@<TRIPOS>MOLECULE
EN300-124870_i001_EN300-307464_i001_5_13_1
  40   42   2   0   0
SMALL
USER_CHARGES
@<TRIPOS>ATOM
     1 N1         1.3878   -15.2052    10.9410 N.am       1 BB1          0.0000
     2 C2         0.3197   -15.8331    11.7303 C.3        1 BB1          0.0000
     3 C3         0.0809   -15.3015    13.1452 C.3        1 BB1          0.0000
     4 C4         0.7347   -16.6678    12.9411 C.3        1 BB1          0.0000
     5 C5         2.2311   -16.7925    13.2424 C.3        1 BB1          0.0000
     6 C6         2.4089   -17.2205    14.7023 C.3        1 BB1          0.0000
     7 C7         1.6503   -18.5260    14.9463 C.3        1 BB1          0.0000
     8 C8         0.1529   -18.3042    14.7284 C.3        1 BB1          0.0000
     9 C9        -0.0975   -17.9109    13.2693 C.3        1 BB1          0.0000
    10 H10       -0.5503   -16.1652    11.1638 H          1 BB1          0.0000
    11 H11        0.7163   -14.4859    13.4905 H          1 BB1          0.0000
    12 H12       -0.9463   -15.2844    13.5098 H          1 BB1          0.0000
    13 H13        2.6745   -17.5411    12.5858 H          1 BB1          0.0000
    14 H14        2.7172   -15.8301    13.0822 H          1 BB1          0.0000
    15 H15        3.4682   -17.3714    14.9103 H          1 BB1          0.0000
    16 H16        2.0166   -16.4440    15.3590 H          1 BB1          0.0000
    17 H17        2.0083   -19.2878    14.2538 H          1 BB1          0.0000
    18 H18        1.8222   -18.8589    15.9699 H          1 BB1          0.0000
    19 H19       -0.3873   -19.2234    14.9549 H          1 BB1          0.0000
    20 H20       -0.1956   -17.5067    15.3847 H          1 BB1          0.0000
    21 H21       -1.1554   -17.6900    13.1272 H          1 BB1          0.0000
    22 H22        0.1972   -18.7309    12.6144 H          1 BB1          0.0000
    23 H24        0.9930   -14.7921    10.1094 H          1 BB1          0.0000
    24 O1        -0.6760   -13.9570    11.6512 O.2        2 BB2          0.0000
    25 C2        -0.3993   -13.5023    10.5493 C.2        2 BB2          0.0000
    26 C4        -0.9088   -12.1859    10.1499 C.2        2 BB2          0.0000
    27 C5        -0.6910   -11.7335     8.9156 C.2        2 BB2          0.0000
    28 C6        -1.6786   -11.3451    11.1356 C.3        2 BB2          0.0000
    29 N7        -2.9047   -10.8515    10.5037 N.pl3      2 BB2          0.0000
    30 C8        -4.0165   -11.5902    10.2008 C.2        2 BB2          0.0000
    31 C9        -4.9014   -10.7480     9.6340 C.2        2 BB2          0.0000
    32 N10       -4.3450    -9.5283     9.5919 N.2        2 BB2          0.0000
    33 C11       -3.1512    -9.5815    10.1165 C.2        2 BB2          0.0000
    34 H12       -1.0661   -10.7644     8.6216 H          2 BB2          0.0000
    35 H13       -0.1393   -12.3361     8.2092 H          2 BB2          0.0000
    36 H14       -1.9360   -11.9494    12.0054 H          2 BB2          0.0000
    37 H15       -1.0657   -10.4999    11.4489 H          2 BB2          0.0000
    38 H16       -4.1569   -12.6458    10.3811 H          2 BB2          0.0000
    39 H17       -5.8863   -11.0089     9.2761 H          2 BB2          0.0000
    40 H18       -2.4704    -8.7492    10.2173 H          2 BB2          0.0000
@<TRIPOS>BOND
     1      1      2 1
     2      1     23 1
     3      2      3 1
     4      2      4 1
     5      2     10 1
     6      3      4 1
     7      3     11 1
     8      3     12 1
     9      4      5 1
    10      4      9 1
    11      5      6 1
    12      5     13 1
    13      5     14 1
    14      6      7 1
    15      6     15 1
    16      6     16 1
    17      7      8 1
    18      7     17 1
    19      7     18 1
    20      8      9 1
    21      8     19 1
    22      8     20 1
    23      9     21 1
    24      9     22 1
    25     24     25 2
    26     25     26 1
    27     26     27 2
    28     26     28 1
    29     27     34 1
    30     27     35 1
    31     28     29 1
    32     28     36 1
    33     28     37 1
    34     29     30 1
    35     29     33 1
    36     30     31 2
    37     30     38 1
    38     31     32 1
    39     31     39 1
    40     32     33 2
    41     33     40 1
    42      1     25 am
@<TRIPOS>SUBSTRUCTURE
     1 BB1           1
     2 BB2          25
@<TRIPOS>MOLECULE
EN300-124870_i001_EN300-344045_i001_5_3_1
  52   55   2   0   0
SMALL
USER_CHARGES
@<TRIPOS>ATOM
     1 N1         1.3878   -15.2052    10.9410 N.am       1 BB1          0.0000
     2 C2         0.3197   -15.8331    11.7303 C.3        1 BB1          0.0000
     3 C3         0.0809   -15.3015    13.1452 C.3        1 BB1          0.0000
     4 C4         0.7347   -16.6678    12.9411 C.3        1 BB1          0.0000
     5 C5         2.2311   -16.7925    13.2424 C.3        1 BB1          0.0000
     6 C6         2.4089   -17.2205    14.7023 C.3        1 BB1          0.0000
     7 C7         1.6503   -18.5260    14.9463 C.3        1 BB1          0.0000
     8 C8         0.1529   -18.3042    14.7284 C.3        1 BB1          0.0000
     9 C9        -0.0975   -17.9109    13.2693 C.3        1 BB1          0.0000
    10 H10       -0.5503   -16.1652    11.1638 H          1 BB1          0.0000
    11 H11        0.7163   -14.4859    13.4905 H          1 BB1          0.0000
    12 H12       -0.9463   -15.2844    13.5098 H          1 BB1          0.0000
    13 H13        2.6745   -17.5411    12.5858 H          1 BB1          0.0000
    14 H14        2.7172   -15.8301    13.0822 H          1 BB1          0.0000
    15 H15        3.4682   -17.3714    14.9103 H          1 BB1          0.0000
    16 H16        2.0166   -16.4440    15.3590 H          1 BB1          0.0000
    17 H17        2.0083   -19.2878    14.2538 H          1 BB1          0.0000
    18 H18        1.8222   -18.8589    15.9699 H          1 BB1          0.0000
    19 H19       -0.3873   -19.2234    14.9549 H          1 BB1          0.0000
    20 H20       -0.1956   -17.5067    15.3847 H          1 BB1          0.0000
    21 H21       -1.1554   -17.6900    13.1272 H          1 BB1          0.0000
    22 H22        0.1972   -18.7309    12.6144 H          1 BB1          0.0000
    23 H25        1.8364   -14.4888    11.4920 H          1 BB1          0.0000
    24 C2         0.5459   -14.5453    10.1019 C.2        2 BB2          0.0000
    25 O3         0.1752   -15.4776     9.4091 O.2        2 BB2          0.0000
    26 C4        -0.4230   -13.4540    10.4780 C.3        2 BB2          0.0000
    27 C5        -0.6345   -12.5251     9.2809 C.3        2 BB2          0.0000
    28 C6         0.6374   -11.6890     9.0294 C.3        2 BB2          0.0000
    29 C7         1.4011   -12.4785     7.9373 C.3        2 BB2          0.0000
    30 C8         0.2593   -12.9923     7.0255 C.3        2 BB2          0.0000
    31 C9        -0.8749   -13.3536     8.0068 C.3        2 BB2          0.0000
    32 C10       -1.8085   -11.6149     9.5352 C.ar       2 BB2          0.0000
    33 C11       -3.0826   -12.1418     9.6348 C.ar       2 BB2          0.0000
    34 C12       -4.1594   -11.3070     9.8680 C.ar       2 BB2          0.0000
    35 C13       -3.9620    -9.9453    10.0023 C.ar       2 BB2          0.0000
    36 C14       -2.6878    -9.4186     9.9036 C.ar       2 BB2          0.0000
    37 C15       -1.6104   -10.2540     9.6747 C.ar       2 BB2          0.0000
    38 H16       -1.3759   -13.8977    10.7665 H          2 BB2          0.0000
    39 H17       -0.0201   -12.8827    11.3144 H          2 BB2          0.0000
    40 H18        0.3751   -10.6947     8.6682 H          2 BB2          0.0000
    41 H19        1.2348   -11.6204     9.9386 H          2 BB2          0.0000
    42 H20        2.0718   -11.8214     7.3835 H          2 BB2          0.0000
    43 H21        1.9500   -13.3119     8.3758 H          2 BB2          0.0000
    44 H22       -0.0641   -12.2083     6.3407 H          2 BB2          0.0000
    45 H23        0.5807   -13.8747     6.4723 H          2 BB2          0.0000
    46 H24       -0.8408   -14.4175     8.2413 H          2 BB2          0.0000
    47 H25       -1.8409   -13.0975     7.5716 H          2 BB2          0.0000
    48 H26       -3.2369   -13.2055     9.5299 H          2 BB2          0.0000
    49 H27       -5.1549   -11.7185     9.9450 H          2 BB2          0.0000
    50 H28       -4.8033    -9.2931    10.1838 H          2 BB2          0.0000
    51 H29       -2.5335    -8.3548    10.0082 H          2 BB2          0.0000
    52 H30       -0.6148    -9.8425     9.5976 H          2 BB2          0.0000
@<TRIPOS>BOND
     1      1      2 1
     2      1     23 1
     3      2      3 1
     4      2      4 1
     5      2     10 1
     6      3      4 1
     7      3     11 1
     8      3     12 1
     9      4      5 1
    10      4      9 1
    11      5      6 1
    12      5     13 1
    13      5     14 1
    14      6      7 1
    15      6     15 1
    16      6     16 1
    17      7      8 1
    18      7     17 1
    19      7     18 1
    20      8      9 1
    21      8     19 1
    22      8     20 1
    23      9     21 1
    24      9     22 1
    25     24     25 2
    26     24     26 1
    27     26     27 1
    28     26     38 1
    29     26     39 1
    30     27     28 1
    31     27     31 1
    32     27     32 1
    33     28     29 1
    34     28     40 1
    35     28     41 1
    36     29     30 1
    37     29     42 1
    38     29     43 1
    39     30     31 1
    40     30     44 1
    41     30     45 1
    42     31     46 1
    43     31     47 1
    44     32     33 ar
    45     32     37 ar
    46     33     34 ar
    47     33     48 1
    48     34     35 ar
    49     34     49 1
    50     35     36 ar
    51     35     50 1
    52     36     37 ar
    53     36     51 1
    54     37     52 1
    55      1     24 am
@<TRIPOS>SUBSTRUCTURE
     1 BB1           1
     2 BB2          24
@<TRIPOS>MOLECULE
EN300-124870_i001_EN300-1165841_i001_6_10_1
  51   53   2   0   0
SMALL
USER_CHARGES
@<TRIPOS>ATOM
     1 N1         0.5102   -16.1610    11.0299 N.am       1 BB1          0.0000
     2 C2         0.7949   -14.7408    10.7849 C.3        1 BB1          0.0000
     3 C3        -0.3941   -13.8206    10.4999 C.3        1 BB1          0.0000
     4 C4         0.5616   -14.2079     9.3719 C.3        1 BB1          0.0000
     5 C5         0.0521   -15.1911     8.3139 C.3        1 BB1          0.0000
     6 C6        -0.5683   -14.3991     7.1590 C.3        1 BB1          0.0000
     7 C7         0.4648   -13.4193     6.6005 C.3        1 BB1          0.0000
     8 C8         0.8518   -12.4042     7.6769 C.3        1 BB1          0.0000
     9 C9         1.5178   -13.1320     8.8486 C.3        1 BB1          0.0000
    10 H10        1.6298   -14.3246    11.3488 H          1 BB1          0.0000
    11 H11       -1.3876   -14.2690    10.4941 H          1 BB1          0.0000
    12 H12       -0.3412   -12.7988    10.8759 H          1 BB1          0.0000
    13 H13        0.8835   -15.7895     7.9412 H          1 BB1          0.0000
    14 H14       -0.7009   -15.8441     8.7550 H          1 BB1          0.0000
    15 H15       -0.8794   -15.0868     6.3725 H          1 BB1          0.0000
    16 H16       -1.4347   -13.8461     7.5217 H          1 BB1          0.0000
    17 H17        1.3516   -13.9688     6.2851 H          1 BB1          0.0000
    18 H18        0.0409   -12.8953     5.7438 H          1 BB1          0.0000
    19 H19        1.5476   -11.6774     7.2576 H          1 BB1          0.0000
    20 H20       -0.0423   -11.8898     8.0295 H          1 BB1          0.0000
    21 H21        1.7363   -12.4196     9.6441 H          1 BB1          0.0000
    22 H22        2.4427   -13.5989     8.5101 H          1 BB1          0.0000
    23 H23       -0.2539   -16.4572    10.4412 H          1 BB1          0.0000
    24 C1        -0.7086   -16.1151    14.9647 C.3        2 BB2          0.0000
    25 C2        -0.2456   -16.3017    13.5184 C.3        2 BB2          0.0000
    26 N3        -0.6091   -17.6484    13.0577 N.4        2 BB2          1.0000
    27 C4         0.1821   -18.6446    13.7899 C.3        2 BB2          0.0000
    28 C5        -0.2499   -20.0519    13.3722 C.3        2 BB2          0.0000
    29 C6        -0.0237   -20.2238    11.8674 C.3        2 BB2          0.0000
    30 O7         1.3709   -20.1085    11.5776 O.3        2 BB2          0.0000
    31 C8        -0.7944   -19.1335    11.1174 C.3        2 BB2          0.0000
    32 C9        -0.3422   -17.7602    11.6187 C.3        2 BB2          0.0000
    33 C10       -0.5062   -21.5488    11.4453 C.1        2 BB2          0.0000
    34 C11       -0.8911   -22.6057    11.1088 C.1        2 BB2          0.0000
    35 C12        1.2499   -16.1319    13.4438 C.2        2 BB2          0.0000
    36 O14        1.8887   -15.9021    14.4566 O.2        2 BB2          0.0000
    37 H15       -0.2264   -16.8588    15.5993 H          2 BB2          0.0000
    38 H16       -0.4388   -15.1159    15.3066 H          2 BB2          0.0000
    39 H17       -1.7903   -16.2380    15.0186 H          2 BB2          0.0000
    40 H18       -0.7277   -15.5581    12.8838 H          2 BB2          0.0000
    41 H19        1.2392   -18.5070    13.5624 H          2 BB2          0.0000
    42 H20        0.0225   -18.5189    14.8608 H          2 BB2          0.0000
    43 H21        0.3399   -20.7900    13.9156 H          2 BB2          0.0000
    44 H22       -1.3069   -20.1906    13.5996 H          2 BB2          0.0000
    45 H23       -0.5938   -19.2152    10.0492 H          2 BB2          0.0000
    46 H24       -1.8626   -19.2532    11.2980 H          2 BB2          0.0000
    47 H25       -0.8888   -16.9816    11.0867 H          2 BB2          0.0000
    48 H26        0.7260   -17.6415    11.4374 H          2 BB2          0.0000
    49 H27       -1.2353   -23.5508    10.8077 H          2 BB2          0.0000
    50 H28        1.5903   -20.2342    10.6442 H          2 BB2          0.0000
    51 H29       -1.5906   -17.8078    13.2291 H          2 BB2          0.0000
@<TRIPOS>BOND
     1      1      2 1
     2      1     23 1
     3      2      3 1
     4      2      4 1
     5      2     10 1
     6      3      4 1
     7      3     11 1
     8      3     12 1
     9      4      5 1
    10      4      9 1
    11      5      6 1
    12      5     13 1
    13      5     14 1
    14      6      7 1
    15      6     15 1
    16      6     16 1
    17      7      8 1
    18      7     17 1
    19      7     18 1
    20      8      9 1
    21      8     19 1
    22      8     20 1
    23      9     21 1
    24      9     22 1
    25     24     25 1
    26     24     37 1
    27     24     38 1
    28     24     39 1
    29     25     26 1
    30     25     35 1
    31     25     40 1
    32     26     27 1
    33     26     32 1
    34     26     51 1
    35     27     28 1
    36     27     41 1
    37     27     42 1
    38     28     29 1
    39     28     43 1
    40     28     44 1
    41     29     30 1
    42     29     31 1
    43     29     33 1
    44     30     50 1
    45     31     32 1
    46     31     45 1
    47     31     46 1
    48     32     47 1
    49     32     48 1
    50     33     34 3
    51     34     49 1
    52     35     36 2
    53      1     35 am
@<TRIPOS>SUBSTRUCTURE
     1 BB1           1
     2 BB2          35
@<TRIPOS>MOLECULE
EN300-124870_i001_EN300-222254_i002_6_11_1
  46   49   2   0   0
SMALL
USER_CHARGES
@<TRIPOS>ATOM
     1 N1         0.5102   -16.1610    11.0299 N.am       1 BB1          0.0000
     2 C2         0.7949   -14.7408    10.7849 C.3        1 BB1          0.0000
     3 C3        -0.3941   -13.8206    10.4999 C.3        1 BB1          0.0000
     4 C4         0.5616   -14.2079     9.3719 C.3        1 BB1          0.0000
     5 C5         0.0521   -15.1911     8.3139 C.3        1 BB1          0.0000
     6 C6        -0.5683   -14.3991     7.1590 C.3        1 BB1          0.0000
     7 C7         0.4648   -13.4193     6.6005 C.3        1 BB1          0.0000
     8 C8         0.8518   -12.4042     7.6769 C.3        1 BB1          0.0000
     9 C9         1.5178   -13.1320     8.8486 C.3        1 BB1          0.0000
    10 H10        1.6298   -14.3246    11.3488 H          1 BB1          0.0000
    11 H11       -1.3876   -14.2690    10.4941 H          1 BB1          0.0000
    12 H12       -0.3412   -12.7988    10.8759 H          1 BB1          0.0000
    13 H13        0.8835   -15.7895     7.9412 H          1 BB1          0.0000
    14 H14       -0.7009   -15.8441     8.7550 H          1 BB1          0.0000
    15 H15       -0.8794   -15.0868     6.3725 H          1 BB1          0.0000
    16 H16       -1.4347   -13.8461     7.5217 H          1 BB1          0.0000
    17 H17        1.3516   -13.9688     6.2851 H          1 BB1          0.0000
    18 H18        0.0409   -12.8953     5.7438 H          1 BB1          0.0000
    19 H19        1.5476   -11.6774     7.2576 H          1 BB1          0.0000
    20 H20       -0.0423   -11.8898     8.0295 H          1 BB1          0.0000
    21 H21        1.7363   -12.4196     9.6441 H          1 BB1          0.0000
    22 H22        2.4427   -13.5989     8.5101 H          1 BB1          0.0000
    23 H24        1.3301   -16.7098    10.8184 H          1 BB1          0.0000
    24 O1        -0.9329   -16.4987    13.0736 O.2        2 BB2          0.0000
    25 C2        -0.0890   -16.4649    13.9530 C.2        2 BB2          0.0000
    26 C4         1.0102   -17.4953    13.9824 C.3        2 BB2          0.0000
    27 C5         2.4137   -16.9052    13.7655 C.3        2 BB2          0.0000
    28 C6         2.7134   -18.1403    12.8997 C.3        2 BB2          0.0000
    29 C7         1.1995   -18.2324    12.6460 C.3        2 BB2          0.0000
    30 C8         0.6707   -19.6435    12.6547 C.ar       2 BB2          0.0000
    31 C9         0.9666   -20.4857    13.7095 C.ar       2 BB2          0.0000
    32 C10        0.4823   -21.7805    13.7181 C.ar       2 BB2          0.0000
    33 C11       -0.2996   -22.2344    12.6710 C.ar       2 BB2          0.0000
    34 Cl12      -0.9077   -23.8604    12.6831 Cl         2 BB2          0.0000
    35 C13       -0.5972   -21.3925    11.6145 C.ar       2 BB2          0.0000
    36 C14       -0.1166   -20.0944    11.6084 C.ar       2 BB2          0.0000
    37 F15       -0.4069   -19.2710    10.5774 F          2 BB2          0.0000
    38 H16        0.9444   -18.1600    14.8436 H          2 BB2          0.0000
    39 H17        2.4123   -15.9697    13.2060 H          2 BB2          0.0000
    40 H18        3.0114   -16.8544    14.6755 H          2 BB2          0.0000
    41 H19        3.2933   -17.9157    12.0045 H          2 BB2          0.0000
    42 H20        3.1136   -18.9825    13.4642 H          2 BB2          0.0000
    43 H21        0.8662   -17.6598    11.7805 H          2 BB2          0.0000
    44 H22        1.5769   -20.1323    14.5275 H          2 BB2          0.0000
    45 H23        0.7147   -22.4382    14.5427 H          2 BB2          0.0000
    46 H24       -1.2075   -21.7465    10.7969 H          2 BB2          0.0000
@<TRIPOS>BOND
     1      1      2 1
     2      1     23 1
     3      2      3 1
     4      2      4 1
     5      2     10 1
     6      3      4 1
     7      3     11 1
     8      3     12 1
     9      4      5 1
    10      4      9 1
    11      5      6 1
    12      5     13 1
    13      5     14 1
    14      6      7 1
    15      6     15 1
    16      6     16 1
    17      7      8 1
    18      7     17 1
    19      7     18 1
    20      8      9 1
    21      8     19 1
    22      8     20 1
    23      9     21 1
    24      9     22 1
    25     24     25 2
    26     25     26 1
    27     26     27 1
    28     26     29 1
    29     26     38 1
    30     27     28 1
    31     27     39 1
    32     27     40 1
    33     28     29 1
    34     28     41 1
    35     28     42 1
    36     29     30 1
    37     29     43 1
    38     30     31 ar
    39     30     36 ar
    40     31     32 ar
    41     31     44 1
    42     32     33 ar
    43     32     45 1
    44     33     34 1
    45     33     35 ar
    46     35     36 ar
    47     35     46 1
    48     36     37 1
    49      1     25 am
@<TRIPOS>SUBSTRUCTURE
     1 BB1           1
     2 BB2          25
@<TRIPOS>MOLECULE
EN300-124870_i001_EN300-222254_i002_6_20_1
  46   49   2   0   0
SMALL
USER_CHARGES
@<TRIPOS>ATOM
     1 N1         0.5102   -16.1610    11.0299 N.am       1 BB1          0.0000
     2 C2         0.7949   -14.7408    10.7849 C.3        1 BB1          0.0000
     3 C3        -0.3941   -13.8206    10.4999 C.3        1 BB1          0.0000
     4 C4         0.5616   -14.2079     9.3719 C.3        1 BB1          0.0000
     5 C5         0.0521   -15.1911     8.3139 C.3        1 BB1          0.0000
     6 C6        -0.5683   -14.3991     7.1590 C.3        1 BB1          0.0000
     7 C7         0.4648   -13.4193     6.6005 C.3        1 BB1          0.0000
     8 C8         0.8518   -12.4042     7.6769 C.3        1 BB1          0.0000
     9 C9         1.5178   -13.1320     8.8486 C.3        1 BB1          0.0000
    10 H10        1.6298   -14.3246    11.3488 H          1 BB1          0.0000
    11 H11       -1.3876   -14.2690    10.4941 H          1 BB1          0.0000
    12 H12       -0.3412   -12.7988    10.8759 H          1 BB1          0.0000
    13 H13        0.8835   -15.7895     7.9412 H          1 BB1          0.0000
    14 H14       -0.7009   -15.8441     8.7550 H          1 BB1          0.0000
    15 H15       -0.8794   -15.0868     6.3725 H          1 BB1          0.0000
    16 H16       -1.4347   -13.8461     7.5217 H          1 BB1          0.0000
    17 H17        1.3516   -13.9688     6.2851 H          1 BB1          0.0000
    18 H18        0.0409   -12.8953     5.7438 H          1 BB1          0.0000
    19 H19        1.5476   -11.6774     7.2576 H          1 BB1          0.0000
    20 H20       -0.0423   -11.8898     8.0295 H          1 BB1          0.0000
    21 H21        1.7363   -12.4196     9.6441 H          1 BB1          0.0000
    22 H22        2.4427   -13.5989     8.5101 H          1 BB1          0.0000
    23 H24        1.3301   -16.7098    10.8184 H          1 BB1          0.0000
    24 O1        -0.1937   -15.4726    12.3986 O.2        2 BB2          0.0000
    25 C2        -0.2904   -16.6423    12.7290 C.2        2 BB2          0.0000
    26 C4         0.4712   -17.1529    13.9248 C.3        2 BB2          0.0000
    27 C5         1.6394   -16.2452    14.3447 C.3        2 BB2          0.0000
    28 C6         2.4427   -17.5309    14.6026 C.3        2 BB2          0.0000
    29 C7         1.5260   -18.2160    13.5753 C.3        2 BB2          0.0000
    30 C8         1.1243   -19.6156    13.9636 C.ar       2 BB2          0.0000
    31 C9         0.6320   -19.8668    15.2300 C.ar       2 BB2          0.0000
    32 C10        0.2636   -21.1505    15.5872 C.ar       2 BB2          0.0000
    33 C11        0.3868   -22.1850    14.6770 C.ar       2 BB2          0.0000
    34 Cl12      -0.0766   -23.7965    15.1264 Cl         2 BB2          0.0000
    35 C13        0.8790   -21.9351    13.4085 C.ar       2 BB2          0.0000
    36 C14        1.2430   -20.6489    13.0492 C.ar       2 BB2          0.0000
    37 F15        1.7234   -20.4034    11.8106 F          2 BB2          0.0000
    38 H16       -0.1798   -17.4371    14.7515 H          2 BB2          0.0000
    39 H17        2.0357   -15.6387    13.5304 H          2 BB2          0.0000
    40 H18        1.4403   -15.6665    15.2467 H          2 BB2          0.0000
    41 H19        3.4833   -17.4666    14.2848 H          2 BB2          0.0000
    42 H20        2.3314   -17.9196    15.6148 H          2 BB2          0.0000
    43 H21        1.8913   -18.1483    12.5506 H          2 BB2          0.0000
    44 H22        0.5354   -19.0599    15.9414 H          2 BB2          0.0000
    45 H23       -0.1204   -21.3460    16.5776 H          2 BB2          0.0000
    46 H24        0.9754   -22.7424    12.6977 H          2 BB2          0.0000
@<TRIPOS>BOND
     1      1      2 1
     2      1     23 1
     3      2      3 1
     4      2      4 1
     5      2     10 1
     6      3      4 1
     7      3     11 1
     8      3     12 1
     9      4      5 1
    10      4      9 1
    11      5      6 1
    12      5     13 1
    13      5     14 1
    14      6      7 1
    15      6     15 1
    16      6     16 1
    17      7      8 1
    18      7     17 1
    19      7     18 1
    20      8      9 1
    21      8     19 1
    22      8     20 1
    23      9     21 1
    24      9     22 1
    25     24     25 2
    26     25     26 1
    27     26     27 1
    28     26     29 1
    29     26     38 1
    30     27     28 1
    31     27     39 1
    32     27     40 1
    33     28     29 1
    34     28     41 1
    35     28     42 1
    36     29     30 1
    37     29     43 1
    38     30     31 ar
    39     30     36 ar
    40     31     32 ar
    41     31     44 1
    42     32     33 ar
    43     32     45 1
    44     33     34 1
    45     33     35 ar
    46     35     36 ar
    47     35     46 1
    48     36     37 1
    49      1     25 am
@<TRIPOS>SUBSTRUCTURE
     1 BB1           1
     2 BB2          25
@<TRIPOS>MOLECULE
EN300-124870_i001_EN300-34862_i002_6_1_1
  35   37   2   0   0
SMALL
USER_CHARGES
@<TRIPOS>ATOM
     1 N1         0.5102   -16.1610    11.0299 N.am       1 BB1          0.0000
     2 C2         0.7949   -14.7408    10.7849 C.3        1 BB1          0.0000
     3 C3        -0.3941   -13.8206    10.4999 C.3        1 BB1          0.0000
     4 C4         0.5616   -14.2079     9.3719 C.3        1 BB1          0.0000
     5 C5         0.0521   -15.1911     8.3139 C.3        1 BB1          0.0000
     6 C6        -0.5683   -14.3991     7.1590 C.3        1 BB1          0.0000
     7 C7         0.4648   -13.4193     6.6005 C.3        1 BB1          0.0000
     8 C8         0.8518   -12.4042     7.6769 C.3        1 BB1          0.0000
     9 C9         1.5178   -13.1320     8.8486 C.3        1 BB1          0.0000
    10 H10        1.6298   -14.3246    11.3488 H          1 BB1          0.0000
    11 H11       -1.3876   -14.2690    10.4941 H          1 BB1          0.0000
    12 H12       -0.3412   -12.7988    10.8759 H          1 BB1          0.0000
    13 H13        0.8835   -15.7895     7.9412 H          1 BB1          0.0000
    14 H14       -0.7009   -15.8441     8.7550 H          1 BB1          0.0000
    15 H15       -0.8794   -15.0868     6.3725 H          1 BB1          0.0000
    16 H16       -1.4347   -13.8461     7.5217 H          1 BB1          0.0000
    17 H17        1.3516   -13.9688     6.2851 H          1 BB1          0.0000
    18 H18        0.0409   -12.8953     5.7438 H          1 BB1          0.0000
    19 H19        1.5476   -11.6774     7.2576 H          1 BB1          0.0000
    20 H20       -0.0423   -11.8898     8.0295 H          1 BB1          0.0000
    21 H21        1.7363   -12.4196     9.6441 H          1 BB1          0.0000
    22 H22        2.4427   -13.5989     8.5101 H          1 BB1          0.0000
    23 H23       -0.2539   -16.4572    10.4412 H          1 BB1          0.0000
    24 C2         1.7110   -16.2827    13.3004 C.2        2 BB2          0.0000
    25 O3         1.8462   -15.5991    12.2999 O.2        2 BB2          0.0000
    26 C4         2.4553   -17.5868    13.4281 C.3        2 BB2          0.0000
    27 C5         2.0008   -18.2992    14.7086 C.3        2 BB2          0.0000
    28 S6         1.3339   -19.8858    14.1146 S.3        2 BB2          0.0000
    29 C7         1.6432   -19.5854    12.4010 C.2        2 BB2          0.0000
    30 O8         1.3812   -20.3543    11.4960 O.2        2 BB2          0.0000
    31 N9         2.2058   -18.3893    12.2522 N.am       2 BB2          0.0000
    32 H10        3.5235   -17.3808    13.4958 H          2 BB2          0.0000
    33 H11        2.8475   -18.4656    15.3747 H          2 BB2          0.0000
    34 H12        1.2247   -17.7226    15.2121 H          2 BB2          0.0000
    35 H13        2.4438   -18.0617    11.3709 H          2 BB2          0.0000
@<TRIPOS>BOND
     1      1      2 1
     2      1     23 1
     3      2      3 1
     4      2      4 1
     5      2     10 1
     6      3      4 1
     7      3     11 1
     8      3     12 1
     9      4      5 1
    10      4      9 1
    11      5      6 1
    12      5     13 1
    13      5     14 1
    14      6      7 1
    15      6     15 1
    16      6     16 1
    17      7      8 1
    18      7     17 1
    19      7     18 1
    20      8      9 1
    21      8     19 1
    22      8     20 1
    23      9     21 1
    24      9     22 1
    25     24     25 2
    26     24     26 1
    27     26     27 1
    28     26     31 1
    29     26     32 1
    30     27     28 1
    31     27     33 1
    32     27     34 1
    33     28     29 1
    34     29     30 2
    35     29     31 am
    36     31     35 1
    37      1     24 am
@<TRIPOS>SUBSTRUCTURE
     1 BB1           1
     2 BB2          24
@<TRIPOS>MOLECULE
EN300-124870_i001_EN300-34862_i002_6_14_1
  35   37   2   0   0
SMALL
USER_CHARGES
@<TRIPOS>ATOM
     1 N1         0.5102   -16.1610    11.0299 N.am       1 BB1          0.0000
     2 C2         0.7949   -14.7408    10.7849 C.3        1 BB1          0.0000
     3 C3        -0.3941   -13.8206    10.4999 C.3        1 BB1          0.0000
     4 C4         0.5616   -14.2079     9.3719 C.3        1 BB1          0.0000
     5 C5         0.0521   -15.1911     8.3139 C.3        1 BB1          0.0000
     6 C6        -0.5683   -14.3991     7.1590 C.3        1 BB1          0.0000
     7 C7         0.4648   -13.4193     6.6005 C.3        1 BB1          0.0000
     8 C8         0.8518   -12.4042     7.6769 C.3        1 BB1          0.0000
     9 C9         1.5178   -13.1320     8.8486 C.3        1 BB1          0.0000
    10 H10        1.6298   -14.3246    11.3488 H          1 BB1          0.0000
    11 H11       -1.3876   -14.2690    10.4941 H          1 BB1          0.0000
    12 H12       -0.3412   -12.7988    10.8759 H          1 BB1          0.0000
    13 H13        0.8835   -15.7895     7.9412 H          1 BB1          0.0000
    14 H14       -0.7009   -15.8441     8.7550 H          1 BB1          0.0000
    15 H15       -0.8794   -15.0868     6.3725 H          1 BB1          0.0000
    16 H16       -1.4347   -13.8461     7.5217 H          1 BB1          0.0000
    17 H17        1.3516   -13.9688     6.2851 H          1 BB1          0.0000
    18 H18        0.0409   -12.8953     5.7438 H          1 BB1          0.0000
    19 H19        1.5476   -11.6774     7.2576 H          1 BB1          0.0000
    20 H20       -0.0423   -11.8898     8.0295 H          1 BB1          0.0000
    21 H21        1.7363   -12.4196     9.6441 H          1 BB1          0.0000
    22 H22        2.4427   -13.5989     8.5101 H          1 BB1          0.0000
    23 H24        1.3301   -16.7098    10.8184 H          1 BB1          0.0000
    24 C2         0.8251   -16.2952    13.2882 C.2        2 BB2          0.0000
    25 O3         0.8709   -15.8251    14.4122 O.2        2 BB2          0.0000
    26 C4         1.0108   -17.7766    13.0830 C.3        2 BB2          0.0000
    27 C5        -0.0651   -18.5304    13.8755 C.3        2 BB2          0.0000
    28 S6        -0.9625   -19.4773    12.6055 S.3        2 BB2          0.0000
    29 C7         0.0017   -18.9102    11.2376 C.2        2 BB2          0.0000
    30 O8        -0.1655   -19.2378    10.0784 O.2        2 BB2          0.0000
    31 N9         0.9376   -18.0697    11.6695 N.am       2 BB2          0.0000
    32 H10        1.9940   -18.0661    13.4540 H          2 BB2          0.0000
    33 H11        0.3944   -19.2026    14.6002 H          2 BB2          0.0000
    34 H12       -0.7345   -17.8292    14.3739 H          2 BB2          0.0000
    35 H13        1.5594   -17.6608    11.0474 H          2 BB2          0.0000
@<TRIPOS>BOND
     1      1      2 1
     2      1     23 1
     3      2      3 1
     4      2      4 1
     5      2     10 1
     6      3      4 1
     7      3     11 1
     8      3     12 1
     9      4      5 1
    10      4      9 1
    11      5      6 1
    12      5     13 1
    13      5     14 1
    14      6      7 1
    15      6     15 1
    16      6     16 1
    17      7      8 1
    18      7     17 1
    19      7     18 1
    20      8      9 1
    21      8     19 1
    22      8     20 1
    23      9     21 1
    24      9     22 1
    25     24     25 2
    26     24     26 1
    27     26     27 1
    28     26     31 1
    29     26     32 1
    30     27     28 1
    31     27     33 1
    32     27     34 1
    33     28     29 1
    34     29     30 2
    35     29     31 am
    36     31     35 1
    37      1     24 am
@<TRIPOS>SUBSTRUCTURE
     1 BB1           1
     2 BB2          24
@<TRIPOS>MOLECULE
EN300-124870_i001_EN300-34862_i002_6_15_1
  35   37   2   0   0
SMALL
USER_CHARGES
@<TRIPOS>ATOM
     1 N1         0.5102   -16.1610    11.0299 N.am       1 BB1          0.0000
     2 C2         0.7949   -14.7408    10.7849 C.3        1 BB1          0.0000
     3 C3        -0.3941   -13.8206    10.4999 C.3        1 BB1          0.0000
     4 C4         0.5616   -14.2079     9.3719 C.3        1 BB1          0.0000
     5 C5         0.0521   -15.1911     8.3139 C.3        1 BB1          0.0000
     6 C6        -0.5683   -14.3991     7.1590 C.3        1 BB1          0.0000
     7 C7         0.4648   -13.4193     6.6005 C.3        1 BB1          0.0000
     8 C8         0.8518   -12.4042     7.6769 C.3        1 BB1          0.0000
     9 C9         1.5178   -13.1320     8.8486 C.3        1 BB1          0.0000
    10 H10        1.6298   -14.3246    11.3488 H          1 BB1          0.0000
    11 H11       -1.3876   -14.2690    10.4941 H          1 BB1          0.0000
    12 H12       -0.3412   -12.7988    10.8759 H          1 BB1          0.0000
    13 H13        0.8835   -15.7895     7.9412 H          1 BB1          0.0000
    14 H14       -0.7009   -15.8441     8.7550 H          1 BB1          0.0000
    15 H15       -0.8794   -15.0868     6.3725 H          1 BB1          0.0000
    16 H16       -1.4347   -13.8461     7.5217 H          1 BB1          0.0000
    17 H17        1.3516   -13.9688     6.2851 H          1 BB1          0.0000
    18 H18        0.0409   -12.8953     5.7438 H          1 BB1          0.0000
    19 H19        1.5476   -11.6774     7.2576 H          1 BB1          0.0000
    20 H20       -0.0423   -11.8898     8.0295 H          1 BB1          0.0000
    21 H21        1.7363   -12.4196     9.6441 H          1 BB1          0.0000
    22 H22        2.4427   -13.5989     8.5101 H          1 BB1          0.0000
    23 H24        1.3301   -16.7098    10.8184 H          1 BB1          0.0000
    24 O1        -0.2724   -15.2098    12.6585 O.2        2 BB2          0.0000
    25 C2        -0.0124   -15.9764    13.5702 C.2        2 BB2          0.0000
    26 C4         0.4111   -17.3907    13.2679 C.3        2 BB2          0.0000
    27 C5         1.8467   -17.6008    13.7666 C.3        2 BB2          0.0000
    28 S6         1.6988   -18.9603    14.9686 S.3        2 BB2          0.0000
    29 C7        -0.0459   -19.1754    14.7894 C.2        2 BB2          0.0000
    30 O8        -0.7166   -19.9937    15.3890 O.2        2 BB2          0.0000
    31 N9        -0.5136   -18.3050    13.8991 N.am       2 BB2          0.0000
    32 H10        0.3827   -17.5471    12.1895 H          2 BB2          0.0000
    33 H11        2.4995   -17.8884    12.9424 H          2 BB2          0.0000
    34 H12        2.2183   -16.6990    14.2531 H          2 BB2          0.0000
    35 H13       -1.4577   -18.2838    13.6778 H          2 BB2          0.0000
@<TRIPOS>BOND
     1      1      2 1
     2      1     23 1
     3      2      3 1
     4      2      4 1
     5      2     10 1
     6      3      4 1
     7      3     11 1
     8      3     12 1
     9      4      5 1
    10      4      9 1
    11      5      6 1
    12      5     13 1
    13      5     14 1
    14      6      7 1
    15      6     15 1
    16      6     16 1
    17      7      8 1
    18      7     17 1
    19      7     18 1
    20      8      9 1
    21      8     19 1
    22      8     20 1
    23      9     21 1
    24      9     22 1
    25     24     25 2
    26     25     26 1
    27     26     27 1
    28     26     31 1
    29     26     32 1
    30     27     28 1
    31     27     33 1
    32     27     34 1
    33     28     29 1
    34     29     30 2
    35     29     31 am
    36     31     35 1
    37      1     25 am
@<TRIPOS>SUBSTRUCTURE
     1 BB1           1
     2 BB2          25
@<TRIPOS>MOLECULE
EN300-124870_i001_EN300-34862_i002_6_16_1
  35   37   2   0   0
SMALL
USER_CHARGES
@<TRIPOS>ATOM
     1 N1         0.5102   -16.1610    11.0299 N.am       1 BB1          0.0000
     2 C2         0.7949   -14.7408    10.7849 C.3        1 BB1          0.0000
     3 C3        -0.3941   -13.8206    10.4999 C.3        1 BB1          0.0000
     4 C4         0.5616   -14.2079     9.3719 C.3        1 BB1          0.0000
     5 C5         0.0521   -15.1911     8.3139 C.3        1 BB1          0.0000
     6 C6        -0.5683   -14.3991     7.1590 C.3        1 BB1          0.0000
     7 C7         0.4648   -13.4193     6.6005 C.3        1 BB1          0.0000
     8 C8         0.8518   -12.4042     7.6769 C.3        1 BB1          0.0000
     9 C9         1.5178   -13.1320     8.8486 C.3        1 BB1          0.0000
    10 H10        1.6298   -14.3246    11.3488 H          1 BB1          0.0000
    11 H11       -1.3876   -14.2690    10.4941 H          1 BB1          0.0000
    12 H12       -0.3412   -12.7988    10.8759 H          1 BB1          0.0000
    13 H13        0.8835   -15.7895     7.9412 H          1 BB1          0.0000
    14 H14       -0.7009   -15.8441     8.7550 H          1 BB1          0.0000
    15 H15       -0.8794   -15.0868     6.3725 H          1 BB1          0.0000
    16 H16       -1.4347   -13.8461     7.5217 H          1 BB1          0.0000
    17 H17        1.3516   -13.9688     6.2851 H          1 BB1          0.0000
    18 H18        0.0409   -12.8953     5.7438 H          1 BB1          0.0000
    19 H19        1.5476   -11.6774     7.2576 H          1 BB1          0.0000
    20 H20       -0.0423   -11.8898     8.0295 H          1 BB1          0.0000
    21 H21        1.7363   -12.4196     9.6441 H          1 BB1          0.0000
    22 H22        2.4427   -13.5989     8.5101 H          1 BB1          0.0000
    23 H23       -0.2539   -16.4572    10.4412 H          1 BB1          0.0000
    24 C2         0.4752   -16.6360    13.6291 C.2        2 BB2          0.0000
    25 O3         0.9767   -15.6041    14.0417 O.2        2 BB2          0.0000
    26 C4         1.3028   -17.8921    13.5381 C.3        2 BB2          0.0000
    27 C5         0.7267   -18.9418    14.4973 C.3        2 BB2          0.0000
    28 S6         0.2961   -20.3385    13.4116 S.3        2 BB2          0.0000
    29 C7         0.8294   -19.5753    11.9097 C.2        2 BB2          0.0000
    30 O8         0.7727   -20.0838    10.8064 O.2        2 BB2          0.0000
    31 N9         1.3016   -18.3596    12.1703 N.am       2 BB2          0.0000
    32 H10        2.3271   -17.6647    13.8334 H          2 BB2          0.0000
    33 H11        1.4762   -19.2432    15.2292 H          2 BB2          0.0000
    34 H12       -0.1627   -18.5568    14.9960 H          2 BB2          0.0000
    35 H13        1.6386   -17.7969    11.4557 H          2 BB2          0.0000
@<TRIPOS>BOND
     1      1      2 1
     2      1     23 1
     3      2      3 1
     4      2      4 1
     5      2     10 1
     6      3      4 1
     7      3     11 1
     8      3     12 1
     9      4      5 1
    10      4      9 1
    11      5      6 1
    12      5     13 1
    13      5     14 1
    14      6      7 1
    15      6     15 1
    16      6     16 1
    17      7      8 1
    18      7     17 1
    19      7     18 1
    20      8      9 1
    21      8     19 1
    22      8     20 1
    23      9     21 1
    24      9     22 1
    25     24     25 2
    26     24     26 1
    27     26     27 1
    28     26     31 1
    29     26     32 1
    30     27     28 1
    31     27     33 1
    32     27     34 1
    33     28     29 1
    34     29     30 2
    35     29     31 am
    36     31     35 1
    37      1     24 am
@<TRIPOS>SUBSTRUCTURE
     1 BB1           1
     2 BB2          24
@<TRIPOS>MOLECULE
EN300-124870_i001_EN300-34862_i002_6_3_1
  35   37   2   0   0
SMALL
USER_CHARGES
@<TRIPOS>ATOM
     1 N1         0.5102   -16.1610    11.0299 N.am       1 BB1          0.0000
     2 C2         0.7949   -14.7408    10.7849 C.3        1 BB1          0.0000
     3 C3        -0.3941   -13.8206    10.4999 C.3        1 BB1          0.0000
     4 C4         0.5616   -14.2079     9.3719 C.3        1 BB1          0.0000
     5 C5         0.0521   -15.1911     8.3139 C.3        1 BB1          0.0000
     6 C6        -0.5683   -14.3991     7.1590 C.3        1 BB1          0.0000
     7 C7         0.4648   -13.4193     6.6005 C.3        1 BB1          0.0000
     8 C8         0.8518   -12.4042     7.6769 C.3        1 BB1          0.0000
     9 C9         1.5178   -13.1320     8.8486 C.3        1 BB1          0.0000
    10 H10        1.6298   -14.3246    11.3488 H          1 BB1          0.0000
    11 H11       -1.3876   -14.2690    10.4941 H          1 BB1          0.0000
    12 H12       -0.3412   -12.7988    10.8759 H          1 BB1          0.0000
    13 H13        0.8835   -15.7895     7.9412 H          1 BB1          0.0000
    14 H14       -0.7009   -15.8441     8.7550 H          1 BB1          0.0000
    15 H15       -0.8794   -15.0868     6.3725 H          1 BB1          0.0000
    16 H16       -1.4347   -13.8461     7.5217 H          1 BB1          0.0000
    17 H17        1.3516   -13.9688     6.2851 H          1 BB1          0.0000
    18 H18        0.0409   -12.8953     5.7438 H          1 BB1          0.0000
    19 H19        1.5476   -11.6774     7.2576 H          1 BB1          0.0000
    20 H20       -0.0423   -11.8898     8.0295 H          1 BB1          0.0000
    21 H21        1.7363   -12.4196     9.6441 H          1 BB1          0.0000
    22 H22        2.4427   -13.5989     8.5101 H          1 BB1          0.0000
    23 H23       -0.2539   -16.4572    10.4412 H          1 BB1          0.0000
    24 C2         1.5373   -16.5492    13.4809 C.2        2 BB2          0.0000
    25 O3         2.0061   -15.7689    12.6698 O.2        2 BB2          0.0000
    26 C4         1.8134   -18.0252    13.3532 C.3        2 BB2          0.0000
    27 C5         1.0261   -18.7770    14.4343 C.3        2 BB2          0.0000
    28 S6        -0.0426   -19.9094    13.4907 S.3        2 BB2          0.0000
    29 C7         0.5226   -19.4077    11.8934 C.2        2 BB2          0.0000
    30 O8         0.1265   -19.8593    10.8359 O.2        2 BB2          0.0000
    31 N9         1.4468   -18.4603    12.0245 N.am       2 BB2          0.0000
    32 H10        2.8788   -18.2013    13.5019 H          2 BB2          0.0000
    33 H11        1.7025   -19.3380    15.0793 H          2 BB2          0.0000
    34 H12        0.4242   -18.0832    15.0212 H          2 BB2          0.0000
    35 H13        1.8667   -18.0683    11.2429 H          2 BB2          0.0000
@<TRIPOS>BOND
     1      1      2 1
     2      1     23 1
     3      2      3 1
     4      2      4 1
     5      2     10 1
     6      3      4 1
     7      3     11 1
     8      3     12 1
     9      4      5 1
    10      4      9 1
    11      5      6 1
    12      5     13 1
    13      5     14 1
    14      6      7 1
    15      6     15 1
    16      6     16 1
    17      7      8 1
    18      7     17 1
    19      7     18 1
    20      8      9 1
    21      8     19 1
    22      8     20 1
    23      9     21 1
    24      9     22 1
    25     24     25 2
    26     24     26 1
    27     26     27 1
    28     26     31 1
    29     26     32 1
    30     27     28 1
    31     27     33 1
    32     27     34 1
    33     28     29 1
    34     29     30 2
    35     29     31 am
    36     31     35 1
    37      1     24 am
@<TRIPOS>SUBSTRUCTURE
     1 BB1           1
     2 BB2          24
@<TRIPOS>MOLECULE
EN300-124870_i001_EN300-34862_i002_6_4_1
  35   37   2   0   0
SMALL
USER_CHARGES
@<TRIPOS>ATOM
     1 N1         0.5102   -16.1610    11.0299 N.am       1 BB1          0.0000
     2 C2         0.7949   -14.7408    10.7849 C.3        1 BB1          0.0000
     3 C3        -0.3941   -13.8206    10.4999 C.3        1 BB1          0.0000
     4 C4         0.5616   -14.2079     9.3719 C.3        1 BB1          0.0000
     5 C5         0.0521   -15.1911     8.3139 C.3        1 BB1          0.0000
     6 C6        -0.5683   -14.3991     7.1590 C.3        1 BB1          0.0000
     7 C7         0.4648   -13.4193     6.6005 C.3        1 BB1          0.0000
     8 C8         0.8518   -12.4042     7.6769 C.3        1 BB1          0.0000
     9 C9         1.5178   -13.1320     8.8486 C.3        1 BB1          0.0000
    10 H10        1.6298   -14.3246    11.3488 H          1 BB1          0.0000
    11 H11       -1.3876   -14.2690    10.4941 H          1 BB1          0.0000
    12 H12       -0.3412   -12.7988    10.8759 H          1 BB1          0.0000
    13 H13        0.8835   -15.7895     7.9412 H          1 BB1          0.0000
    14 H14       -0.7009   -15.8441     8.7550 H          1 BB1          0.0000
    15 H15       -0.8794   -15.0868     6.3725 H          1 BB1          0.0000
    16 H16       -1.4347   -13.8461     7.5217 H          1 BB1          0.0000
    17 H17        1.3516   -13.9688     6.2851 H          1 BB1          0.0000
    18 H18        0.0409   -12.8953     5.7438 H          1 BB1          0.0000
    19 H19        1.5476   -11.6774     7.2576 H          1 BB1          0.0000
    20 H20       -0.0423   -11.8898     8.0295 H          1 BB1          0.0000
    21 H21        1.7363   -12.4196     9.6441 H          1 BB1          0.0000
    22 H22        2.4427   -13.5989     8.5101 H          1 BB1          0.0000
    23 H24        1.3301   -16.7098    10.8184 H          1 BB1          0.0000
    24 O1         0.0768   -15.6008    14.3598 O.2        2 BB2          0.0000
    25 C2         0.4217   -16.2811    13.4086 C.2        2 BB2          0.0000
    26 C4         1.6010   -17.2107    13.5351 C.3        2 BB2          0.0000
    27 C5         1.4164   -18.0867    14.7810 C.3        2 BB2          0.0000
    28 S6         1.4167   -19.7857    14.1264 S.3        2 BB2          0.0000
    29 C7         1.6347   -19.3303    12.4330 C.2        2 BB2          0.0000
    30 O8         1.7078   -20.1089    11.5015 O.2        2 BB2          0.0000
    31 N9         1.7057   -18.0060    12.3327 N.am       2 BB2          0.0000
    32 H10        2.5093   -16.6187    13.6480 H          2 BB2          0.0000
    33 H11        2.2449   -17.9441    15.4749 H          2 BB2          0.0000
    34 H12        0.4666   -17.8645    15.2674 H          2 BB2          0.0000
    35 H13        1.8252   -17.5817    11.4687 H          2 BB2          0.0000
@<TRIPOS>BOND
     1      1      2 1
     2      1     23 1
     3      2      3 1
     4      2      4 1
     5      2     10 1
     6      3      4 1
     7      3     11 1
     8      3     12 1
     9      4      5 1
    10      4      9 1
    11      5      6 1
    12      5     13 1
    13      5     14 1
    14      6      7 1
    15      6     15 1
    16      6     16 1
    17      7      8 1
    18      7     17 1
    19      7     18 1
    20      8      9 1
    21      8     19 1
    22      8     20 1
    23      9     21 1
    24      9     22 1
    25     24     25 2
    26     25     26 1
    27     26     27 1
    28     26     31 1
    29     26     32 1
    30     27     28 1
    31     27     33 1
    32     27     34 1
    33     28     29 1
    34     29     30 2
    35     29     31 am
    36     31     35 1
    37      1     25 am
@<TRIPOS>SUBSTRUCTURE
     1 BB1           1
     2 BB2          25
@<TRIPOS>MOLECULE
EN300-124870_i001_EN300-107901_i001_6_16_1
  49   52   2   0   0
SMALL
USER_CHARGES
@<TRIPOS>ATOM
     1 N1         0.5102   -16.1610    11.0299 N.am       1 BB1          0.0000
     2 C2         0.7949   -14.7408    10.7849 C.3        1 BB1          0.0000
     3 C3        -0.3941   -13.8206    10.4999 C.3        1 BB1          0.0000
     4 C4         0.5616   -14.2079     9.3719 C.3        1 BB1          0.0000
     5 C5         0.0521   -15.1911     8.3139 C.3        1 BB1          0.0000
     6 C6        -0.5683   -14.3991     7.1590 C.3        1 BB1          0.0000
     7 C7         0.4648   -13.4193     6.6005 C.3        1 BB1          0.0000
     8 C8         0.8518   -12.4042     7.6769 C.3        1 BB1          0.0000
     9 C9         1.5178   -13.1320     8.8486 C.3        1 BB1          0.0000
    10 H10        1.6298   -14.3246    11.3488 H          1 BB1          0.0000
    11 H11       -1.3876   -14.2690    10.4941 H          1 BB1          0.0000
    12 H12       -0.3412   -12.7988    10.8759 H          1 BB1          0.0000
    13 H13        0.8835   -15.7895     7.9412 H          1 BB1          0.0000
    14 H14       -0.7009   -15.8441     8.7550 H          1 BB1          0.0000
    15 H15       -0.8794   -15.0868     6.3725 H          1 BB1          0.0000
    16 H16       -1.4347   -13.8461     7.5217 H          1 BB1          0.0000
    17 H17        1.3516   -13.9688     6.2851 H          1 BB1          0.0000
    18 H18        0.0409   -12.8953     5.7438 H          1 BB1          0.0000
    19 H19        1.5476   -11.6774     7.2576 H          1 BB1          0.0000
    20 H20       -0.0423   -11.8898     8.0295 H          1 BB1          0.0000
    21 H21        1.7363   -12.4196     9.6441 H          1 BB1          0.0000
    22 H22        2.4427   -13.5989     8.5101 H          1 BB1          0.0000
    23 H24        1.3301   -16.7098    10.8184 H          1 BB1          0.0000
    24 C2        -0.1608   -17.0399    13.6614 C.2        2 BB2          0.0000
    25 O3        -0.7796   -16.8488    14.6944 O.2        2 BB2          0.0000
    26 C4         1.3289   -17.1236    13.6885 C.3        2 BB2          0.0000
    27 C5         2.0281   -18.2225    12.9062 C.3        2 BB2          0.0000
    28 C6         1.2351   -19.1980    12.0833 C.3        2 BB2          0.0000
    29 C7         1.1215   -20.5682    12.8433 C.3        2 BB2          0.0000
    30 C8        -0.3801   -20.4971    13.2964 C.3        2 BB2          0.0000
    31 C9        -0.7161   -19.8654    14.6270 C.3        2 BB2          0.0000
    32 C10        0.2083   -19.2729    15.6325 C.3        2 BB2          0.0000
    33 C11        1.6641   -19.3506    15.2215 C.3        2 BB2          0.0000
    34 C12        2.1329   -18.1691    14.4094 C.3        2 BB2          0.0000
    35 H13        1.8039   -16.1162    13.6064 H          2 BB2          0.0000
    36 H14        2.9496   -17.8828    12.3450 H          2 BB2          0.0000
    37 H15        0.2403   -18.8386    11.8439 H          2 BB2          0.0000
    38 H16        1.7601   -19.3991    11.1363 H          2 BB2          0.0000
    39 H17        1.1745   -21.3612    12.0648 H          2 BB2          0.0000
    40 H18        1.8510   -20.7440    13.5524 H          2 BB2          0.0000
    41 H19       -0.9306   -19.9872    12.4998 H          2 BB2          0.0000
    42 H20       -0.7412   -21.5370    13.3001 H          2 BB2          0.0000
    43 H21       -1.5348   -19.1339    14.4368 H          2 BB2          0.0000
    44 H22       -1.2912   -20.6616    15.1804 H          2 BB2          0.0000
    45 H23       -0.0796   -18.2421    15.9037 H          2 BB2          0.0000
    46 H24        0.0839   -19.8266    16.6011 H          2 BB2          0.0000
    47 H25        2.2424   -19.2720    16.2174 H          2 BB2          0.0000
    48 H26        2.0073   -20.3380    14.9543 H          2 BB2          0.0000
    49 H27        3.1305   -17.7695    14.8226 H          2 BB2          0.0000
@<TRIPOS>BOND
     1      1      2 1
     2      1     23 1
     3      2      3 1
     4      2      4 1
     5      2     10 1
     6      3      4 1
     7      3     11 1
     8      3     12 1
     9      4      5 1
    10      4      9 1
    11      5      6 1
    12      5     13 1
    13      5     14 1
    14      6      7 1
    15      6     15 1
    16      6     16 1
    17      7      8 1
    18      7     17 1
    19      7     18 1
    20      8      9 1
    21      8     19 1
    22      8     20 1
    23      9     21 1
    24      9     22 1
    25     24     25 2
    26     24     26 1
    27     26     27 1
    28     26     34 1
    29     26     35 1
    30     27     28 1
    31     27     34 1
    32     27     36 1
    33     28     29 1
    34     28     37 1
    35     28     38 1
    36     29     30 1
    37     29     39 1
    38     29     40 1
    39     30     31 1
    40     30     41 1
    41     30     42 1
    42     31     32 1
    43     31     43 1
    44     31     44 1
    45     32     33 1
    46     32     45 1
    47     32     46 1
    48     33     34 1
    49     33     47 1
    50     33     48 1
    51     34     49 1
    52      1     24 am
@<TRIPOS>SUBSTRUCTURE
     1 BB1           1
     2 BB2          24
@<TRIPOS>MOLECULE
EN300-124870_i001_EN300-107901_i001_6_7_1
  49   52   2   0   0
SMALL
USER_CHARGES
@<TRIPOS>ATOM
     1 N1         0.5102   -16.1610    11.0299 N.am       1 BB1          0.0000
     2 C2         0.7949   -14.7408    10.7849 C.3        1 BB1          0.0000
     3 C3        -0.3941   -13.8206    10.4999 C.3        1 BB1          0.0000
     4 C4         0.5616   -14.2079     9.3719 C.3        1 BB1          0.0000
     5 C5         0.0521   -15.1911     8.3139 C.3        1 BB1          0.0000
     6 C6        -0.5683   -14.3991     7.1590 C.3        1 BB1          0.0000
     7 C7         0.4648   -13.4193     6.6005 C.3        1 BB1          0.0000
     8 C8         0.8518   -12.4042     7.6769 C.3        1 BB1          0.0000
     9 C9         1.5178   -13.1320     8.8486 C.3        1 BB1          0.0000
    10 H10        1.6298   -14.3246    11.3488 H          1 BB1          0.0000
    11 H11       -1.3876   -14.2690    10.4941 H          1 BB1          0.0000
    12 H12       -0.3412   -12.7988    10.8759 H          1 BB1          0.0000
    13 H13        0.8835   -15.7895     7.9412 H          1 BB1          0.0000
    14 H14       -0.7009   -15.8441     8.7550 H          1 BB1          0.0000
    15 H15       -0.8794   -15.0868     6.3725 H          1 BB1          0.0000
    16 H16       -1.4347   -13.8461     7.5217 H          1 BB1          0.0000
    17 H17        1.3516   -13.9688     6.2851 H          1 BB1          0.0000
    18 H18        0.0409   -12.8953     5.7438 H          1 BB1          0.0000
    19 H19        1.5476   -11.6774     7.2576 H          1 BB1          0.0000
    20 H20       -0.0423   -11.8898     8.0295 H          1 BB1          0.0000
    21 H21        1.7363   -12.4196     9.6441 H          1 BB1          0.0000
    22 H22        2.4427   -13.5989     8.5101 H          1 BB1          0.0000
    23 H24        1.3301   -16.7098    10.8184 H          1 BB1          0.0000
    24 O1        -0.2058   -15.9222    14.7079 O.2        2 BB2          0.0000
    25 C2         0.5706   -16.0856    13.7822 C.2        2 BB2          0.0000
    26 C4         1.9967   -16.4292    14.0563 C.3        2 BB2          0.0000
    27 C5         2.6861   -17.4833    13.2065 C.3        2 BB2          0.0000
    28 C6         1.9551   -18.1526    12.0772 C.3        2 BB2          0.0000
    29 C7         1.5006   -19.5914    12.5146 C.3        2 BB2          0.0000
    30 C8        -0.0382   -19.3396    12.6985 C.3        2 BB2          0.0000
    31 C9        -0.5530   -18.8947    14.0474 C.3        2 BB2          0.0000
    32 C10        0.2151   -18.6508    15.2992 C.3        2 BB2          0.0000
    33 C11        1.7000   -18.9082    15.1464 C.3        2 BB2          0.0000
    34 C12        2.4836   -17.7051    14.6841 C.3        2 BB2          0.0000
    35 H13        2.6114   -15.5201    14.2636 H          2 BB2          0.0000
    36 H14        3.7413   -17.2178    12.8977 H          2 BB2          0.0000
    37 H15        1.0901   -17.5911    11.7418 H          2 BB2          0.0000
    38 H16        2.6323   -18.2776    11.2178 H          2 BB2          0.0000
    39 H17        1.6049   -20.2376    11.6150 H          2 BB2          0.0000
    40 H18        2.0364   -20.0087    13.2921 H          2 BB2          0.0000
    41 H19       -0.3369   -18.6143    11.9354 H          2 BB2          0.0000
    42 H20       -0.5308   -20.2865    12.4294 H          2 BB2          0.0000
    43 H21       -1.2069   -18.0111    13.8653 H          2 BB2          0.0000
    44 H22       -1.3334   -19.6617    14.3187 H          2 BB2          0.0000
    45 H23        0.0208   -17.6470    15.7160 H          2 BB2          0.0000
    46 H24       -0.1816   -19.3311    16.0993 H          2 BB2          0.0000
    47 H25        2.0647   -19.1013    16.2245 H          2 BB2          0.0000
    48 H26        1.9529   -19.8801    14.7519 H          2 BB2          0.0000
    49 H27        3.4190   -17.5603    15.3396 H          2 BB2          0.0000
@<TRIPOS>BOND
     1      1      2 1
     2      1     23 1
     3      2      3 1
     4      2      4 1
     5      2     10 1
     6      3      4 1
     7      3     11 1
     8      3     12 1
     9      4      5 1
    10      4      9 1
    11      5      6 1
    12      5     13 1
    13      5     14 1
    14      6      7 1
    15      6     15 1
    16      6     16 1
    17      7      8 1
    18      7     17 1
    19      7     18 1
    20      8      9 1
    21      8     19 1
    22      8     20 1
    23      9     21 1
    24      9     22 1
    25     24     25 2
    26     25     26 1
    27     26     27 1
    28     26     34 1
    29     26     35 1
    30     27     28 1
    31     27     34 1
    32     27     36 1
    33     28     29 1
    34     28     37 1
    35     28     38 1
    36     29     30 1
    37     29     39 1
    38     29     40 1
    39     30     31 1
    40     30     41 1
    41     30     42 1
    42     31     32 1
    43     31     43 1
    44     31     44 1
    45     32     33 1
    46     32     45 1
    47     32     46 1
    48     33     34 1
    49     33     47 1
    50     33     48 1
    51     34     49 1
    52      1     25 am
@<TRIPOS>SUBSTRUCTURE
     1 BB1           1
     2 BB2          25
@<TRIPOS>MOLECULE
EN300-124870_i001_EN300-344045_i001_6_10_1
  52   55   2   0   0
SMALL
USER_CHARGES
@<TRIPOS>ATOM
     1 N1         0.5102   -16.1610    11.0299 N.am       1 BB1          0.0000
     2 C2         0.7949   -14.7408    10.7849 C.3        1 BB1          0.0000
     3 C3        -0.3941   -13.8206    10.4999 C.3        1 BB1          0.0000
     4 C4         0.5616   -14.2079     9.3719 C.3        1 BB1          0.0000
     5 C5         0.0521   -15.1911     8.3139 C.3        1 BB1          0.0000
     6 C6        -0.5683   -14.3991     7.1590 C.3        1 BB1          0.0000
     7 C7         0.4648   -13.4193     6.6005 C.3        1 BB1          0.0000
     8 C8         0.8518   -12.4042     7.6769 C.3        1 BB1          0.0000
     9 C9         1.5178   -13.1320     8.8486 C.3        1 BB1          0.0000
    10 H10        1.6298   -14.3246    11.3488 H          1 BB1          0.0000
    11 H11       -1.3876   -14.2690    10.4941 H          1 BB1          0.0000
    12 H12       -0.3412   -12.7988    10.8759 H          1 BB1          0.0000
    13 H13        0.8835   -15.7895     7.9412 H          1 BB1          0.0000
    14 H14       -0.7009   -15.8441     8.7550 H          1 BB1          0.0000
    15 H15       -0.8794   -15.0868     6.3725 H          1 BB1          0.0000
    16 H16       -1.4347   -13.8461     7.5217 H          1 BB1          0.0000
    17 H17        1.3516   -13.9688     6.2851 H          1 BB1          0.0000
    18 H18        0.0409   -12.8953     5.7438 H          1 BB1          0.0000
    19 H19        1.5476   -11.6774     7.2576 H          1 BB1          0.0000
    20 H20       -0.0423   -11.8898     8.0295 H          1 BB1          0.0000
    21 H21        1.7363   -12.4196     9.6441 H          1 BB1          0.0000
    22 H22        2.4427   -13.5989     8.5101 H          1 BB1          0.0000
    23 H23       -0.2539   -16.4572    10.4412 H          1 BB1          0.0000
    24 C2        -0.1552   -16.1642    13.2791 C.2        2 BB2          0.0000
    25 O3        -0.1007   -15.6990    14.4049 O.2        2 BB2          0.0000
    26 C4        -0.2949   -17.6520    13.0845 C.3        2 BB2          0.0000
    27 C5         1.0177   -18.3411    13.4627 C.3        2 BB2          0.0000
    28 C6         2.1466   -17.8837    12.5159 C.3        2 BB2          0.0000
    29 C7         2.8436   -16.7333    13.2840 C.3        2 BB2          0.0000
    30 C8         2.8113   -17.2322    14.7500 C.3        2 BB2          0.0000
    31 C9         1.4404   -17.9270    14.8830 C.3        2 BB2          0.0000
    32 C10        0.8553   -19.8375    13.3870 C.ar       2 BB2          0.0000
    33 C11        0.3498   -20.4207    12.2402 C.ar       2 BB2          0.0000
    34 C12        0.2007   -21.7932    12.1708 C.ar       2 BB2          0.0000
    35 C13        0.5577   -22.5826    13.2481 C.ar       2 BB2          0.0000
    36 C14        1.0640   -21.9994    14.3945 C.ar       2 BB2          0.0000
    37 C15        1.2171   -20.6272    14.4623 C.ar       2 BB2          0.0000
    38 H16       -1.0982   -18.0276    13.7185 H          2 BB2          0.0000
    39 H17       -0.5277   -17.8617    12.0405 H          2 BB2          0.0000
    40 H18        2.8460   -18.6997    12.3341 H          2 BB2          0.0000
    41 H19        1.7321   -17.5187    11.5762 H          2 BB2          0.0000
    42 H20        3.8707   -16.6068    12.9415 H          2 BB2          0.0000
    43 H21        2.2833   -15.8041    13.1798 H          2 BB2          0.0000
    44 H22        3.6181   -17.9430    14.9289 H          2 BB2          0.0000
    45 H23        2.8818   -16.3919    15.4406 H          2 BB2          0.0000
    46 H24        0.7104   -17.2350    15.3030 H          2 BB2          0.0000
    47 H25        1.5285   -18.8083    15.5183 H          2 BB2          0.0000
    48 H26        0.0709   -19.8041    11.3986 H          2 BB2          0.0000
    49 H27       -0.1949   -22.2488    11.2751 H          2 BB2          0.0000
    50 H28        0.4406   -23.6548    13.1941 H          2 BB2          0.0000
    51 H29        1.3426   -22.6160    15.2363 H          2 BB2          0.0000
    52 H30        1.6128   -20.1715    15.3580 H          2 BB2          0.0000
@<TRIPOS>BOND
     1      1      2 1
     2      1     23 1
     3      2      3 1
     4      2      4 1
     5      2     10 1
     6      3      4 1
     7      3     11 1
     8      3     12 1
     9      4      5 1
    10      4      9 1
    11      5      6 1
    12      5     13 1
    13      5     14 1
    14      6      7 1
    15      6     15 1
    16      6     16 1
    17      7      8 1
    18      7     17 1
    19      7     18 1
    20      8      9 1
    21      8     19 1
    22      8     20 1
    23      9     21 1
    24      9     22 1
    25     24     25 2
    26     24     26 1
    27     26     27 1
    28     26     38 1
    29     26     39 1
    30     27     28 1
    31     27     31 1
    32     27     32 1
    33     28     29 1
    34     28     40 1
    35     28     41 1
    36     29     30 1
    37     29     42 1
    38     29     43 1
    39     30     31 1
    40     30     44 1
    41     30     45 1
    42     31     46 1
    43     31     47 1
    44     32     33 ar
    45     32     37 ar
    46     33     34 ar
    47     33     48 1
    48     34     35 ar
    49     34     49 1
    50     35     36 ar
    51     35     50 1
    52     36     37 ar
    53     36     51 1
    54     37     52 1
    55      1     24 am
@<TRIPOS>SUBSTRUCTURE
     1 BB1           1
     2 BB2          24
@<TRIPOS>MOLECULE
EN300-124870_i001_EN300-344045_i001_6_8_1
  52   55   2   0   0
SMALL
USER_CHARGES
@<TRIPOS>ATOM
     1 N1         0.5102   -16.1610    11.0299 N.am       1 BB1          0.0000
     2 C2         0.7949   -14.7408    10.7849 C.3        1 BB1          0.0000
     3 C3        -0.3941   -13.8206    10.4999 C.3        1 BB1          0.0000
     4 C4         0.5616   -14.2079     9.3719 C.3        1 BB1          0.0000
     5 C5         0.0521   -15.1911     8.3139 C.3        1 BB1          0.0000
     6 C6        -0.5683   -14.3991     7.1590 C.3        1 BB1          0.0000
     7 C7         0.4648   -13.4193     6.6005 C.3        1 BB1          0.0000
     8 C8         0.8518   -12.4042     7.6769 C.3        1 BB1          0.0000
     9 C9         1.5178   -13.1320     8.8486 C.3        1 BB1          0.0000
    10 H10        1.6298   -14.3246    11.3488 H          1 BB1          0.0000
    11 H11       -1.3876   -14.2690    10.4941 H          1 BB1          0.0000
    12 H12       -0.3412   -12.7988    10.8759 H          1 BB1          0.0000
    13 H13        0.8835   -15.7895     7.9412 H          1 BB1          0.0000
    14 H14       -0.7009   -15.8441     8.7550 H          1 BB1          0.0000
    15 H15       -0.8794   -15.0868     6.3725 H          1 BB1          0.0000
    16 H16       -1.4347   -13.8461     7.5217 H          1 BB1          0.0000
    17 H17        1.3516   -13.9688     6.2851 H          1 BB1          0.0000
    18 H18        0.0409   -12.8953     5.7438 H          1 BB1          0.0000
    19 H19        1.5476   -11.6774     7.2576 H          1 BB1          0.0000
    20 H20       -0.0423   -11.8898     8.0295 H          1 BB1          0.0000
    21 H21        1.7363   -12.4196     9.6441 H          1 BB1          0.0000
    22 H22        2.4427   -13.5989     8.5101 H          1 BB1          0.0000
    23 H23       -0.2539   -16.4572    10.4412 H          1 BB1          0.0000
    24 C2        -0.1011   -15.8922    13.3172 C.2        2 BB2          0.0000
    25 O3        -0.0626   -15.6000    14.5004 O.2        2 BB2          0.0000
    26 C4        -0.5242   -17.2760    12.8963 C.3        2 BB2          0.0000
    27 C5         0.5490   -18.2852    13.3093 C.3        2 BB2          0.0000
    28 C6         1.8848   -17.9504    12.6139 C.3        2 BB2          0.0000
    29 C7         2.6573   -17.1093    13.6602 C.3        2 BB2          0.0000
    30 C8         2.2891   -17.8025    14.9954 C.3        2 BB2          0.0000
    31 C9         0.8061   -18.1912    14.8234 C.3        2 BB2          0.0000
    32 C10        0.1126   -19.6807    12.9444 C.ar       2 BB2          0.0000
    33 C11       -1.0025   -20.2352    13.5441 C.ar       2 BB2          0.0000
    34 C12       -1.4027   -21.5153    13.2094 C.ar       2 BB2          0.0000
    35 C13       -0.6881   -22.2407    12.2744 C.ar       2 BB2          0.0000
    36 C14        0.4266   -21.6858    11.6741 C.ar       2 BB2          0.0000
    37 C15        0.8243   -20.4040    12.0056 C.ar       2 BB2          0.0000
    38 H16       -1.4675   -17.5304    13.3797 H          2 BB2          0.0000
    39 H17       -0.6516   -17.3036    11.8140 H          2 BB2          0.0000
    40 H18        2.4319   -18.8634    12.3791 H          2 BB2          0.0000
    41 H19        1.7087   -17.3669    11.7102 H          2 BB2          0.0000
    42 H20        3.7313   -17.1616    13.4811 H          2 BB2          0.0000
    43 H21        2.3136   -16.0749    13.6543 H          2 BB2          0.0000
    44 H22        2.9015   -18.6917    15.1453 H          2 BB2          0.0000
    45 H23        2.4080   -17.1112    15.8297 H          2 BB2          0.0000
    46 H24        0.1663   -17.4266    15.2641 H          2 BB2          0.0000
    47 H25        0.6156   -19.1552    15.2951 H          2 BB2          0.0000
    48 H26       -1.5609   -19.6686    14.2745 H          2 BB2          0.0000
    49 H27       -2.2735   -21.9489    13.6785 H          2 BB2          0.0000
    50 H28       -1.0003   -23.2410    12.0135 H          2 BB2          0.0000
    51 H29        0.9852   -22.2526    10.9438 H          2 BB2          0.0000
    52 H30        1.6951   -19.9705    11.5365 H          2 BB2          0.0000
@<TRIPOS>BOND
     1      1      2 1
     2      1     23 1
     3      2      3 1
     4      2      4 1
     5      2     10 1
     6      3      4 1
     7      3     11 1
     8      3     12 1
     9      4      5 1
    10      4      9 1
    11      5      6 1
    12      5     13 1
    13      5     14 1
    14      6      7 1
    15      6     15 1
    16      6     16 1
    17      7      8 1
    18      7     17 1
    19      7     18 1
    20      8      9 1
    21      8     19 1
    22      8     20 1
    23      9     21 1
    24      9     22 1
    25     24     25 2
    26     24     26 1
    27     26     27 1
    28     26     38 1
    29     26     39 1
    30     27     28 1
    31     27     31 1
    32     27     32 1
    33     28     29 1
    34     28     40 1
    35     28     41 1
    36     29     30 1
    37     29     42 1
    38     29     43 1
    39     30     31 1
    40     30     44 1
    41     30     45 1
    42     31     46 1
    43     31     47 1
    44     32     33 ar
    45     32     37 ar
    46     33     34 ar
    47     33     48 1
    48     34     35 ar
    49     34     49 1
    50     35     36 ar
    51     35     50 1
    52     36     37 ar
    53     36     51 1
    54     37     52 1
    55      1     24 am
@<TRIPOS>SUBSTRUCTURE
     1 BB1           1
     2 BB2          24
@<TRIPOS>MOLECULE
EN300-124870_i001_EN300-701715_i002_6_3_1
  49   51   2   0   0
SMALL
USER_CHARGES
@<TRIPOS>ATOM
     1 N1         0.5102   -16.1610    11.0299 N.am       1 BB1          0.0000
     2 C2         0.7949   -14.7408    10.7849 C.3        1 BB1          0.0000
     3 C3        -0.3941   -13.8206    10.4999 C.3        1 BB1          0.0000
     4 C4         0.5616   -14.2079     9.3719 C.3        1 BB1          0.0000
     5 C5         0.0521   -15.1911     8.3139 C.3        1 BB1          0.0000
     6 C6        -0.5683   -14.3991     7.1590 C.3        1 BB1          0.0000
     7 C7         0.4648   -13.4193     6.6005 C.3        1 BB1          0.0000
     8 C8         0.8518   -12.4042     7.6769 C.3        1 BB1          0.0000
     9 C9         1.5178   -13.1320     8.8486 C.3        1 BB1          0.0000
    10 H10        1.6298   -14.3246    11.3488 H          1 BB1          0.0000
    11 H11       -1.3876   -14.2690    10.4941 H          1 BB1          0.0000
    12 H12       -0.3412   -12.7988    10.8759 H          1 BB1          0.0000
    13 H13        0.8835   -15.7895     7.9412 H          1 BB1          0.0000
    14 H14       -0.7009   -15.8441     8.7550 H          1 BB1          0.0000
    15 H15       -0.8794   -15.0868     6.3725 H          1 BB1          0.0000
    16 H16       -1.4347   -13.8461     7.5217 H          1 BB1          0.0000
    17 H17        1.3516   -13.9688     6.2851 H          1 BB1          0.0000
    18 H18        0.0409   -12.8953     5.7438 H          1 BB1          0.0000
    19 H19        1.5476   -11.6774     7.2576 H          1 BB1          0.0000
    20 H20       -0.0423   -11.8898     8.0295 H          1 BB1          0.0000
    21 H21        1.7363   -12.4196     9.6441 H          1 BB1          0.0000
    22 H22        2.4427   -13.5989     8.5101 H          1 BB1          0.0000
    23 H24        1.3301   -16.7098    10.8184 H          1 BB1          0.0000
    24 C1        -0.6989   -17.7193    11.7099 C.3        2 BB2          0.0000
    25 O2        -0.6901   -18.1381    13.0761 O.3        2 BB2          0.0000
    26 C3         0.5888   -18.0398    13.7059 C.3        2 BB2          0.0000
    27 C4         1.6206   -18.8209    12.8898 C.3        2 BB2          0.0000
    28 C5         1.2023   -20.2905    12.8116 C.3        2 BB2          0.0000
    29 C6         1.1215   -20.8737    14.2237 C.3        2 BB2          0.0000
    30 C7         0.0897   -20.0925    15.0399 C.3        2 BB2          0.0000
    31 C8         0.0090   -20.6757    16.4520 C.3        2 BB2          0.0000
    32 C9         0.5080   -18.6229    15.1181 C.3        2 BB2          0.0000
    33 C10        1.0009   -16.5922    13.7830 C.2        2 BB2          0.0000
    34 O11        0.3347   -15.8023    14.4301 O.2        2 BB2          0.0000
    35 H13       -0.0093   -18.3381    11.1357 H          2 BB2          0.0000
    36 H14       -1.7051   -17.8242    11.3041 H          2 BB2          0.0000
    37 H15       -0.3890   -16.6761    11.6476 H          2 BB2          0.0000
    38 H16        1.6782   -18.4055    11.8837 H          2 BB2          0.0000
    39 H17        2.5961   -18.7459    13.3702 H          2 BB2          0.0000
    40 H18        0.2267   -20.3655    12.3312 H          2 BB2          0.0000
    41 H19        1.9373   -20.8471    12.2301 H          2 BB2          0.0000
    42 H20        0.8234   -21.9206    14.1680 H          2 BB2          0.0000
    43 H21        2.0971   -20.7987    14.7041 H          2 BB2          0.0000
    44 H22       -0.8858   -20.1675    14.5594 H          2 BB2          0.0000
    45 H23        0.9845   -20.6007    16.9325 H          2 BB2          0.0000
    46 H24       -0.7262   -20.1191    17.0335 H          2 BB2          0.0000
    47 H25       -0.2891   -21.7227    16.3963 H          2 BB2          0.0000
    48 H26        1.4836   -18.5479    15.5985 H          2 BB2          0.0000
    49 H27       -0.2270   -18.0663    15.6996 H          2 BB2          0.0000
@<TRIPOS>BOND
     1      1      2 1
     2      1     23 1
     3      2      3 1
     4      2      4 1
     5      2     10 1
     6      3      4 1
     7      3     11 1
     8      3     12 1
     9      4      5 1
    10      4      9 1
    11      5      6 1
    12      5     13 1
    13      5     14 1
    14      6      7 1
    15      6     15 1
    16      6     16 1
    17      7      8 1
    18      7     17 1
    19      7     18 1
    20      8      9 1
    21      8     19 1
    22      8     20 1
    23      9     21 1
    24      9     22 1
    25     24     25 1
    26     24     35 1
    27     24     36 1
    28     24     37 1
    29     25     26 1
    30     26     27 1
    31     26     32 1
    32     26     33 1
    33     27     28 1
    34     27     38 1
    35     27     39 1
    36     28     29 1
    37     28     40 1
    38     28     41 1
    39     29     30 1
    40     29     42 1
    41     29     43 1
    42     30     31 1
    43     30     32 1
    44     30     44 1
    45     31     45 1
    46     31     46 1
    47     31     47 1
    48     32     48 1
    49     32     49 1
    50     33     34 2
    51      1     33 am
@<TRIPOS>SUBSTRUCTURE
     1 BB1           1
     2 BB2          33
@<TRIPOS>MOLECULE
EN300-124870_i001_EN300-701715_i002_6_7_1
  49   51   2   0   0
SMALL
USER_CHARGES
@<TRIPOS>ATOM
     1 N1         0.5102   -16.1610    11.0299 N.am       1 BB1          0.0000
     2 C2         0.7949   -14.7408    10.7849 C.3        1 BB1          0.0000
     3 C3        -0.3941   -13.8206    10.4999 C.3        1 BB1          0.0000
     4 C4         0.5616   -14.2079     9.3719 C.3        1 BB1          0.0000
     5 C5         0.0521   -15.1911     8.3139 C.3        1 BB1          0.0000
     6 C6        -0.5683   -14.3991     7.1590 C.3        1 BB1          0.0000
     7 C7         0.4648   -13.4193     6.6005 C.3        1 BB1          0.0000
     8 C8         0.8518   -12.4042     7.6769 C.3        1 BB1          0.0000
     9 C9         1.5178   -13.1320     8.8486 C.3        1 BB1          0.0000
    10 H10        1.6298   -14.3246    11.3488 H          1 BB1          0.0000
    11 H11       -1.3876   -14.2690    10.4941 H          1 BB1          0.0000
    12 H12       -0.3412   -12.7988    10.8759 H          1 BB1          0.0000
    13 H13        0.8835   -15.7895     7.9412 H          1 BB1          0.0000
    14 H14       -0.7009   -15.8441     8.7550 H          1 BB1          0.0000
    15 H15       -0.8794   -15.0868     6.3725 H          1 BB1          0.0000
    16 H16       -1.4347   -13.8461     7.5217 H          1 BB1          0.0000
    17 H17        1.3516   -13.9688     6.2851 H          1 BB1          0.0000
    18 H18        0.0409   -12.8953     5.7438 H          1 BB1          0.0000
    19 H19        1.5476   -11.6774     7.2576 H          1 BB1          0.0000
    20 H20       -0.0423   -11.8898     8.0295 H          1 BB1          0.0000
    21 H21        1.7363   -12.4196     9.6441 H          1 BB1          0.0000
    22 H22        2.4427   -13.5989     8.5101 H          1 BB1          0.0000
    23 H24        1.3301   -16.7098    10.8184 H          1 BB1          0.0000
    24 C1         2.6980   -17.0935    14.3531 C.3        2 BB2          0.0000
    25 O2         2.0291   -17.9262    13.4038 O.3        2 BB2          0.0000
    26 C3         0.6511   -18.1578    13.7029 C.3        2 BB2          0.0000
    27 C4         0.5278   -18.7630    15.1027 C.3        2 BB2          0.0000
    28 C5         1.2906   -20.0882    15.1543 C.3        2 BB2          0.0000
    29 C6         0.7014   -21.0563    14.1264 C.3        2 BB2          0.0000
    30 C7         0.8248   -20.4511    12.7266 C.3        2 BB2          0.0000
    31 C8         0.2354   -21.4191    11.6988 C.3        2 BB2          0.0000
    32 C9         0.0619   -19.1258    12.6749 C.3        2 BB2          0.0000
    33 C10       -0.1002   -16.8524    13.6520 C.2        2 BB2          0.0000
    34 O12       -1.0064   -16.7014    12.8503 O.2        2 BB2          0.0000
    35 H13        2.6565   -17.5592    15.3378 H          2 BB2          0.0000
    36 H14        3.7387   -16.9660    14.0551 H          2 BB2          0.0000
    37 H15        2.2090   -16.1200    14.3908 H          2 BB2          0.0000
    38 H16        0.9476   -18.0733    15.8350 H          2 BB2          0.0000
    39 H17       -0.5233   -18.9396    15.3308 H          2 BB2          0.0000
    40 H18        2.3417   -19.9116    14.9261 H          2 BB2          0.0000
    41 H19        1.2028   -20.5194    16.1515 H          2 BB2          0.0000
    42 H20        1.2448   -22.0004    14.1632 H          2 BB2          0.0000
    43 H21       -0.3497   -21.2329    14.3546 H          2 BB2          0.0000
    44 H22        1.8758   -20.2744    12.4985 H          2 BB2          0.0000
    45 H23       -0.8156   -21.5958    11.9269 H          2 BB2          0.0000
    46 H24        0.3233   -20.9879    10.7015 H          2 BB2          0.0000
    47 H25        0.7789   -22.3633    11.7356 H          2 BB2          0.0000
    48 H26       -0.9893   -19.3025    12.9031 H          2 BB2          0.0000
    49 H27        0.1497   -18.6946    11.6777 H          2 BB2          0.0000
@<TRIPOS>BOND
     1      1      2 1
     2      1     23 1
     3      2      3 1
     4      2      4 1
     5      2     10 1
     6      3      4 1
     7      3     11 1
     8      3     12 1
     9      4      5 1
    10      4      9 1
    11      5      6 1
    12      5     13 1
    13      5     14 1
    14      6      7 1
    15      6     15 1
    16      6     16 1
    17      7      8 1
    18      7     17 1
    19      7     18 1
    20      8      9 1
    21      8     19 1
    22      8     20 1
    23      9     21 1
    24      9     22 1
    25     24     25 1
    26     24     35 1
    27     24     36 1
    28     24     37 1
    29     25     26 1
    30     26     27 1
    31     26     32 1
    32     26     33 1
    33     27     28 1
    34     27     38 1
    35     27     39 1
    36     28     29 1
    37     28     40 1
    38     28     41 1
    39     29     30 1
    40     29     42 1
    41     29     43 1
    42     30     31 1
    43     30     32 1
    44     30     44 1
    45     31     45 1
    46     31     46 1
    47     31     47 1
    48     32     48 1
    49     32     49 1
    50     33     34 2
    51      1     33 am
@<TRIPOS>SUBSTRUCTURE
     1 BB1           1
     2 BB2          33
@<TRIPOS>MOLECULE
EN300-124870_i001_EN300-15782_i003_6_1_1
  57   59   2   0   0
SMALL
USER_CHARGES
@<TRIPOS>ATOM
     1 N1         0.5102   -16.1610    11.0299 N.am       1 BB1          0.0000
     2 C2         0.7949   -14.7408    10.7849 C.3        1 BB1          0.0000
     3 C3        -0.3941   -13.8206    10.4999 C.3        1 BB1          0.0000
     4 C4         0.5616   -14.2079     9.3719 C.3        1 BB1          0.0000
     5 C5         0.0521   -15.1911     8.3139 C.3        1 BB1          0.0000
     6 C6        -0.5683   -14.3991     7.1590 C.3        1 BB1          0.0000
     7 C7         0.4648   -13.4193     6.6005 C.3        1 BB1          0.0000
     8 C8         0.8518   -12.4042     7.6769 C.3        1 BB1          0.0000
     9 C9         1.5178   -13.1320     8.8486 C.3        1 BB1          0.0000
    10 H10        1.6298   -14.3246    11.3488 H          1 BB1          0.0000
    11 H11       -1.3876   -14.2690    10.4941 H          1 BB1          0.0000
    12 H12       -0.3412   -12.7988    10.8759 H          1 BB1          0.0000
    13 H13        0.8835   -15.7895     7.9412 H          1 BB1          0.0000
    14 H14       -0.7009   -15.8441     8.7550 H          1 BB1          0.0000
    15 H15       -0.8794   -15.0868     6.3725 H          1 BB1          0.0000
    16 H16       -1.4347   -13.8461     7.5217 H          1 BB1          0.0000
    17 H17        1.3516   -13.9688     6.2851 H          1 BB1          0.0000
    18 H18        0.0409   -12.8953     5.7438 H          1 BB1          0.0000
    19 H19        1.5476   -11.6774     7.2576 H          1 BB1          0.0000
    20 H20       -0.0423   -11.8898     8.0295 H          1 BB1          0.0000
    21 H21        1.7363   -12.4196     9.6441 H          1 BB1          0.0000
    22 H22        2.4427   -13.5989     8.5101 H          1 BB1          0.0000
    23 H24        1.3301   -16.7098    10.8184 H          1 BB1          0.0000
    24 C1         2.8040   -17.0897    14.7732 C.3        2 BB2          0.0000
    25 C2         2.4576   -16.8604    13.3007 C.3        2 BB2          0.0000
    26 O3         3.3001   -17.6732    12.4810 O.3        2 BB2          0.0000
    27 C4         0.9943   -17.2346    13.0567 C.3        2 BB2          0.0000
    28 N5         0.8397   -17.7347    11.6884 N.pl3      2 BB2          0.0000
    29 S6        -0.3586   -18.8215    11.3345 S.o2       2 BB2          0.0000
    30 O7        -1.5562   -18.2922    11.8866 O.2        2 BB2          0.0000
    31 O8        -0.2136   -19.1445     9.9584 O.2        2 BB2          0.0000
    32 C9        -0.0065   -20.2966    12.2316 C.ar       2 BB2          0.0000
    33 C10        1.1015   -20.3563    13.0557 C.ar       2 BB2          0.0000
    34 C11        1.3777   -21.5139    13.7596 C.ar       2 BB2          0.0000
    35 C12        0.5457   -22.6109    13.6394 C.ar       2 BB2          0.0000
    36 C13        0.8472   -23.8727    14.4063 C.3        2 BB2          0.0000
    37 C14       -0.5633   -22.5507    12.8162 C.ar       2 BB2          0.0000
    38 C15       -1.4707   -23.7467    12.6856 C.3        2 BB2          0.0000
    39 C16       -0.8416   -21.3922    12.1155 C.ar       2 BB2          0.0000
    40 C17        0.1261   -16.0176    13.2478 C.2        2 BB2          0.0000
    41 O19       -0.4176   -15.4997    12.2872 O.2        2 BB2          0.0000
    42 H20        3.8466   -16.8233    14.9470 H          2 BB2          0.0000
    43 H21        2.1614   -16.4699    15.3984 H          2 BB2          0.0000
    44 H22        2.6508   -18.1396    15.0233 H          2 BB2          0.0000
    45 H23        2.6109   -15.8106    13.0506 H          2 BB2          0.0000
    46 H24        0.6947   -18.0090    13.7627 H          2 BB2          0.0000
    47 H25        1.7516   -19.4990    13.1496 H          2 BB2          0.0000
    48 H26        2.2439   -21.5608    14.4030 H          2 BB2          0.0000
    49 H27        0.3543   -23.8341    15.3777 H          2 BB2          0.0000
    50 H28        0.4814   -24.7339    13.8472 H          2 BB2          0.0000
    51 H29        1.9242   -23.9628    14.5487 H          2 BB2          0.0000
    52 H30       -2.2548   -23.6921    13.4408 H          2 BB2          0.0000
    53 H31       -1.9218   -23.7540    11.6934 H          2 BB2          0.0000
    54 H32       -0.8918   -24.6592    12.8283 H          2 BB2          0.0000
    55 H33       -1.7081   -21.3452    11.4724 H          2 BB2          0.0000
    56 H34        3.2428   -17.4720    11.5370 H          2 BB2          0.0000
    57 H35        1.4393   -17.4293    10.9898 H          2 BB2          0.0000
@<TRIPOS>BOND
     1      1      2 1
     2      1     23 1
     3      2      3 1
     4      2      4 1
     5      2     10 1
     6      3      4 1
     7      3     11 1
     8      3     12 1
     9      4      5 1
    10      4      9 1
    11      5      6 1
    12      5     13 1
    13      5     14 1
    14      6      7 1
    15      6     15 1
    16      6     16 1
    17      7      8 1
    18      7     17 1
    19      7     18 1
    20      8      9 1
    21      8     19 1
    22      8     20 1
    23      9     21 1
    24      9     22 1
    25     24     25 1
    26     24     42 1
    27     24     43 1
    28     24     44 1
    29     25     26 1
    30     25     27 1
    31     25     45 1
    32     26     56 1
    33     27     28 1
    34     27     40 1
    35     27     46 1
    36     28     29 1
    37     28     57 1
    38     29     30 2
    39     29     31 2
    40     29     32 1
    41     32     33 ar
    42     32     39 ar
    43     33     34 ar
    44     33     47 1
    45     34     35 ar
    46     34     48 1
    47     35     36 1
    48     35     37 ar
    49     36     49 1
    50     36     50 1
    51     36     51 1
    52     37     38 1
    53     37     39 ar
    54     38     52 1
    55     38     53 1
    56     38     54 1
    57     39     55 1
    58     40     41 2
    59      1     40 am
@<TRIPOS>SUBSTRUCTURE
     1 BB1           1
     2 BB2          40
@<TRIPOS>MOLECULE
EN300-124870_i001_EN300-15782_i003_6_20_1
  57   59   2   0   0
SMALL
USER_CHARGES
@<TRIPOS>ATOM
     1 N1         0.5102   -16.1610    11.0299 N.am       1 BB1          0.0000
     2 C2         0.7949   -14.7408    10.7849 C.3        1 BB1          0.0000
     3 C3        -0.3941   -13.8206    10.4999 C.3        1 BB1          0.0000
     4 C4         0.5616   -14.2079     9.3719 C.3        1 BB1          0.0000
     5 C5         0.0521   -15.1911     8.3139 C.3        1 BB1          0.0000
     6 C6        -0.5683   -14.3991     7.1590 C.3        1 BB1          0.0000
     7 C7         0.4648   -13.4193     6.6005 C.3        1 BB1          0.0000
     8 C8         0.8518   -12.4042     7.6769 C.3        1 BB1          0.0000
     9 C9         1.5178   -13.1320     8.8486 C.3        1 BB1          0.0000
    10 H10        1.6298   -14.3246    11.3488 H          1 BB1          0.0000
    11 H11       -1.3876   -14.2690    10.4941 H          1 BB1          0.0000
    12 H12       -0.3412   -12.7988    10.8759 H          1 BB1          0.0000
    13 H13        0.8835   -15.7895     7.9412 H          1 BB1          0.0000
    14 H14       -0.7009   -15.8441     8.7550 H          1 BB1          0.0000
    15 H15       -0.8794   -15.0868     6.3725 H          1 BB1          0.0000
    16 H16       -1.4347   -13.8461     7.5217 H          1 BB1          0.0000
    17 H17        1.3516   -13.9688     6.2851 H          1 BB1          0.0000
    18 H18        0.0409   -12.8953     5.7438 H          1 BB1          0.0000
    19 H19        1.5476   -11.6774     7.2576 H          1 BB1          0.0000
    20 H20       -0.0423   -11.8898     8.0295 H          1 BB1          0.0000
    21 H21        1.7363   -12.4196     9.6441 H          1 BB1          0.0000
    22 H22        2.4427   -13.5989     8.5101 H          1 BB1          0.0000
    23 H24        1.3301   -16.7098    10.8184 H          1 BB1          0.0000
    24 C1         2.8698   -16.8905    14.8492 C.3        2 BB2          0.0000
    25 C2         2.3813   -16.8225    13.4009 C.3        2 BB2          0.0000
    26 O3         3.3626   -17.4033    12.5395 O.3        2 BB2          0.0000
    27 C4         1.0666   -17.5939    13.2693 C.3        2 BB2          0.0000
    28 N5         0.9064   -18.0537    11.8876 N.pl3      2 BB2          0.0000
    29 S6        -0.3783   -19.0152    11.4786 S.o2       2 BB2          0.0000
    30 O7        -1.5387   -18.3724    11.9878 O.2        2 BB2          0.0000
    31 O8        -0.2115   -19.3454    10.1066 O.2        2 BB2          0.0000
    32 C9        -0.2092   -20.5216    12.3769 C.ar       2 BB2          0.0000
    33 C10       -1.3103   -21.3314    12.5815 C.ar       2 BB2          0.0000
    34 C11       -1.1776   -22.5134    13.2864 C.ar       2 BB2          0.0000
    35 C12        0.0562   -22.8852    13.7861 C.ar       2 BB2          0.0000
    36 C13        0.2006   -24.1734    14.5548 C.3        2 BB2          0.0000
    37 C14        1.1579   -22.0758    13.5803 C.ar       2 BB2          0.0000
    38 C15        2.5032   -22.4815    14.1247 C.3        2 BB2          0.0000
    39 C16        1.0260   -20.8961    12.8722 C.ar       2 BB2          0.0000
    40 C17       -0.0838   -16.6917    13.6350 C.2        2 BB2          0.0000
    41 O18       -0.3010   -15.6855    12.9817 O.2        2 BB2          0.0000
    42 H20        3.8065   -16.3410    14.9430 H          2 BB2          0.0000
    43 H21        2.1213   -16.4476    15.5062 H          2 BB2          0.0000
    44 H22        3.0295   -17.9315    15.1303 H          2 BB2          0.0000
    45 H23        2.2216   -15.7815    13.1198 H          2 BB2          0.0000
    46 H24        1.0812   -18.4536    13.9390 H          2 BB2          0.0000
    47 H25       -2.2745   -21.0408    12.1910 H          2 BB2          0.0000
    48 H26       -2.0382   -23.1459    13.4469 H          2 BB2          0.0000
    49 H27        0.4392   -24.9831    13.8654 H          2 BB2          0.0000
    50 H28        1.0016   -24.0716    15.2871 H          2 BB2          0.0000
    51 H29       -0.7346   -24.3970    15.0683 H          2 BB2          0.0000
    52 H30        3.0310   -23.0787    13.3811 H          2 BB2          0.0000
    53 H31        3.0862   -21.5897    14.3547 H          2 BB2          0.0000
    54 H32        2.3657   -23.0698    15.0319 H          2 BB2          0.0000
    55 H33        1.8867   -20.2638    12.7114 H          2 BB2          0.0000
    56 H34        3.1701   -17.2992    11.5976 H          2 BB2          0.0000
    57 H35        1.5529   -17.7950    11.2123 H          2 BB2          0.0000
@<TRIPOS>BOND
     1      1      2 1
     2      1     23 1
     3      2      3 1
     4      2      4 1
     5      2     10 1
     6      3      4 1
     7      3     11 1
     8      3     12 1
     9      4      5 1
    10      4      9 1
    11      5      6 1
    12      5     13 1
    13      5     14 1
    14      6      7 1
    15      6     15 1
    16      6     16 1
    17      7      8 1
    18      7     17 1
    19      7     18 1
    20      8      9 1
    21      8     19 1
    22      8     20 1
    23      9     21 1
    24      9     22 1
    25     24     25 1
    26     24     42 1
    27     24     43 1
    28     24     44 1
    29     25     26 1
    30     25     27 1
    31     25     45 1
    32     26     56 1
    33     27     28 1
    34     27     40 1
    35     27     46 1
    36     28     29 1
    37     28     57 1
    38     29     30 2
    39     29     31 2
    40     29     32 1
    41     32     33 ar
    42     32     39 ar
    43     33     34 ar
    44     33     47 1
    45     34     35 ar
    46     34     48 1
    47     35     36 1
    48     35     37 ar
    49     36     49 1
    50     36     50 1
    51     36     51 1
    52     37     38 1
    53     37     39 ar
    54     38     52 1
    55     38     53 1
    56     38     54 1
    57     39     55 1
    58     40     41 2
    59      1     40 am
@<TRIPOS>SUBSTRUCTURE
     1 BB1           1
     2 BB2          40
@<TRIPOS>MOLECULE
EN300-124870_i001_EN300-15782_i003_6_8_1
  57   59   2   0   0
SMALL
USER_CHARGES
@<TRIPOS>ATOM
     1 N1         0.5102   -16.1610    11.0299 N.am       1 BB1          0.0000
     2 C2         0.7949   -14.7408    10.7849 C.3        1 BB1          0.0000
     3 C3        -0.3941   -13.8206    10.4999 C.3        1 BB1          0.0000
     4 C4         0.5616   -14.2079     9.3719 C.3        1 BB1          0.0000
     5 C5         0.0521   -15.1911     8.3139 C.3        1 BB1          0.0000
     6 C6        -0.5683   -14.3991     7.1590 C.3        1 BB1          0.0000
     7 C7         0.4648   -13.4193     6.6005 C.3        1 BB1          0.0000
     8 C8         0.8518   -12.4042     7.6769 C.3        1 BB1          0.0000
     9 C9         1.5178   -13.1320     8.8486 C.3        1 BB1          0.0000
    10 H10        1.6298   -14.3246    11.3488 H          1 BB1          0.0000
    11 H11       -1.3876   -14.2690    10.4941 H          1 BB1          0.0000
    12 H12       -0.3412   -12.7988    10.8759 H          1 BB1          0.0000
    13 H13        0.8835   -15.7895     7.9412 H          1 BB1          0.0000
    14 H14       -0.7009   -15.8441     8.7550 H          1 BB1          0.0000
    15 H15       -0.8794   -15.0868     6.3725 H          1 BB1          0.0000
    16 H16       -1.4347   -13.8461     7.5217 H          1 BB1          0.0000
    17 H17        1.3516   -13.9688     6.2851 H          1 BB1          0.0000
    18 H18        0.0409   -12.8953     5.7438 H          1 BB1          0.0000
    19 H19        1.5476   -11.6774     7.2576 H          1 BB1          0.0000
    20 H20       -0.0423   -11.8898     8.0295 H          1 BB1          0.0000
    21 H21        1.7363   -12.4196     9.6441 H          1 BB1          0.0000
    22 H22        2.4427   -13.5989     8.5101 H          1 BB1          0.0000
    23 H24        1.3301   -16.7098    10.8184 H          1 BB1          0.0000
    24 C1         3.4071   -17.1058    12.8712 C.3        2 BB2          0.0000
    25 C2         2.4259   -17.8322    13.7934 C.3        2 BB2          0.0000
    26 O3         2.5200   -17.2890    15.1119 O.3        2 BB2          0.0000
    27 C4         1.0008   -17.6496    13.2672 C.3        2 BB2          0.0000
    28 N5         0.8981   -18.2279    11.9251 N.pl3      2 BB2          0.0000
    29 S6        -0.3992   -19.1784    11.5301 S.o2       2 BB2          0.0000
    30 O7        -1.5470   -18.5323    12.0632 O.2        2 BB2          0.0000
    31 O8        -0.2571   -19.4991    10.1531 O.2        2 BB2          0.0000
    32 C9        -0.2248   -20.6925    12.4142 C.ar       2 BB2          0.0000
    33 C10        1.0024   -21.0470    12.9420 C.ar       2 BB2          0.0000
    34 C11        1.1393   -22.2352    13.6357 C.ar       2 BB2          0.0000
    35 C12        0.0489   -23.0680    13.8017 C.ar       2 BB2          0.0000
    36 C13        0.1983   -24.3633    14.5574 C.3        2 BB2          0.0000
    37 C14       -1.1790   -22.7128    13.2748 C.ar       2 BB2          0.0000
    38 C15       -2.3679   -23.6207    13.4561 C.3        2 BB2          0.0000
    39 C16       -1.3166   -21.5232    12.5847 C.ar       2 BB2          0.0000
    40 C17        0.6719   -16.1802    13.2075 C.2        2 BB2          0.0000
    41 O18        0.3206   -15.5927    14.2165 O.2        2 BB2          0.0000
    42 H20        4.4223   -17.2358    13.2462 H          2 BB2          0.0000
    43 H21        3.3352   -17.5202    11.8656 H          2 BB2          0.0000
    44 H22        3.1627   -16.0439    12.8449 H          2 BB2          0.0000
    45 H23        2.6702   -18.8942    13.8198 H          2 BB2          0.0000
    46 H24        0.3002   -18.1521    13.9340 H          2 BB2          0.0000
    47 H25        1.8545   -20.3961    12.8124 H          2 BB2          0.0000
    48 H26        2.0984   -22.5125    14.0476 H          2 BB2          0.0000
    49 H27       -0.0018   -24.1921    15.6150 H          2 BB2          0.0000
    50 H28       -0.5092   -25.0951    14.1675 H          2 BB2          0.0000
    51 H29        1.2141   -24.7397    14.4360 H          2 BB2          0.0000
    52 H30       -2.8903   -23.3560    14.3755 H          2 BB2          0.0000
    53 H31       -3.0440   -23.5078    12.6087 H          2 BB2          0.0000
    54 H32       -2.0294   -24.6551    13.5157 H          2 BB2          0.0000
    55 H33       -2.2759   -21.2456    12.1732 H          2 BB2          0.0000
    56 H34        3.3887   -16.9217    15.3248 H          2 BB2          0.0000
    57 H35        1.5899   -18.0541    11.2677 H          2 BB2          0.0000
@<TRIPOS>BOND
     1      1      2 1
     2      1     23 1
     3      2      3 1
     4      2      4 1
     5      2     10 1
     6      3      4 1
     7      3     11 1
     8      3     12 1
     9      4      5 1
    10      4      9 1
    11      5      6 1
    12      5     13 1
    13      5     14 1
    14      6      7 1
    15      6     15 1
    16      6     16 1
    17      7      8 1
    18      7     17 1
    19      7     18 1
    20      8      9 1
    21      8     19 1
    22      8     20 1
    23      9     21 1
    24      9     22 1
    25     24     25 1
    26     24     42 1
    27     24     43 1
    28     24     44 1
    29     25     26 1
    30     25     27 1
    31     25     45 1
    32     26     56 1
    33     27     28 1
    34     27     40 1
    35     27     46 1
    36     28     29 1
    37     28     57 1
    38     29     30 2
    39     29     31 2
    40     29     32 1
    41     32     33 ar
    42     32     39 ar
    43     33     34 ar
    44     33     47 1
    45     34     35 ar
    46     34     48 1
    47     35     36 1
    48     35     37 ar
    49     36     49 1
    50     36     50 1
    51     36     51 1
    52     37     38 1
    53     37     39 ar
    54     38     52 1
    55     38     53 1
    56     38     54 1
    57     39     55 1
    58     40     41 2
    59      1     40 am
@<TRIPOS>SUBSTRUCTURE
     1 BB1           1
     2 BB2          40
@<TRIPOS>MOLECULE
EN300-125606_i001_EN300-315786_i001_10_2_1
  47   50   2   0   0
SMALL
USER_CHARGES
@<TRIPOS>ATOM
     1 N1         1.1674   -10.2644    10.2301 N.am       1 BB1          0.0000
     2 C2        -0.2062   -10.5059    10.2005 C.ar       1 BB1          0.0000
     3 C3        -1.0390    -9.9693    11.1755 C.ar       1 BB1          0.0000
     4 C4        -2.3984   -10.2370    11.1045 C.ar       1 BB1          0.0000
     5 C5        -2.8847   -11.0229    10.0760 C.ar       1 BB1          0.0000
     6 N6        -2.0782   -11.5224     9.1614 N.ar       1 BB1          0.0000
     7 C7        -0.7707   -11.2896     9.1831 C.ar       1 BB1          0.0000
     8 C8         0.0951   -11.8695     8.1380 C.2        1 BB1          0.0000
     9 C9         0.0140   -13.1352     7.6453 C.2        1 BB1          0.0000
    10 C10        1.0255   -13.2574     6.6726 C.2        1 BB1          0.0000
    11 C11        1.6678   -12.0738     6.6195 C.2        1 BB1          0.0000
    12 O12        1.0994   -11.2359     7.5018 O.3        1 BB1          0.0000
    13 H13       -0.6371    -9.3583    11.9701 H          1 BB1          0.0000
    14 H14       -3.0716    -9.8350    11.8471 H          1 BB1          0.0000
    15 H15       -3.9431   -11.2312    10.0216 H          1 BB1          0.0000
    16 H16       -0.6896   -13.8987     7.9429 H          1 BB1          0.0000
    17 H17        1.2450   -14.1341     6.0812 H          1 BB1          0.0000
    18 H18        2.4986   -11.8368     5.9716 H          1 BB1          0.0000
    19 H19        1.5487    -9.7181    10.9350 H          1 BB1          0.0000
    20 C2         0.1335   -12.0865     8.7793 C.2        2 BB2          0.0000
    21 O3         0.4740   -12.4215     7.6538 O.2        2 BB2          0.0000
    22 C4         0.1428   -13.0740     9.8787 C.ar       2 BB2          0.0000
    23 C5         1.0242   -14.1566     9.8380 C.ar       2 BB2          0.0000
    24 C6         1.0324   -15.0772    10.8637 C.ar       2 BB2          0.0000
    25 C7         0.1603   -14.9278    11.9426 C.ar       2 BB2          0.0000
    26 C8        -0.7206   -13.8465    11.9840 C.ar       2 BB2          0.0000
    27 C9        -0.7259   -12.9220    10.9618 C.ar       2 BB2          0.0000
    28 C10        0.1693   -15.9177    13.0441 C.2        2 BB2          0.0000
    29 O11        0.5896   -15.6034    14.1401 O.2        2 BB2          0.0000
    30 N12       -0.2888   -17.1672    12.8310 N.am       2 BB2          0.0000
    31 C13       -0.7252   -17.5961    11.4927 C.3        2 BB2          0.0000
    32 C14       -0.0260   -18.9182    11.1568 C.3        2 BB2          0.0000
    33 O15       -0.2391   -19.8474    12.2221 O.3        2 BB2          0.0000
    34 C16        0.3150   -19.4386    13.4750 C.3        2 BB2          0.0000
    35 C17       -0.3615   -18.1448    13.9285 C.3        2 BB2          0.0000
    36 H18        1.6990   -14.2726     9.0028 H          2 BB2          0.0000
    37 H19        1.7138   -15.9146    10.8321 H          2 BB2          0.0000
    38 H20       -1.3956   -13.7317    12.8192 H          2 BB2          0.0000
    39 H21       -1.4075   -12.0849    10.9940 H          2 BB2          0.0000
    40 H22       -1.8056   -17.7405    11.4876 H          2 BB2          0.0000
    41 H23       -0.4521   -16.8392    10.7574 H          2 BB2          0.0000
    42 H24       -0.4378   -19.3234    10.2325 H          2 BB2          0.0000
    43 H25        1.0430   -18.7439    11.0342 H          2 BB2          0.0000
    44 H26        0.1483   -20.2179    14.2185 H          2 BB2          0.0000
    45 H27        1.3851   -19.2661    13.3608 H          2 BB2          0.0000
    46 H28        0.1500   -17.7513    14.8070 H          2 BB2          0.0000
    47 H29       -1.4064   -18.3415    14.1688 H          2 BB2          0.0000
@<TRIPOS>BOND
     1      1      2 1
     2      1     19 1
     3      2      3 ar
     4      2      7 ar
     5      3      4 ar
     6      3     13 1
     7      4      5 ar
     8      4     14 1
     9      5      6 ar
    10      5     15 1
    11      6      7 ar
    12      7      8 1
    13      8      9 2
    14      8     12 1
    15      9     10 1
    16      9     16 1
    17     10     11 2
    18     10     17 1
    19     11     12 1
    20     11     18 1
    21     20     21 2
    22     20     22 1
    23     22     23 ar
    24     22     27 ar
    25     23     24 ar
    26     23     36 1
    27     24     25 ar
    28     24     37 1
    29     25     26 ar
    30     25     28 1
    31     26     27 ar
    32     26     38 1
    33     27     39 1
    34     28     29 2
    35     28     30 am
    36     30     31 1
    37     30     35 1
    38     31     32 1
    39     31     40 1
    40     31     41 1
    41     32     33 1
    42     32     42 1
    43     32     43 1
    44     33     34 1
    45     34     35 1
    46     34     44 1
    47     34     45 1
    48     35     46 1
    49     35     47 1
    50      1     20 am
@<TRIPOS>SUBSTRUCTURE
     1 BB1           1
     2 BB2          20
@<TRIPOS>MOLECULE
EN300-125606_i001_EN300-1165841_i001_11_20_1
  47   49   2   0   0
SMALL
USER_CHARGES
@<TRIPOS>ATOM
     1 N1        -0.3256   -13.9371     9.5756 N.am       1 BB1          0.0000
     2 C2         0.2050   -13.2034     8.5143 C.ar       1 BB1          0.0000
     3 C3         0.9364   -13.8348     7.5150 C.ar       1 BB1          0.0000
     4 C4         1.4443   -13.0636     6.4797 C.ar       1 BB1          0.0000
     5 C5         1.2121   -11.7006     6.4688 C.ar       1 BB1          0.0000
     6 N6         0.5161   -11.1212     7.4260 N.ar       1 BB1          0.0000
     7 C7         0.0045   -11.8173     8.4348 C.ar       1 BB1          0.0000
     8 C8        -0.7687   -11.1266     9.4852 C.2        1 BB1          0.0000
     9 C9        -0.5544   -11.2187    10.8256 C.2        1 BB1          0.0000
    10 C10       -1.5174   -10.4001    11.4476 C.2        1 BB1          0.0000
    11 C11       -2.2644    -9.8543    10.4676 C.2        1 BB1          0.0000
    12 O12       -1.8057   -10.2907     9.2832 O.3        1 BB1          0.0000
    13 H13        1.1056   -14.9010     7.5440 H          1 BB1          0.0000
    14 H14        2.0170   -13.5244     5.6884 H          1 BB1          0.0000
    15 H15        1.6082   -11.1008     5.6626 H          1 BB1          0.0000
    16 H16        0.2066   -11.8064    11.3177 H          1 BB1          0.0000
    17 H17       -1.6350   -10.2402    12.5092 H          1 BB1          0.0000
    18 H18       -3.0916    -9.1749    10.6106 H          1 BB1          0.0000
    19 H20       -0.8313   -13.4878    10.2708 H          1 BB1          0.0000
    20 C1         2.5764   -14.3098    10.1170 C.3        2 BB2          0.0000
    21 C2         1.1323   -14.6517    10.4890 C.3        2 BB2          0.0000
    22 N3         1.1179   -15.8348    11.3597 N.4        2 BB2          1.0000
    23 C4        -0.2523   -16.0819    11.8244 C.3        2 BB2          0.0000
    24 C5        -0.2871   -17.3595    12.6659 C.3        2 BB2          0.0000
    25 C6         0.6411   -17.1947    13.8728 C.3        2 BB2          0.0000
    26 O7         0.1639   -16.1325    14.7010 O.3        2 BB2          0.0000
    27 C8         2.0521   -16.8639    13.3779 C.3        2 BB2          0.0000
    28 C9         2.0000   -15.6046    12.5101 C.3        2 BB2          0.0000
    29 C10        0.6699   -18.4469    14.6460 C.1        2 BB2          0.0000
    30 C11        0.6930   -19.4456    15.2629 C.1        2 BB2          0.0000
    31 C12        0.3457   -14.9402     9.2365 C.2        2 BB2          0.0000
    32 O13        0.1574   -14.0566     8.4177 O.2        2 BB2          0.0000
    33 H15        3.0257   -15.1528     9.5919 H          2 BB2          0.0000
    34 H16        2.5871   -13.4320     9.4709 H          2 BB2          0.0000
    35 H17        3.1454   -14.1011    11.0230 H          2 BB2          0.0000
    36 H18        0.6830   -13.8087    11.0141 H          2 BB2          0.0000
    37 H19       -0.5877   -15.2396    12.4295 H          2 BB2          0.0000
    38 H20       -0.9122   -16.1958    10.9644 H          2 BB2          0.0000
    39 H21       -1.3049   -17.5402    13.0114 H          2 BB2          0.0000
    40 H22        0.0479   -18.2025    12.0615 H          2 BB2          0.0000
    41 H23        2.7061   -16.6903    14.2323 H          2 BB2          0.0000
    42 H24        2.4355   -17.6966    12.7883 H          2 BB2          0.0000
    43 H25        3.0030   -15.3661    12.1562 H          2 BB2          0.0000
    44 H26        1.6167   -14.7725    13.1006 H          2 BB2          0.0000
    45 H27        0.7136   -20.3388    15.8144 H          2 BB2          0.0000
    46 H28       -0.7927   -16.1435    14.8426 H          2 BB2          0.0000
    47 H29        1.4460   -16.6362    10.8419 H          2 BB2          0.0000
@<TRIPOS>BOND
     1      1      2 1
     2      1     19 1
     3      2      3 ar
     4      2      7 ar
     5      3      4 ar
     6      3     13 1
     7      4      5 ar
     8      4     14 1
     9      5      6 ar
    10      5     15 1
    11      6      7 ar
    12      7      8 1
    13      8      9 2
    14      8     12 1
    15      9     10 1
    16      9     16 1
    17     10     11 2
    18     10     17 1
    19     11     12 1
    20     11     18 1
    21     20     21 1
    22     20     33 1
    23     20     34 1
    24     20     35 1
    25     21     22 1
    26     21     31 1
    27     21     36 1
    28     22     23 1
    29     22     28 1
    30     22     47 1
    31     23     24 1
    32     23     37 1
    33     23     38 1
    34     24     25 1
    35     24     39 1
    36     24     40 1
    37     25     26 1
    38     25     27 1
    39     25     29 1
    40     26     46 1
    41     27     28 1
    42     27     41 1
    43     27     42 1
    44     28     43 1
    45     28     44 1
    46     29     30 3
    47     30     45 1
    48     31     32 2
    49      1     31 am
@<TRIPOS>SUBSTRUCTURE
     1 BB1           1
     2 BB2          31
@<TRIPOS>MOLECULE
EN300-125606_i001_EN300-1165841_i001_16_20_1
  47   49   2   0   0
SMALL
USER_CHARGES
@<TRIPOS>ATOM
     1 N1        -0.1932   -13.3293    10.5308 N.am       1 BB1          0.0000
     2 C2        -0.8928   -12.1374    10.3411 C.ar       1 BB1          0.0000
     3 C3        -1.7343   -11.6467    11.3326 C.ar       1 BB1          0.0000
     4 C4        -2.4091   -10.4574    11.0984 C.ar       1 BB1          0.0000
     5 C5        -2.2289    -9.7977     9.8966 C.ar       1 BB1          0.0000
     6 N6        -1.4264   -10.2799     8.9693 N.ar       1 BB1          0.0000
     7 C7        -0.7543   -11.4113     9.1488 C.ar       1 BB1          0.0000
     8 C8         0.1336   -11.9142     8.0827 C.2        1 BB1          0.0000
     9 C9         0.1121   -13.1658     7.5496 C.2        1 BB1          0.0000
    10 C10        1.1235   -13.2070     6.5700 C.2        1 BB1          0.0000
    11 C11        1.7069   -11.9922     6.5530 C.2        1 BB1          0.0000
    12 O12        1.1026   -11.2120     7.4638 O.3        1 BB1          0.0000
    13 H13       -1.8602   -12.1791    12.2638 H          1 BB1          0.0000
    14 H14       -3.0704   -10.0502    11.8489 H          1 BB1          0.0000
    15 H15       -2.7549    -8.8721     9.7149 H          1 BB1          0.0000
    16 H16       -0.5519   -13.9720     7.8247 H          1 BB1          0.0000
    17 H17        1.3827   -14.0524     5.9498 H          1 BB1          0.0000
    18 H18        2.5219   -11.6941     5.9103 H          1 BB1          0.0000
    19 H19       -0.2919   -13.8229    11.3599 H          1 BB1          0.0000
    20 C1         2.5764   -14.3098    10.1170 C.3        2 BB2          0.0000
    21 C2         1.1323   -14.6517    10.4890 C.3        2 BB2          0.0000
    22 N3         1.1179   -15.8348    11.3597 N.4        2 BB2          1.0000
    23 C4        -0.2523   -16.0819    11.8244 C.3        2 BB2          0.0000
    24 C5        -0.2871   -17.3595    12.6659 C.3        2 BB2          0.0000
    25 C6         0.6411   -17.1947    13.8728 C.3        2 BB2          0.0000
    26 O7         0.1639   -16.1325    14.7010 O.3        2 BB2          0.0000
    27 C8         2.0521   -16.8639    13.3779 C.3        2 BB2          0.0000
    28 C9         2.0000   -15.6046    12.5101 C.3        2 BB2          0.0000
    29 C10        0.6699   -18.4469    14.6460 C.1        2 BB2          0.0000
    30 C11        0.6930   -19.4456    15.2629 C.1        2 BB2          0.0000
    31 C12        0.3457   -14.9402     9.2365 C.2        2 BB2          0.0000
    32 O13        0.1574   -14.0566     8.4177 O.2        2 BB2          0.0000
    33 H15        3.0257   -15.1528     9.5919 H          2 BB2          0.0000
    34 H16        2.5871   -13.4320     9.4709 H          2 BB2          0.0000
    35 H17        3.1454   -14.1011    11.0230 H          2 BB2          0.0000
    36 H18        0.6830   -13.8087    11.0141 H          2 BB2          0.0000
    37 H19       -0.5877   -15.2396    12.4295 H          2 BB2          0.0000
    38 H20       -0.9122   -16.1958    10.9644 H          2 BB2          0.0000
    39 H21       -1.3049   -17.5402    13.0114 H          2 BB2          0.0000
    40 H22        0.0479   -18.2025    12.0615 H          2 BB2          0.0000
    41 H23        2.7061   -16.6903    14.2323 H          2 BB2          0.0000
    42 H24        2.4355   -17.6966    12.7883 H          2 BB2          0.0000
    43 H25        3.0030   -15.3661    12.1562 H          2 BB2          0.0000
    44 H26        1.6167   -14.7725    13.1006 H          2 BB2          0.0000
    45 H27        0.7136   -20.3388    15.8144 H          2 BB2          0.0000
    46 H28       -0.7927   -16.1435    14.8426 H          2 BB2          0.0000
    47 H29        1.4460   -16.6362    10.8419 H          2 BB2          0.0000
@<TRIPOS>BOND
     1      1      2 1
     2      1     19 1
     3      2      3 ar
     4      2      7 ar
     5      3      4 ar
     6      3     13 1
     7      4      5 ar
     8      4     14 1
     9      5      6 ar
    10      5     15 1
    11      6      7 ar
    12      7      8 1
    13      8      9 2
    14      8     12 1
    15      9     10 1
    16      9     16 1
    17     10     11 2
    18     10     17 1
    19     11     12 1
    20     11     18 1
    21     20     21 1
    22     20     33 1
    23     20     34 1
    24     20     35 1
    25     21     22 1
    26     21     31 1
    27     21     36 1
    28     22     23 1
    29     22     28 1
    30     22     47 1
    31     23     24 1
    32     23     37 1
    33     23     38 1
    34     24     25 1
    35     24     39 1
    36     24     40 1
    37     25     26 1
    38     25     27 1
    39     25     29 1
    40     26     46 1
    41     27     28 1
    42     27     41 1
    43     27     42 1
    44     28     43 1
    45     28     44 1
    46     29     30 3
    47     30     45 1
    48     31     32 2
    49      1     31 am
@<TRIPOS>SUBSTRUCTURE
     1 BB1           1
     2 BB2          31
@<TRIPOS>MOLECULE
EN300-125606_i001_EN300-315786_i001_19_16_1
  47   50   2   0   0
SMALL
USER_CHARGES
@<TRIPOS>ATOM
     1 N1         1.1042   -10.8004     9.8952 N.am       1 BB1          0.0000
     2 C2        -0.2905   -10.8281     9.9092 C.ar       1 BB1          0.0000
     3 C3        -1.0082    -9.8977    10.6519 C.ar       1 BB1          0.0000
     4 C4        -2.3937    -9.9650    10.6349 C.ar       1 BB1          0.0000
     5 C5        -3.0187   -10.9460     9.8873 C.ar       1 BB1          0.0000
     6 N6        -2.3199   -11.8189     9.1901 N.ar       1 BB1          0.0000
     7 C7        -0.9921   -11.7918     9.1697 C.ar       1 BB1          0.0000
     8 C8        -0.2501   -12.7894     8.3745 C.2        1 BB1          0.0000
     9 C9        -0.7891   -13.8644     7.7380 C.2        1 BB1          0.0000
    10 C10        0.2753   -14.5385     7.1079 C.2        1 BB1          0.0000
    11 C11        1.3997   -13.8499     7.3874 C.2        1 BB1          0.0000
    12 O12        1.0778   -12.7908     8.1477 O.3        1 BB1          0.0000
    13 H13       -0.4989    -9.1401    11.2289 H          1 BB1          0.0000
    14 H14       -2.9798    -9.2567    11.2017 H          1 BB1          0.0000
    15 H15       -4.0974   -10.9980     9.8750 H          1 BB1          0.0000
    16 H16       -1.8315   -14.1466     7.7198 H          1 BB1          0.0000
    17 H17        0.2039   -15.4372     6.5133 H          1 BB1          0.0000
    18 H18        2.3939   -14.1049     7.0516 H          1 BB1          0.0000
    19 H19        1.5810   -10.1280    10.4064 H          1 BB1          0.0000
    20 C2         0.3606   -12.8877     8.8732 C.2        2 BB2          0.0000
    21 O3        -0.5257   -12.0691     8.6754 O.2        2 BB2          0.0000
    22 C4         0.3375   -13.7215    10.0931 C.ar       2 BB2          0.0000
    23 C5         1.3368   -14.6734    10.3078 C.ar       2 BB2          0.0000
    24 C6         1.3146   -15.4506    11.4457 C.ar       2 BB2          0.0000
    25 C7         0.2941   -15.2869    12.3832 C.ar       2 BB2          0.0000
    26 C8        -0.7046   -14.3361    12.1693 C.ar       2 BB2          0.0000
    27 C9        -0.6805   -13.5541    11.0346 C.ar       2 BB2          0.0000
    28 C10        0.2706   -16.1228    13.6054 C.2        2 BB2          0.0000
    29 O11        0.3511   -15.6011    14.7000 O.2        2 BB2          0.0000
    30 N12        0.1600   -17.4621    13.5038 N.am       2 BB2          0.0000
    31 C13        0.1447   -18.1234    12.1892 C.3        2 BB2          0.0000
    32 C14        1.1757   -19.2576    12.2065 C.3        2 BB2          0.0000
    33 O15        0.9364   -20.0941    13.3408 O.3        2 BB2          0.0000
    34 C16        1.0872   -19.4318    14.5987 C.3        2 BB2          0.0000
    35 C17        0.0572   -18.3070    14.7042 C.3        2 BB2          0.0000
    36 H18        2.1265   -14.8005     9.5822 H          2 BB2          0.0000
    37 H19        2.0871   -16.1870    11.6117 H          2 BB2          0.0000
    38 H20       -1.4944   -14.2101    12.8951 H          2 BB2          0.0000
    39 H21       -1.4533   -12.8180    10.8693 H          2 BB2          0.0000
    40 H22       -0.8472   -18.5318    11.9953 H          2 BB2          0.0000
    41 H23        0.4039   -17.4034    11.4130 H          2 BB2          0.0000
    42 H24        1.0844   -19.8467    11.2939 H          2 BB2          0.0000
    43 H25        2.1792   -18.8366    12.2700 H          2 BB2          0.0000
    44 H26        0.9320   -20.1462    15.4073 H          2 BB2          0.0000
    45 H27        2.0902   -19.0114    14.6708 H          2 BB2          0.0000
    46 H28        0.2561   -17.7092    15.5937 H          2 BB2          0.0000
    47 H29       -0.9451   -18.7313    14.7629 H          2 BB2          0.0000
@<TRIPOS>BOND
     1      1      2 1
     2      1     19 1
     3      2      3 ar
     4      2      7 ar
     5      3      4 ar
     6      3     13 1
     7      4      5 ar
     8      4     14 1
     9      5      6 ar
    10      5     15 1
    11      6      7 ar
    12      7      8 1
    13      8      9 2
    14      8     12 1
    15      9     10 1
    16      9     16 1
    17     10     11 2
    18     10     17 1
    19     11     12 1
    20     11     18 1
    21     20     21 2
    22     20     22 1
    23     22     23 ar
    24     22     27 ar
    25     23     24 ar
    26     23     36 1
    27     24     25 ar
    28     24     37 1
    29     25     26 ar
    30     25     28 1
    31     26     27 ar
    32     26     38 1
    33     27     39 1
    34     28     29 2
    35     28     30 am
    36     30     31 1
    37     30     35 1
    38     31     32 1
    39     31     40 1
    40     31     41 1
    41     32     33 1
    42     32     42 1
    43     32     43 1
    44     33     34 1
    45     34     35 1
    46     34     44 1
    47     34     45 1
    48     35     46 1
    49     35     47 1
    50      1     20 am
@<TRIPOS>SUBSTRUCTURE
     1 BB1           1
     2 BB2          20
@<TRIPOS>MOLECULE
EN300-125606_i001_EN300-1165841_i001_2_2_1
  47   49   2   0   0
SMALL
USER_CHARGES
@<TRIPOS>ATOM
     1 N1        -0.5242   -13.5558    10.7617 N.am       1 BB1          0.0000
     2 C2        -0.9012   -12.2439    10.4738 C.ar       1 BB1          0.0000
     3 C3        -1.6827   -11.5212    11.3677 C.ar       1 BB1          0.0000
     4 C4        -2.0326   -10.2199    11.0380 C.ar       1 BB1          0.0000
     5 C5        -1.5993    -9.6809     9.8407 C.ar       1 BB1          0.0000
     6 N6        -0.8590   -10.3830     9.0068 N.ar       1 BB1          0.0000
     7 C7        -0.4932   -11.6303     9.2802 C.ar       1 BB1          0.0000
     8 C8         0.3366   -12.3794     8.3167 C.2        1 BB1          0.0000
     9 C9         0.7782   -11.9182     7.1152 C.2        1 BB1          0.0000
    10 C10        1.5294   -12.9580     6.5329 C.2        1 BB1          0.0000
    11 C11        1.5099   -13.9916     7.3975 C.2        1 BB1          0.0000
    12 O12        0.7934   -13.6366     8.4764 O.3        1 BB1          0.0000
    13 H13       -2.0102   -11.9626    12.2974 H          1 BB1          0.0000
    14 H14       -2.6392    -9.6324    11.7113 H          1 BB1          0.0000
    15 H15       -1.8724    -8.6678     9.5845 H          1 BB1          0.0000
    16 H16        0.5889   -10.9436     6.6899 H          1 BB1          0.0000
    17 H17        2.0268   -12.9318     5.5746 H          1 BB1          0.0000
    18 H18        1.9941   -14.9455     7.2493 H          1 BB1          0.0000
    19 H20        0.0179   -14.0543    10.1303 H          1 BB1          0.0000
    20 C1         1.0141   -14.7973    10.7120 C.3        2 BB2          0.0000
    21 C2         1.1952   -15.6163    11.9916 C.3        2 BB2          0.0000
    22 N3         0.9886   -17.0401    11.6951 N.4        2 BB2          1.0000
    23 C4        -0.4002   -17.2535    11.2705 C.3        2 BB2          0.0000
    24 C5        -0.5995   -18.7203    10.8828 C.3        2 BB2          0.0000
    25 C6        -0.2915   -19.6084    12.0918 C.3        2 BB2          0.0000
    26 O7        -1.2159   -19.3219    13.1431 O.3        2 BB2          0.0000
    27 C8         1.1346   -19.3236    12.5720 C.3        2 BB2          0.0000
    28 C9         1.2695   -17.8344    12.8970 C.3        2 BB2          0.0000
    29 C10       -0.4089   -21.0239    11.7052 C.1        2 BB2          0.0000
    30 C11       -0.5026   -22.1529    11.3969 C.1        2 BB2          0.0000
    31 C12        0.1915   -15.1669    13.0219 C.2        2 BB2          0.0000
    32 O14        0.2514   -15.5990    14.1605 O.2        2 BB2          0.0000
    33 H15        0.0056   -14.9454    10.3256 H          2 BB2          0.0000
    34 H16        1.1674   -13.7408    10.9320 H          2 BB2          0.0000
    35 H17        1.7400   -15.1223     9.9667 H          2 BB2          0.0000
    36 H18        2.2037   -15.4682    12.3780 H          2 BB2          0.0000
    37 H19       -1.0731   -16.9999    12.0896 H          2 BB2          0.0000
    38 H20       -0.6188   -16.6183    10.4121 H          2 BB2          0.0000
    39 H21       -1.6317   -18.8770    10.5697 H          2 BB2          0.0000
    40 H22        0.0729   -18.9747    10.0634 H          2 BB2          0.0000
    41 H23        1.3419   -19.9116    13.4660 H          2 BB2          0.0000
    42 H24        1.8428   -19.5906    11.7876 H          2 BB2          0.0000
    43 H25        2.2836   -17.6282    13.2394 H          2 BB2          0.0000
    44 H26        0.5611   -17.5686    13.6815 H          2 BB2          0.0000
    45 H27       -0.5863   -23.1625    11.1212 H          2 BB2          0.0000
    46 H28       -1.1450   -19.9168    13.9022 H          2 BB2          0.0000
    47 H29        1.6128   -17.3224    10.9543 H          2 BB2          0.0000
@<TRIPOS>BOND
     1      1      2 1
     2      1     19 1
     3      2      3 ar
     4      2      7 ar
     5      3      4 ar
     6      3     13 1
     7      4      5 ar
     8      4     14 1
     9      5      6 ar
    10      5     15 1
    11      6      7 ar
    12      7      8 1
    13      8      9 2
    14      8     12 1
    15      9     10 1
    16      9     16 1
    17     10     11 2
    18     10     17 1
    19     11     12 1
    20     11     18 1
    21     20     21 1
    22     20     33 1
    23     20     34 1
    24     20     35 1
    25     21     22 1
    26     21     31 1
    27     21     36 1
    28     22     23 1
    29     22     28 1
    30     22     47 1
    31     23     24 1
    32     23     37 1
    33     23     38 1
    34     24     25 1
    35     24     39 1
    36     24     40 1
    37     25     26 1
    38     25     27 1
    39     25     29 1
    40     26     46 1
    41     27     28 1
    42     27     41 1
    43     27     42 1
    44     28     43 1
    45     28     44 1
    46     29     30 3
    47     30     45 1
    48     31     32 2
    49      1     31 am
@<TRIPOS>SUBSTRUCTURE
     1 BB1           1
     2 BB2          31
@<TRIPOS>MOLECULE
EN300-125606_i001_EN300-1165841_i001_2_20_1
  47   49   2   0   0
SMALL
USER_CHARGES
@<TRIPOS>ATOM
     1 N1        -0.5242   -13.5558    10.7617 N.am       1 BB1          0.0000
     2 C2        -0.9012   -12.2439    10.4738 C.ar       1 BB1          0.0000
     3 C3        -1.6827   -11.5212    11.3677 C.ar       1 BB1          0.0000
     4 C4        -2.0326   -10.2199    11.0380 C.ar       1 BB1          0.0000
     5 C5        -1.5993    -9.6809     9.8407 C.ar       1 BB1          0.0000
     6 N6        -0.8590   -10.3830     9.0068 N.ar       1 BB1          0.0000
     7 C7        -0.4932   -11.6303     9.2802 C.ar       1 BB1          0.0000
     8 C8         0.3366   -12.3794     8.3167 C.2        1 BB1          0.0000
     9 C9         0.7782   -11.9182     7.1152 C.2        1 BB1          0.0000
    10 C10        1.5294   -12.9580     6.5329 C.2        1 BB1          0.0000
    11 C11        1.5099   -13.9916     7.3975 C.2        1 BB1          0.0000
    12 O12        0.7934   -13.6366     8.4764 O.3        1 BB1          0.0000
    13 H13       -2.0102   -11.9626    12.2974 H          1 BB1          0.0000
    14 H14       -2.6392    -9.6324    11.7113 H          1 BB1          0.0000
    15 H15       -1.8724    -8.6678     9.5845 H          1 BB1          0.0000
    16 H16        0.5889   -10.9436     6.6899 H          1 BB1          0.0000
    17 H17        2.0268   -12.9318     5.5746 H          1 BB1          0.0000
    18 H18        1.9941   -14.9455     7.2493 H          1 BB1          0.0000
    19 H19       -0.8076   -13.9710    11.5912 H          1 BB1          0.0000
    20 C1         2.5764   -14.3098    10.1170 C.3        2 BB2          0.0000
    21 C2         1.1323   -14.6517    10.4890 C.3        2 BB2          0.0000
    22 N3         1.1179   -15.8348    11.3597 N.4        2 BB2          1.0000
    23 C4        -0.2523   -16.0819    11.8244 C.3        2 BB2          0.0000
    24 C5        -0.2871   -17.3595    12.6659 C.3        2 BB2          0.0000
    25 C6         0.6411   -17.1947    13.8728 C.3        2 BB2          0.0000
    26 O7         0.1639   -16.1325    14.7010 O.3        2 BB2          0.0000
    27 C8         2.0521   -16.8639    13.3779 C.3        2 BB2          0.0000
    28 C9         2.0000   -15.6046    12.5101 C.3        2 BB2          0.0000
    29 C10        0.6699   -18.4469    14.6460 C.1        2 BB2          0.0000
    30 C11        0.6930   -19.4456    15.2629 C.1        2 BB2          0.0000
    31 C12        0.3457   -14.9402     9.2365 C.2        2 BB2          0.0000
    32 O13        0.1574   -14.0566     8.4177 O.2        2 BB2          0.0000
    33 H15        3.0257   -15.1528     9.5919 H          2 BB2          0.0000
    34 H16        2.5871   -13.4320     9.4709 H          2 BB2          0.0000
    35 H17        3.1454   -14.1011    11.0230 H          2 BB2          0.0000
    36 H18        0.6830   -13.8087    11.0141 H          2 BB2          0.0000
    37 H19       -0.5877   -15.2396    12.4295 H          2 BB2          0.0000
    38 H20       -0.9122   -16.1958    10.9644 H          2 BB2          0.0000
    39 H21       -1.3049   -17.5402    13.0114 H          2 BB2          0.0000
    40 H22        0.0479   -18.2025    12.0615 H          2 BB2          0.0000
    41 H23        2.7061   -16.6903    14.2323 H          2 BB2          0.0000
    42 H24        2.4355   -17.6966    12.7883 H          2 BB2          0.0000
    43 H25        3.0030   -15.3661    12.1562 H          2 BB2          0.0000
    44 H26        1.6167   -14.7725    13.1006 H          2 BB2          0.0000
    45 H27        0.7136   -20.3388    15.8144 H          2 BB2          0.0000
    46 H28       -0.7927   -16.1435    14.8426 H          2 BB2          0.0000
    47 H29        1.4460   -16.6362    10.8419 H          2 BB2          0.0000
@<TRIPOS>BOND
     1      1      2 1
     2      1     19 1
     3      2      3 ar
     4      2      7 ar
     5      3      4 ar
     6      3     13 1
     7      4      5 ar
     8      4     14 1
     9      5      6 ar
    10      5     15 1
    11      6      7 ar
    12      7      8 1
    13      8      9 2
    14      8     12 1
    15      9     10 1
    16      9     16 1
    17     10     11 2
    18     10     17 1
    19     11     12 1
    20     11     18 1
    21     20     21 1
    22     20     33 1
    23     20     34 1
    24     20     35 1
    25     21     22 1
    26     21     31 1
    27     21     36 1
    28     22     23 1
    29     22     28 1
    30     22     47 1
    31     23     24 1
    32     23     37 1
    33     23     38 1
    34     24     25 1
    35     24     39 1
    36     24     40 1
    37     25     26 1
    38     25     27 1
    39     25     29 1
    40     26     46 1
    41     27     28 1
    42     27     41 1
    43     27     42 1
    44     28     43 1
    45     28     44 1
    46     29     30 3
    47     30     45 1
    48     31     32 2
    49      1     31 am
@<TRIPOS>SUBSTRUCTURE
     1 BB1           1
     2 BB2          31
@<TRIPOS>MOLECULE
EN300-125606_i001_EN300-1165841_i001_5_20_1
  47   49   2   0   0
SMALL
USER_CHARGES
@<TRIPOS>ATOM
     1 N1        -0.0994   -14.0225     9.7455 N.am       1 BB1          0.0000
     2 C2         0.3036   -13.2561     8.6517 C.ar       1 BB1          0.0000
     3 C3         1.0851   -13.8148     7.6471 C.ar       1 BB1          0.0000
     4 C4         1.4612   -13.0134     6.5791 C.ar       1 BB1          0.0000
     5 C5         1.0532   -11.6928     6.5419 C.ar       1 BB1          0.0000
     6 N6         0.3124   -11.1822     7.5047 N.ar       1 BB1          0.0000
     7 C7        -0.0779   -11.9104     8.5446 C.ar       1 BB1          0.0000
     8 C8        -0.9072   -11.2969     9.6000 C.2        1 BB1          0.0000
     9 C9        -1.5907   -10.1248     9.4983 C.2        1 BB1          0.0000
    10 C10       -2.2396    -9.9252    10.7326 C.2        1 BB1          0.0000
    11 C11       -1.9241   -10.9734    11.5189 C.2        1 BB1          0.0000
    12 O12       -1.1240   -11.8029    10.8296 O.3        1 BB1          0.0000
    13 H13        1.3926   -14.8489     7.6970 H          1 BB1          0.0000
    14 H14        2.0686   -13.4178     5.7828 H          1 BB1          0.0000
    15 H15        1.3468   -11.0694     5.7103 H          1 BB1          0.0000
    16 H16       -1.6280    -9.4731     8.6378 H          1 BB1          0.0000
    17 H17       -2.8705    -9.0900    10.9986 H          1 BB1          0.0000
    18 H18       -2.2625   -11.1237    12.5334 H          1 BB1          0.0000
    19 H20       -0.6412   -13.6235    10.4441 H          1 BB1          0.0000
    20 C1         2.5764   -14.3098    10.1170 C.3        2 BB2          0.0000
    21 C2         1.1323   -14.6517    10.4890 C.3        2 BB2          0.0000
    22 N3         1.1179   -15.8348    11.3597 N.4        2 BB2          1.0000
    23 C4        -0.2523   -16.0819    11.8244 C.3        2 BB2          0.0000
    24 C5        -0.2871   -17.3595    12.6659 C.3        2 BB2          0.0000
    25 C6         0.6411   -17.1947    13.8728 C.3        2 BB2          0.0000
    26 O7         0.1639   -16.1325    14.7010 O.3        2 BB2          0.0000
    27 C8         2.0521   -16.8639    13.3779 C.3        2 BB2          0.0000
    28 C9         2.0000   -15.6046    12.5101 C.3        2 BB2          0.0000
    29 C10        0.6699   -18.4469    14.6460 C.1        2 BB2          0.0000
    30 C11        0.6930   -19.4456    15.2629 C.1        2 BB2          0.0000
    31 C12        0.3457   -14.9402     9.2365 C.2        2 BB2          0.0000
    32 O13        0.1574   -14.0566     8.4177 O.2        2 BB2          0.0000
    33 H15        3.0257   -15.1528     9.5919 H          2 BB2          0.0000
    34 H16        2.5871   -13.4320     9.4709 H          2 BB2          0.0000
    35 H17        3.1454   -14.1011    11.0230 H          2 BB2          0.0000
    36 H18        0.6830   -13.8087    11.0141 H          2 BB2          0.0000
    37 H19       -0.5877   -15.2396    12.4295 H          2 BB2          0.0000
    38 H20       -0.9122   -16.1958    10.9644 H          2 BB2          0.0000
    39 H21       -1.3049   -17.5402    13.0114 H          2 BB2          0.0000
    40 H22        0.0479   -18.2025    12.0615 H          2 BB2          0.0000
    41 H23        2.7061   -16.6903    14.2323 H          2 BB2          0.0000
    42 H24        2.4355   -17.6966    12.7883 H          2 BB2          0.0000
    43 H25        3.0030   -15.3661    12.1562 H          2 BB2          0.0000
    44 H26        1.6167   -14.7725    13.1006 H          2 BB2          0.0000
    45 H27        0.7136   -20.3388    15.8144 H          2 BB2          0.0000
    46 H28       -0.7927   -16.1435    14.8426 H          2 BB2          0.0000
    47 H29        1.4460   -16.6362    10.8419 H          2 BB2          0.0000
@<TRIPOS>BOND
     1      1      2 1
     2      1     19 1
     3      2      3 ar
     4      2      7 ar
     5      3      4 ar
     6      3     13 1
     7      4      5 ar
     8      4     14 1
     9      5      6 ar
    10      5     15 1
    11      6      7 ar
    12      7      8 1
    13      8      9 2
    14      8     12 1
    15      9     10 1
    16      9     16 1
    17     10     11 2
    18     10     17 1
    19     11     12 1
    20     11     18 1
    21     20     21 1
    22     20     33 1
    23     20     34 1
    24     20     35 1
    25     21     22 1
    26     21     31 1
    27     21     36 1
    28     22     23 1
    29     22     28 1
    30     22     47 1
    31     23     24 1
    32     23     37 1
    33     23     38 1
    34     24     25 1
    35     24     39 1
    36     24     40 1
    37     25     26 1
    38     25     27 1
    39     25     29 1
    40     26     46 1
    41     27     28 1
    42     27     41 1
    43     27     42 1
    44     28     43 1
    45     28     44 1
    46     29     30 3
    47     30     45 1
    48     31     32 2
    49      1     31 am
@<TRIPOS>SUBSTRUCTURE
     1 BB1           1
     2 BB2          31
@<TRIPOS>MOLECULE
EN300-30341_i001_EN300-223795_i001_1_6_1
  40   42   2   0   0
SMALL
USER_CHARGES
@<TRIPOS>ATOM
     1 C1        -1.9896    -9.8525     9.4315 C.3        1 BB1          0.0000
     2 O2        -0.7956   -10.4926     8.9769 O.3        1 BB1          0.0000
     3 C3        -0.5084   -11.7107     9.5065 C.ar       1 BB1          0.0000
     4 C4         0.2975   -12.5990     8.8094 C.ar       1 BB1          0.0000
     5 C5         0.5879   -13.8366     9.3499 C.ar       1 BB1          0.0000
     6 C6         0.0761   -14.1904    10.5847 C.ar       1 BB1          0.0000
     7 C7        -0.7277   -13.3070    11.2814 C.ar       1 BB1          0.0000
     8 C8        -1.0160   -12.0657    10.7479 C.ar       1 BB1          0.0000
     9 C9         0.3946   -15.5411    11.1721 C.3        1 BB1          0.0000
    10 N10        0.2058   -16.5772    10.1480 N.am       1 BB1          0.0000
    11 C11       -0.5377   -15.8162    12.3537 C.3        1 BB1          0.0000
    12 C12       -0.0738   -16.8341    13.3976 C.3        1 BB1          0.0000
    13 C13       -0.0849   -15.3420    13.7361 C.3        1 BB1          0.0000
    14 H14       -1.9309    -9.6970    10.5088 H          1 BB1          0.0000
    15 H15       -2.0994    -8.8905     8.9310 H          1 BB1          0.0000
    16 H16       -2.8493   -10.4820     9.2016 H          1 BB1          0.0000
    17 H17        0.6972   -12.3233     7.8447 H          1 BB1          0.0000
    18 H18        1.2150   -14.5287     8.8074 H          1 BB1          0.0000
    19 H19       -1.1269   -13.5859    12.2453 H          1 BB1          0.0000
    20 H20       -1.6439   -11.3760    11.2923 H          1 BB1          0.0000
    21 H21        1.4291   -15.5535    11.5150 H          1 BB1          0.0000
    22 H22       -1.6039   -15.7739    12.1310 H          1 BB1          0.0000
    23 H23       -0.8348   -17.4611    13.8620 H          1 BB1          0.0000
    24 H24        0.8956   -17.3077    13.2425 H          1 BB1          0.0000
    25 H25        0.8772   -14.8341    13.8037 H          1 BB1          0.0000
    26 H26       -0.8532   -14.9875    14.4232 H          1 BB1          0.0000
    27 H29        1.1051   -16.8721     9.7981 H          1 BB1          0.0000
    28 O1        -1.0523   -17.8834    11.8907 O.2        2 BB2          0.0000
    29 C2        -0.1310   -18.6893    11.8889 C.2        2 BB2          0.0000
    30 C4         0.5803   -18.9932    13.1358 C.2        2 BB2          0.0000
    31 C5         1.2511   -17.9935    13.9358 C.2        2 BB2          0.0000
    32 C6         1.8272   -18.4953    15.0204 C.2        2 BB2          0.0000
    33 S7         1.5717   -20.2292    15.1109 S.3        2 BB2          0.0000
    34 C8         0.6724   -20.2468    13.6631 C.2        2 BB2          0.0000
    35 C9         0.0684   -21.4816    13.0457 C.3        2 BB2          0.0000
    36 F10       -1.3262   -21.3709    13.0504 F          2 BB2          0.0000
    37 F11        0.5213   -21.6137    11.7286 F          2 BB2          0.0000
    38 F12        0.4494   -22.6066    13.7848 F          2 BB2          0.0000
    39 H13        1.2806   -16.9454    13.6770 H          2 BB2          0.0000
    40 H14        2.3776   -17.9166    15.7474 H          2 BB2          0.0000
@<TRIPOS>BOND
     1      1      2 1
     2      1     14 1
     3      1     15 1
     4      1     16 1
     5      2      3 1
     6      3      4 ar
     7      3      8 ar
     8      4      5 ar
     9      4     17 1
    10      5      6 ar
    11      5     18 1
    12      6      7 ar
    13      6      9 1
    14      7      8 ar
    15      7     19 1
    16      8     20 1
    17      9     10 1
    18      9     11 1
    19      9     21 1
    20     10     27 1
    21     11     12 1
    22     11     13 1
    23     11     22 1
    24     12     13 1
    25     12     23 1
    26     12     24 1
    27     13     25 1
    28     13     26 1
    29     28     29 2
    30     29     30 1
    31     30     31 1
    32     30     34 2
    33     31     32 2
    34     31     39 1
    35     32     33 1
    36     32     40 1
    37     33     34 1
    38     34     35 1
    39     35     36 1
    40     35     37 1
    41     35     38 1
    42     10     29 am
@<TRIPOS>SUBSTRUCTURE
     1 BB1          10
     2 BB2          29
@<TRIPOS>MOLECULE
EN300-30341_i001_EN300-344045_i001_1_4_1
  56   59   2   0   0
SMALL
USER_CHARGES
@<TRIPOS>ATOM
     1 C1        -1.9896    -9.8525     9.4315 C.3        1 BB1          0.0000
     2 O2        -0.7956   -10.4926     8.9769 O.3        1 BB1          0.0000
     3 C3        -0.5084   -11.7107     9.5065 C.ar       1 BB1          0.0000
     4 C4         0.2975   -12.5990     8.8094 C.ar       1 BB1          0.0000
     5 C5         0.5879   -13.8366     9.3499 C.ar       1 BB1          0.0000
     6 C6         0.0761   -14.1904    10.5847 C.ar       1 BB1          0.0000
     7 C7        -0.7277   -13.3070    11.2814 C.ar       1 BB1          0.0000
     8 C8        -1.0160   -12.0657    10.7479 C.ar       1 BB1          0.0000
     9 C9         0.3946   -15.5411    11.1721 C.3        1 BB1          0.0000
    10 N10        0.2058   -16.5772    10.1480 N.am       1 BB1          0.0000
    11 C11       -0.5377   -15.8162    12.3537 C.3        1 BB1          0.0000
    12 C12       -0.0738   -16.8341    13.3976 C.3        1 BB1          0.0000
    13 C13       -0.0849   -15.3420    13.7361 C.3        1 BB1          0.0000
    14 H14       -1.9309    -9.6970    10.5088 H          1 BB1          0.0000
    15 H15       -2.0994    -8.8905     8.9310 H          1 BB1          0.0000
    16 H16       -2.8493   -10.4820     9.2016 H          1 BB1          0.0000
    17 H17        0.6972   -12.3233     7.8447 H          1 BB1          0.0000
    18 H18        1.2150   -14.5287     8.8074 H          1 BB1          0.0000
    19 H19       -1.1269   -13.5859    12.2453 H          1 BB1          0.0000
    20 H20       -1.6439   -11.3760    11.2923 H          1 BB1          0.0000
    21 H21        1.4291   -15.5535    11.5150 H          1 BB1          0.0000
    22 H22       -1.6039   -15.7739    12.1310 H          1 BB1          0.0000
    23 H23       -0.8348   -17.4611    13.8620 H          1 BB1          0.0000
    24 H24        0.8956   -17.3077    13.2425 H          1 BB1          0.0000
    25 H25        0.8772   -14.8341    13.8037 H          1 BB1          0.0000
    26 H26       -0.8532   -14.9875    14.4232 H          1 BB1          0.0000
    27 H29        1.1051   -16.8721     9.7981 H          1 BB1          0.0000
    28 O1        -0.9415   -17.2386    12.5728 O.2        2 BB2          0.0000
    29 C2        -0.6967   -18.0795    11.7246 C.2        2 BB2          0.0000
    30 C4        -0.7278   -19.5429    12.0833 C.3        2 BB2          0.0000
    31 C5         0.4242   -19.8581    13.0395 C.3        2 BB2          0.0000
    32 C6         1.7722   -19.5057    12.3772 C.3        2 BB2          0.0000
    33 C7         2.0894   -18.0813    12.8961 C.3        2 BB2          0.0000
    34 C8         1.5989   -18.1352    14.3643 C.3        2 BB2          0.0000
    35 C9         0.3140   -18.9868    14.3029 C.3        2 BB2          0.0000
    36 C10        0.3990   -21.3177    13.4139 C.ar       2 BB2          0.0000
    37 C11       -0.6944   -22.0969    13.0851 C.ar       2 BB2          0.0000
    38 C12       -0.7175   -23.4356    13.4286 C.ar       2 BB2          0.0000
    39 C13        0.3532   -23.9954    14.1005 C.ar       2 BB2          0.0000
    40 C14        1.4470   -23.2164    14.4285 C.ar       2 BB2          0.0000
    41 C15        1.4719   -21.8786    14.0811 C.ar       2 BB2          0.0000
    42 H16       -1.6760   -19.7785    12.5666 H          2 BB2          0.0000
    43 H17       -0.6228   -20.1411    11.1781 H          2 BB2          0.0000
    44 H18        2.5458   -20.2068    12.6902 H          2 BB2          0.0000
    45 H19        1.6748   -19.5033    11.2915 H          2 BB2          0.0000
    46 H20        3.1607   -17.8843    12.8537 H          2 BB2          0.0000
    47 H21        1.5351   -17.3319    12.3310 H          2 BB2          0.0000
    48 H22        2.3446   -18.6150    14.9983 H          2 BB2          0.0000
    49 H23        1.3751   -17.1327    14.7288 H          2 BB2          0.0000
    50 H24       -0.5601   -18.3393    14.2348 H          2 BB2          0.0000
    51 H25        0.2426   -19.6193    15.1876 H          2 BB2          0.0000
    52 H26       -1.5309   -21.6596    12.5603 H          2 BB2          0.0000
    53 H27       -1.5721   -24.0442    13.1725 H          2 BB2          0.0000
    54 H28        0.3349   -25.0411    14.3695 H          2 BB2          0.0000
    55 H29        2.2834   -23.6535    14.9537 H          2 BB2          0.0000
    56 H30        2.3266   -21.2699    14.3374 H          2 BB2          0.0000
@<TRIPOS>BOND
     1      1      2 1
     2      1     14 1
     3      1     15 1
     4      1     16 1
     5      2      3 1
     6      3      4 ar
     7      3      8 ar
     8      4      5 ar
     9      4     17 1
    10      5      6 ar
    11      5     18 1
    12      6      7 ar
    13      6      9 1
    14      7      8 ar
    15      7     19 1
    16      8     20 1
    17      9     10 1
    18      9     11 1
    19      9     21 1
    20     10     27 1
    21     11     12 1
    22     11     13 1
    23     11     22 1
    24     12     13 1
    25     12     23 1
    26     12     24 1
    27     13     25 1
    28     13     26 1
    29     28     29 2
    30     29     30 1
    31     30     31 1
    32     30     42 1
    33     30     43 1
    34     31     32 1
    35     31     35 1
    36     31     36 1
    37     32     33 1
    38     32     44 1
    39     32     45 1
    40     33     34 1
    41     33     46 1
    42     33     47 1
    43     34     35 1
    44     34     48 1
    45     34     49 1
    46     35     50 1
    47     35     51 1
    48     36     37 ar
    49     36     41 ar
    50     37     38 ar
    51     37     52 1
    52     38     39 ar
    53     38     53 1
    54     39     40 ar
    55     39     54 1
    56     40     41 ar
    57     40     55 1
    58     41     56 1
    59     10     29 am
@<TRIPOS>SUBSTRUCTURE
     1 BB1          10
     2 BB2          29
@<TRIPOS>MOLECULE
EN300-30341_i001_EN300-43851_i001_11_17_1
  49   52   2   0   0
SMALL
USER_CHARGES
@<TRIPOS>ATOM
     1 C1        -0.1054   -24.2996    14.7770 C.3        1 BB1          0.0000
     2 O2        -0.4114   -23.7346    13.5006 O.3        1 BB1          0.0000
     3 C3        -0.0274   -22.4486    13.2869 C.ar       1 BB1          0.0000
     4 C4        -0.6866   -21.6744    12.3432 C.ar       1 BB1          0.0000
     5 C5        -0.2943   -20.3675    12.1278 C.ar       1 BB1          0.0000
     6 C6         0.7544   -19.8309    12.8519 C.ar       1 BB1          0.0000
     7 C7         1.4133   -20.6007    13.7927 C.ar       1 BB1          0.0000
     8 C8         1.0207   -21.9062    14.0162 C.ar       1 BB1          0.0000
     9 C9         1.1802   -18.4049    12.6149 C.3        1 BB1          0.0000
    10 N10        2.5838   -18.3785    12.1822 N.am       1 BB1          0.0000
    11 C11        1.0311   -17.6059    13.9112 C.3        1 BB1          0.0000
    12 C12        2.2975   -17.3426    14.7285 C.3        1 BB1          0.0000
    13 C13        1.6384   -16.2022    13.9498 C.3        1 BB1          0.0000
    14 H14       -0.5907   -23.7152    15.5588 H          1 BB1          0.0000
    15 H15       -0.4656   -25.3276    14.8152 H          1 BB1          0.0000
    16 H16        0.9737   -24.2867    14.9307 H          1 BB1          0.0000
    17 H17       -1.5055   -22.0931    11.7772 H          1 BB1          0.0000
    18 H18       -0.8069   -19.7643    11.3930 H          1 BB1          0.0000
    19 H19        2.2326   -20.1796    14.3564 H          1 BB1          0.0000
    20 H20        1.5357   -22.5072    14.7511 H          1 BB1          0.0000
    21 H21        0.5531   -17.9622    11.8412 H          1 BB1          0.0000
    22 H22        0.1030   -17.7684    14.4594 H          1 BB1          0.0000
    23 H23        2.2025   -17.3312    15.8143 H          1 BB1          0.0000
    24 H24        3.2368   -17.7384    14.3426 H          1 BB1          0.0000
    25 H25        2.1443   -15.8480    13.0516 H          1 BB1          0.0000
    26 H26        1.1100   -15.4408    14.5232 H          1 BB1          0.0000
    27 H27        2.6413   -17.9958    11.2504 H          1 BB1          0.0000
    28 C1        -0.7700   -15.3204    14.0246 C.3        2 BB2          0.0000
    29 C2         0.0727   -15.1101    12.7931 C.2        2 BB2          0.0000
    30 N3        -0.2421   -14.3920    11.7410 N.2        2 BB2          0.0000
    31 N4         0.8308   -14.4777    10.8442 N.pl3      2 BB2          0.0000
    32 N5         1.7450   -15.2240    11.3580 N.2        2 BB2          0.0000
    33 C6         1.3531   -15.6405    12.5500 C.2        2 BB2          0.0000
    34 C7         2.1177   -16.5138    13.4588 C.2        2 BB2          0.0000
    35 O8         1.9473   -16.4375    14.6676 O.2        2 BB2          0.0000
    36 C10        0.8977   -13.8527     9.5916 C.ar       2 BB2          0.0000
    37 C11        0.5259   -12.5215     9.4582 C.ar       2 BB2          0.0000
    38 C12        0.5924   -11.9074     8.2232 C.ar       2 BB2          0.0000
    39 C13        1.0295   -12.6184     7.1179 C.ar       2 BB2          0.0000
    40 F14        1.0943   -12.0159     5.9105 F          2 BB2          0.0000
    41 C15        1.4008   -13.9464     7.2489 C.ar       2 BB2          0.0000
    42 C16        1.3411   -14.5623     8.4834 C.ar       2 BB2          0.0000
    43 H17       -1.4026   -16.1972    13.8866 H          2 BB2          0.0000
    44 H18       -0.1213   -15.4725    14.8873 H          2 BB2          0.0000
    45 H19       -1.3958   -14.4435    14.1908 H          2 BB2          0.0000
    46 H20        0.1845   -11.9668    10.3197 H          2 BB2          0.0000
    47 H21        0.3030   -10.8722     8.1189 H          2 BB2          0.0000
    48 H22        1.7414   -14.4992     6.3859 H          2 BB2          0.0000
    49 H23        1.6311   -15.5977     8.5852 H          2 BB2          0.0000
@<TRIPOS>BOND
     1      1      2 1
     2      1     14 1
     3      1     15 1
     4      1     16 1
     5      2      3 1
     6      3      4 ar
     7      3      8 ar
     8      4      5 ar
     9      4     17 1
    10      5      6 ar
    11      5     18 1
    12      6      7 ar
    13      6      9 1
    14      7      8 ar
    15      7     19 1
    16      8     20 1
    17      9     10 1
    18      9     11 1
    19      9     21 1
    20     10     27 1
    21     11     12 1
    22     11     13 1
    23     11     22 1
    24     12     13 1
    25     12     23 1
    26     12     24 1
    27     13     25 1
    28     13     26 1
    29     28     29 1
    30     28     43 1
    31     28     44 1
    32     28     45 1
    33     29     30 2
    34     29     33 1
    35     30     31 1
    36     31     32 1
    37     31     36 1
    38     32     33 2
    39     33     34 1
    40     34     35 2
    41     36     37 ar
    42     36     42 ar
    43     37     38 ar
    44     37     46 1
    45     38     39 ar
    46     38     47 1
    47     39     40 1
    48     39     41 ar
    49     41     42 ar
    50     41     48 1
    51     42     49 1
    52     10     34 am
@<TRIPOS>SUBSTRUCTURE
     1 BB1          10
     2 BB2          34
@<TRIPOS>MOLECULE
EN300-30341_i001_EN300-222254_i002_19_20_1
  50   53   2   0   0
SMALL
USER_CHARGES
@<TRIPOS>ATOM
     1 C1         1.1200   -11.3995     6.3181 C.3        1 BB1          0.0000
     2 O2         0.4471   -11.2454     7.5693 O.3        1 BB1          0.0000
     3 C3         0.4614   -12.3108     8.4128 C.ar       1 BB1          0.0000
     4 C4         1.1146   -13.4785     8.0464 C.ar       1 BB1          0.0000
     5 C5         1.1276   -14.5601     8.9057 C.ar       1 BB1          0.0000
     6 C6         0.4904   -14.4795    10.1301 C.ar       1 BB1          0.0000
     7 C7        -0.1618   -13.3169    10.4975 C.ar       1 BB1          0.0000
     8 C8        -0.1723   -12.2304     9.6443 C.ar       1 BB1          0.0000
     9 C9         0.5062   -15.6608    11.0656 C.3        1 BB1          0.0000
    10 N10        0.0182   -16.8522    10.3581 N.am       1 BB1          0.0000
    11 C11       -0.3989   -15.3736    12.2653 C.3        1 BB1          0.0000
    12 C12       -0.6135   -16.5031    13.2748 C.3        1 BB1          0.0000
    13 C13        0.2584   -15.3016    13.6450 C.3        1 BB1          0.0000
    14 H14        0.6680   -12.2202     5.7610 H          1 BB1          0.0000
    15 H15        1.0324   -10.4780     5.7425 H          1 BB1          0.0000
    16 H16        2.1729   -11.6179     6.4963 H          1 BB1          0.0000
    17 H17        1.6123   -13.5421     7.0900 H          1 BB1          0.0000
    18 H18        1.6358   -15.4696     8.6208 H          1 BB1          0.0000
    19 H19       -0.6595   -13.2567    11.4540 H          1 BB1          0.0000
    20 H20       -0.6819   -11.3226     9.9316 H          1 BB1          0.0000
    21 H21        1.5245   -15.8361    11.4125 H          1 BB1          0.0000
    22 H22       -1.2380   -14.7054    12.0717 H          1 BB1          0.0000
    23 H23       -1.5937   -16.5777    13.7457 H          1 BB1          0.0000
    24 H24       -0.1099   -17.4508    13.0843 H          1 BB1          0.0000
    25 H25        1.3358   -15.4589    13.6979 H          1 BB1          0.0000
    26 H26       -0.1480   -14.5858    14.3594 H          1 BB1          0.0000
    27 H28       -0.3656   -17.5054    11.0245 H          1 BB1          0.0000
    28 O1        -0.1937   -15.4726    12.3986 O.2        2 BB2          0.0000
    29 C2        -0.2904   -16.6423    12.7290 C.2        2 BB2          0.0000
    30 C4         0.4712   -17.1529    13.9248 C.3        2 BB2          0.0000
    31 C5         1.6394   -16.2452    14.3447 C.3        2 BB2          0.0000
    32 C6         2.4427   -17.5309    14.6026 C.3        2 BB2          0.0000
    33 C7         1.5260   -18.2160    13.5753 C.3        2 BB2          0.0000
    34 C8         1.1243   -19.6156    13.9636 C.ar       2 BB2          0.0000
    35 C9         0.6320   -19.8668    15.2300 C.ar       2 BB2          0.0000
    36 C10        0.2636   -21.1505    15.5872 C.ar       2 BB2          0.0000
    37 C11        0.3868   -22.1850    14.6770 C.ar       2 BB2          0.0000
    38 Cl12      -0.0766   -23.7965    15.1264 Cl         2 BB2          0.0000
    39 C13        0.8790   -21.9351    13.4085 C.ar       2 BB2          0.0000
    40 C14        1.2430   -20.6489    13.0492 C.ar       2 BB2          0.0000
    41 F15        1.7234   -20.4034    11.8106 F          2 BB2          0.0000
    42 H16       -0.1798   -17.4371    14.7515 H          2 BB2          0.0000
    43 H17        2.0357   -15.6387    13.5304 H          2 BB2          0.0000
    44 H18        1.4403   -15.6665    15.2467 H          2 BB2          0.0000
    45 H19        3.4833   -17.4666    14.2848 H          2 BB2          0.0000
    46 H20        2.3314   -17.9196    15.6148 H          2 BB2          0.0000
    47 H21        1.8913   -18.1483    12.5506 H          2 BB2          0.0000
    48 H22        0.5354   -19.0599    15.9414 H          2 BB2          0.0000
    49 H23       -0.1204   -21.3460    16.5776 H          2 BB2          0.0000
    50 H24        0.9754   -22.7424    12.6977 H          2 BB2          0.0000
@<TRIPOS>BOND
     1      1      2 1
     2      1     14 1
     3      1     15 1
     4      1     16 1
     5      2      3 1
     6      3      4 ar
     7      3      8 ar
     8      4      5 ar
     9      4     17 1
    10      5      6 ar
    11      5     18 1
    12      6      7 ar
    13      6      9 1
    14      7      8 ar
    15      7     19 1
    16      8     20 1
    17      9     10 1
    18      9     11 1
    19      9     21 1
    20     10     27 1
    21     11     12 1
    22     11     13 1
    23     11     22 1
    24     12     13 1
    25     12     23 1
    26     12     24 1
    27     13     25 1
    28     13     26 1
    29     28     29 2
    30     29     30 1
    31     30     31 1
    32     30     33 1
    33     30     42 1
    34     31     32 1
    35     31     43 1
    36     31     44 1
    37     32     33 1
    38     32     45 1
    39     32     46 1
    40     33     34 1
    41     33     47 1
    42     34     35 ar
    43     34     40 ar
    44     35     36 ar
    45     35     48 1
    46     36     37 ar
    47     36     49 1
    48     37     38 1
    49     37     39 ar
    50     39     40 ar
    51     39     50 1
    52     40     41 1
    53     10     29 am
@<TRIPOS>SUBSTRUCTURE
     1 BB1          10
     2 BB2          29
@<TRIPOS>MOLECULE
EN300-30341_i001_EN300-107901_i001_19_17_1
  53   56   2   0   0
SMALL
USER_CHARGES
@<TRIPOS>ATOM
     1 C1         1.1200   -11.3995     6.3181 C.3        1 BB1          0.0000
     2 O2         0.4471   -11.2454     7.5693 O.3        1 BB1          0.0000
     3 C3         0.4614   -12.3108     8.4128 C.ar       1 BB1          0.0000
     4 C4         1.1146   -13.4785     8.0464 C.ar       1 BB1          0.0000
     5 C5         1.1276   -14.5601     8.9057 C.ar       1 BB1          0.0000
     6 C6         0.4904   -14.4795    10.1301 C.ar       1 BB1          0.0000
     7 C7        -0.1618   -13.3169    10.4975 C.ar       1 BB1          0.0000
     8 C8        -0.1723   -12.2304     9.6443 C.ar       1 BB1          0.0000
     9 C9         0.5062   -15.6608    11.0656 C.3        1 BB1          0.0000
    10 N10        0.0182   -16.8522    10.3581 N.am       1 BB1          0.0000
    11 C11       -0.3989   -15.3736    12.2653 C.3        1 BB1          0.0000
    12 C12       -0.6135   -16.5031    13.2748 C.3        1 BB1          0.0000
    13 C13        0.2584   -15.3016    13.6450 C.3        1 BB1          0.0000
    14 H14        0.6680   -12.2202     5.7610 H          1 BB1          0.0000
    15 H15        1.0324   -10.4780     5.7425 H          1 BB1          0.0000
    16 H16        2.1729   -11.6179     6.4963 H          1 BB1          0.0000
    17 H17        1.6123   -13.5421     7.0900 H          1 BB1          0.0000
    18 H18        1.6358   -15.4696     8.6208 H          1 BB1          0.0000
    19 H19       -0.6595   -13.2567    11.4540 H          1 BB1          0.0000
    20 H20       -0.6819   -11.3226     9.9316 H          1 BB1          0.0000
    21 H21        1.5245   -15.8361    11.4125 H          1 BB1          0.0000
    22 H22       -1.2380   -14.7054    12.0717 H          1 BB1          0.0000
    23 H23       -1.5937   -16.5777    13.7457 H          1 BB1          0.0000
    24 H24       -0.1099   -17.4508    13.0843 H          1 BB1          0.0000
    25 H25        1.3358   -15.4589    13.6979 H          1 BB1          0.0000
    26 H26       -0.1480   -14.5858    14.3594 H          1 BB1          0.0000
    27 H27        0.7829   -17.2866     9.8636 H          1 BB1          0.0000
    28 O1        -1.0299   -17.6861    12.0791 O.2        2 BB2          0.0000
    29 C2        -0.6701   -18.8304    12.2976 C.2        2 BB2          0.0000
    30 C4         0.6634   -19.2977    11.8179 C.3        2 BB2          0.0000
    31 C5         1.4530   -20.2873    12.6580 C.3        2 BB2          0.0000
    32 C6         0.8872   -20.8206    13.9437 C.3        2 BB2          0.0000
    33 C7         1.5562   -20.0915    15.1638 C.3        2 BB2          0.0000
    34 C8         0.3665   -19.1672    15.6060 C.3        2 BB2          0.0000
    35 C9         0.2437   -17.7887    15.0001 C.3        2 BB2          0.0000
    36 C10        1.1287   -17.1334    13.9982 C.3        2 BB2          0.0000
    37 C11        2.2944   -18.0030    13.5744 C.3        2 BB2          0.0000
    38 C12        1.9906   -18.9020    12.4020 C.3        2 BB2          0.0000
    39 H13        0.6595   -19.5130    10.7220 H          2 BB2          0.0000
    40 H14        1.9463   -21.1145    12.0650 H          2 BB2          0.0000
    41 H15       -0.1899   -20.7118    14.0090 H          2 BB2          0.0000
    42 H16        1.1262   -21.8914    14.0396 H          2 BB2          0.0000
    43 H17        1.6675   -20.8585    15.9619 H          2 BB2          0.0000
    44 H18        2.4778   -19.6661    14.9755 H          2 BB2          0.0000
    45 H19       -0.5566   -19.7280    15.4297 H          2 BB2          0.0000
    46 H20        0.4574   -19.0640    16.6981 H          2 BB2          0.0000
    47 H21       -0.8095   -17.6845    14.6516 H          2 BB2          0.0000
    48 H22        0.2254   -17.0916    15.8859 H          2 BB2          0.0000
    49 H23        0.5636   -16.7632    13.1249 H          2 BB2          0.0000
    50 H24        1.5367   -16.1885    14.4466 H          2 BB2          0.0000
    51 H25        3.0754   -17.2522    13.1758 H          2 BB2          0.0000
    52 H26        2.8919   -18.3869    14.3868 H          2 BB2          0.0000
    53 H27        2.8298   -18.8336    11.6167 H          2 BB2          0.0000
@<TRIPOS>BOND
     1      1      2 1
     2      1     14 1
     3      1     15 1
     4      1     16 1
     5      2      3 1
     6      3      4 ar
     7      3      8 ar
     8      4      5 ar
     9      4     17 1
    10      5      6 ar
    11      5     18 1
    12      6      7 ar
    13      6      9 1
    14      7      8 ar
    15      7     19 1
    16      8     20 1
    17      9     10 1
    18      9     11 1
    19      9     21 1
    20     10     27 1
    21     11     12 1
    22     11     13 1
    23     11     22 1
    24     12     13 1
    25     12     23 1
    26     12     24 1
    27     13     25 1
    28     13     26 1
    29     28     29 2
    30     29     30 1
    31     30     31 1
    32     30     38 1
    33     30     39 1
    34     31     32 1
    35     31     38 1
    36     31     40 1
    37     32     33 1
    38     32     41 1
    39     32     42 1
    40     33     34 1
    41     33     43 1
    42     33     44 1
    43     34     35 1
    44     34     45 1
    45     34     46 1
    46     35     36 1
    47     35     47 1
    48     35     48 1
    49     36     37 1
    50     36     49 1
    51     36     50 1
    52     37     38 1
    53     37     51 1
    54     37     52 1
    55     38     53 1
    56     10     29 am
@<TRIPOS>SUBSTRUCTURE
     1 BB1          10
     2 BB2          29
@<TRIPOS>MOLECULE
EN300-30341_i001_EN300-223795_i001_19_6_1
  40   42   2   0   0
SMALL
USER_CHARGES
@<TRIPOS>ATOM
     1 C1         1.1200   -11.3995     6.3181 C.3        1 BB1          0.0000
     2 O2         0.4471   -11.2454     7.5693 O.3        1 BB1          0.0000
     3 C3         0.4614   -12.3108     8.4128 C.ar       1 BB1          0.0000
     4 C4         1.1146   -13.4785     8.0464 C.ar       1 BB1          0.0000
     5 C5         1.1276   -14.5601     8.9057 C.ar       1 BB1          0.0000
     6 C6         0.4904   -14.4795    10.1301 C.ar       1 BB1          0.0000
     7 C7        -0.1618   -13.3169    10.4975 C.ar       1 BB1          0.0000
     8 C8        -0.1723   -12.2304     9.6443 C.ar       1 BB1          0.0000
     9 C9         0.5062   -15.6608    11.0656 C.3        1 BB1          0.0000
    10 N10        0.0182   -16.8522    10.3581 N.am       1 BB1          0.0000
    11 C11       -0.3989   -15.3736    12.2653 C.3        1 BB1          0.0000
    12 C12       -0.6135   -16.5031    13.2748 C.3        1 BB1          0.0000
    13 C13        0.2584   -15.3016    13.6450 C.3        1 BB1          0.0000
    14 H14        0.6680   -12.2202     5.7610 H          1 BB1          0.0000
    15 H15        1.0324   -10.4780     5.7425 H          1 BB1          0.0000
    16 H16        2.1729   -11.6179     6.4963 H          1 BB1          0.0000
    17 H17        1.6123   -13.5421     7.0900 H          1 BB1          0.0000
    18 H18        1.6358   -15.4696     8.6208 H          1 BB1          0.0000
    19 H19       -0.6595   -13.2567    11.4540 H          1 BB1          0.0000
    20 H20       -0.6819   -11.3226     9.9316 H          1 BB1          0.0000
    21 H21        1.5245   -15.8361    11.4125 H          1 BB1          0.0000
    22 H22       -1.2380   -14.7054    12.0717 H          1 BB1          0.0000
    23 H23       -1.5937   -16.5777    13.7457 H          1 BB1          0.0000
    24 H24       -0.1099   -17.4508    13.0843 H          1 BB1          0.0000
    25 H25        1.3358   -15.4589    13.6979 H          1 BB1          0.0000
    26 H26       -0.1480   -14.5858    14.3594 H          1 BB1          0.0000
    27 H27        0.7829   -17.2866     9.8636 H          1 BB1          0.0000
    28 O1        -1.0523   -17.8834    11.8907 O.2        2 BB2          0.0000
    29 C2        -0.1310   -18.6893    11.8889 C.2        2 BB2          0.0000
    30 C4         0.5803   -18.9932    13.1358 C.2        2 BB2          0.0000
    31 C5         1.2511   -17.9935    13.9358 C.2        2 BB2          0.0000
    32 C6         1.8272   -18.4953    15.0204 C.2        2 BB2          0.0000
    33 S7         1.5717   -20.2292    15.1109 S.3        2 BB2          0.0000
    34 C8         0.6724   -20.2468    13.6631 C.2        2 BB2          0.0000
    35 C9         0.0684   -21.4816    13.0457 C.3        2 BB2          0.0000
    36 F10       -1.3262   -21.3709    13.0504 F          2 BB2          0.0000
    37 F11        0.5213   -21.6137    11.7286 F          2 BB2          0.0000
    38 F12        0.4494   -22.6066    13.7848 F          2 BB2          0.0000
    39 H13        1.2806   -16.9454    13.6770 H          2 BB2          0.0000
    40 H14        2.3776   -17.9166    15.7474 H          2 BB2          0.0000
@<TRIPOS>BOND
     1      1      2 1
     2      1     14 1
     3      1     15 1
     4      1     16 1
     5      2      3 1
     6      3      4 ar
     7      3      8 ar
     8      4      5 ar
     9      4     17 1
    10      5      6 ar
    11      5     18 1
    12      6      7 ar
    13      6      9 1
    14      7      8 ar
    15      7     19 1
    16      8     20 1
    17      9     10 1
    18      9     11 1
    19      9     21 1
    20     10     27 1
    21     11     12 1
    22     11     13 1
    23     11     22 1
    24     12     13 1
    25     12     23 1
    26     12     24 1
    27     13     25 1
    28     13     26 1
    29     28     29 2
    30     29     30 1
    31     30     31 1
    32     30     34 2
    33     31     32 2
    34     31     39 1
    35     32     33 1
    36     32     40 1
    37     33     34 1
    38     34     35 1
    39     35     36 1
    40     35     37 1
    41     35     38 1
    42     10     29 am
@<TRIPOS>SUBSTRUCTURE
     1 BB1          10
     2 BB2          29
@<TRIPOS>MOLECULE
EN300-30341_i001_EN300-223795_i001_19_9_1
  40   42   2   0   0
SMALL
USER_CHARGES
@<TRIPOS>ATOM
     1 C1         1.1200   -11.3995     6.3181 C.3        1 BB1          0.0000
     2 O2         0.4471   -11.2454     7.5693 O.3        1 BB1          0.0000
     3 C3         0.4614   -12.3108     8.4128 C.ar       1 BB1          0.0000
     4 C4         1.1146   -13.4785     8.0464 C.ar       1 BB1          0.0000
     5 C5         1.1276   -14.5601     8.9057 C.ar       1 BB1          0.0000
     6 C6         0.4904   -14.4795    10.1301 C.ar       1 BB1          0.0000
     7 C7        -0.1618   -13.3169    10.4975 C.ar       1 BB1          0.0000
     8 C8        -0.1723   -12.2304     9.6443 C.ar       1 BB1          0.0000
     9 C9         0.5062   -15.6608    11.0656 C.3        1 BB1          0.0000
    10 N10        0.0182   -16.8522    10.3581 N.am       1 BB1          0.0000
    11 C11       -0.3989   -15.3736    12.2653 C.3        1 BB1          0.0000
    12 C12       -0.6135   -16.5031    13.2748 C.3        1 BB1          0.0000
    13 C13        0.2584   -15.3016    13.6450 C.3        1 BB1          0.0000
    14 H14        0.6680   -12.2202     5.7610 H          1 BB1          0.0000
    15 H15        1.0324   -10.4780     5.7425 H          1 BB1          0.0000
    16 H16        2.1729   -11.6179     6.4963 H          1 BB1          0.0000
    17 H17        1.6123   -13.5421     7.0900 H          1 BB1          0.0000
    18 H18        1.6358   -15.4696     8.6208 H          1 BB1          0.0000
    19 H19       -0.6595   -13.2567    11.4540 H          1 BB1          0.0000
    20 H20       -0.6819   -11.3226     9.9316 H          1 BB1          0.0000
    21 H21        1.5245   -15.8361    11.4125 H          1 BB1          0.0000
    22 H22       -1.2380   -14.7054    12.0717 H          1 BB1          0.0000
    23 H23       -1.5937   -16.5777    13.7457 H          1 BB1          0.0000
    24 H24       -0.1099   -17.4508    13.0843 H          1 BB1          0.0000
    25 H25        1.3358   -15.4589    13.6979 H          1 BB1          0.0000
    26 H26       -0.1480   -14.5858    14.3594 H          1 BB1          0.0000
    27 H27        0.7829   -17.2866     9.8636 H          1 BB1          0.0000
    28 C2        -0.1464   -19.0876    11.8487 C.2        2 BB2          0.0000
    29 O3        -0.9968   -18.2294    12.0449 O.2        2 BB2          0.0000
    30 C4         0.5117   -19.7418    12.9853 C.2        2 BB2          0.0000
    31 C5         0.4734   -21.1681    13.2166 C.2        2 BB2          0.0000
    32 C6         1.1374   -21.5371    14.3043 C.2        2 BB2          0.0000
    33 S7         1.8450   -20.1424    15.1003 S.3        2 BB2          0.0000
    34 C8         1.2276   -19.0683    13.9297 C.2        2 BB2          0.0000
    35 C9         1.4375   -17.5761    13.9419 C.3        2 BB2          0.0000
    36 F10        2.2838   -17.2328    15.0017 F          2 BB2          0.0000
    37 F11        2.0182   -17.1770    12.7333 F          2 BB2          0.0000
    38 F12        0.2053   -16.9331    14.1020 F          2 BB2          0.0000
    39 H13       -0.0431   -21.8623    12.5704 H          2 BB2          0.0000
    40 H14        1.2297   -22.5554    14.6519 H          2 BB2          0.0000
@<TRIPOS>BOND
     1      1      2 1
     2      1     14 1
     3      1     15 1
     4      1     16 1
     5      2      3 1
     6      3      4 ar
     7      3      8 ar
     8      4      5 ar
     9      4     17 1
    10      5      6 ar
    11      5     18 1
    12      6      7 ar
    13      6      9 1
    14      7      8 ar
    15      7     19 1
    16      8     20 1
    17      9     10 1
    18      9     11 1
    19      9     21 1
    20     10     27 1
    21     11     12 1
    22     11     13 1
    23     11     22 1
    24     12     13 1
    25     12     23 1
    26     12     24 1
    27     13     25 1
    28     13     26 1
    29     28     29 2
    30     28     30 1
    31     30     31 1
    32     30     34 2
    33     31     32 2
    34     31     39 1
    35     32     33 1
    36     32     40 1
    37     33     34 1
    38     34     35 1
    39     35     36 1
    40     35     37 1
    41     35     38 1
    42     10     28 am
@<TRIPOS>SUBSTRUCTURE
     1 BB1          10
     2 BB2          28
@<TRIPOS>MOLECULE
EN300-30341_i001_EN300-344045_i001_19_4_1
  56   59   2   0   0
SMALL
USER_CHARGES
@<TRIPOS>ATOM
     1 C1         1.1200   -11.3995     6.3181 C.3        1 BB1          0.0000
     2 O2         0.4471   -11.2454     7.5693 O.3        1 BB1          0.0000
     3 C3         0.4614   -12.3108     8.4128 C.ar       1 BB1          0.0000
     4 C4         1.1146   -13.4785     8.0464 C.ar       1 BB1          0.0000
     5 C5         1.1276   -14.5601     8.9057 C.ar       1 BB1          0.0000
     6 C6         0.4904   -14.4795    10.1301 C.ar       1 BB1          0.0000
     7 C7        -0.1618   -13.3169    10.4975 C.ar       1 BB1          0.0000
     8 C8        -0.1723   -12.2304     9.6443 C.ar       1 BB1          0.0000
     9 C9         0.5062   -15.6608    11.0656 C.3        1 BB1          0.0000
    10 N10        0.0182   -16.8522    10.3581 N.am       1 BB1          0.0000
    11 C11       -0.3989   -15.3736    12.2653 C.3        1 BB1          0.0000
    12 C12       -0.6135   -16.5031    13.2748 C.3        1 BB1          0.0000
    13 C13        0.2584   -15.3016    13.6450 C.3        1 BB1          0.0000
    14 H14        0.6680   -12.2202     5.7610 H          1 BB1          0.0000
    15 H15        1.0324   -10.4780     5.7425 H          1 BB1          0.0000
    16 H16        2.1729   -11.6179     6.4963 H          1 BB1          0.0000
    17 H17        1.6123   -13.5421     7.0900 H          1 BB1          0.0000
    18 H18        1.6358   -15.4696     8.6208 H          1 BB1          0.0000
    19 H19       -0.6595   -13.2567    11.4540 H          1 BB1          0.0000
    20 H20       -0.6819   -11.3226     9.9316 H          1 BB1          0.0000
    21 H21        1.5245   -15.8361    11.4125 H          1 BB1          0.0000
    22 H22       -1.2380   -14.7054    12.0717 H          1 BB1          0.0000
    23 H23       -1.5937   -16.5777    13.7457 H          1 BB1          0.0000
    24 H24       -0.1099   -17.4508    13.0843 H          1 BB1          0.0000
    25 H25        1.3358   -15.4589    13.6979 H          1 BB1          0.0000
    26 H26       -0.1480   -14.5858    14.3594 H          1 BB1          0.0000
    27 H27        0.7829   -17.2866     9.8636 H          1 BB1          0.0000
    28 O1        -0.9415   -17.2386    12.5728 O.2        2 BB2          0.0000
    29 C2        -0.6967   -18.0795    11.7246 C.2        2 BB2          0.0000
    30 C4        -0.7278   -19.5429    12.0833 C.3        2 BB2          0.0000
    31 C5         0.4242   -19.8581    13.0395 C.3        2 BB2          0.0000
    32 C6         1.7722   -19.5057    12.3772 C.3        2 BB2          0.0000
    33 C7         2.0894   -18.0813    12.8961 C.3        2 BB2          0.0000
    34 C8         1.5989   -18.1352    14.3643 C.3        2 BB2          0.0000
    35 C9         0.3140   -18.9868    14.3029 C.3        2 BB2          0.0000
    36 C10        0.3990   -21.3177    13.4139 C.ar       2 BB2          0.0000
    37 C11       -0.6944   -22.0969    13.0851 C.ar       2 BB2          0.0000
    38 C12       -0.7175   -23.4356    13.4286 C.ar       2 BB2          0.0000
    39 C13        0.3532   -23.9954    14.1005 C.ar       2 BB2          0.0000
    40 C14        1.4470   -23.2164    14.4285 C.ar       2 BB2          0.0000
    41 C15        1.4719   -21.8786    14.0811 C.ar       2 BB2          0.0000
    42 H16       -1.6760   -19.7785    12.5666 H          2 BB2          0.0000
    43 H17       -0.6228   -20.1411    11.1781 H          2 BB2          0.0000
    44 H18        2.5458   -20.2068    12.6902 H          2 BB2          0.0000
    45 H19        1.6748   -19.5033    11.2915 H          2 BB2          0.0000
    46 H20        3.1607   -17.8843    12.8537 H          2 BB2          0.0000
    47 H21        1.5351   -17.3319    12.3310 H          2 BB2          0.0000
    48 H22        2.3446   -18.6150    14.9983 H          2 BB2          0.0000
    49 H23        1.3751   -17.1327    14.7288 H          2 BB2          0.0000
    50 H24       -0.5601   -18.3393    14.2348 H          2 BB2          0.0000
    51 H25        0.2426   -19.6193    15.1876 H          2 BB2          0.0000
    52 H26       -1.5309   -21.6596    12.5603 H          2 BB2          0.0000
    53 H27       -1.5721   -24.0442    13.1725 H          2 BB2          0.0000
    54 H28        0.3349   -25.0411    14.3695 H          2 BB2          0.0000
    55 H29        2.2834   -23.6535    14.9537 H          2 BB2          0.0000
    56 H30        2.3266   -21.2699    14.3374 H          2 BB2          0.0000
@<TRIPOS>BOND
     1      1      2 1
     2      1     14 1
     3      1     15 1
     4      1     16 1
     5      2      3 1
     6      3      4 ar
     7      3      8 ar
     8      4      5 ar
     9      4     17 1
    10      5      6 ar
    11      5     18 1
    12      6      7 ar
    13      6      9 1
    14      7      8 ar
    15      7     19 1
    16      8     20 1
    17      9     10 1
    18      9     11 1
    19      9     21 1
    20     10     27 1
    21     11     12 1
    22     11     13 1
    23     11     22 1
    24     12     13 1
    25     12     23 1
    26     12     24 1
    27     13     25 1
    28     13     26 1
    29     28     29 2
    30     29     30 1
    31     30     31 1
    32     30     42 1
    33     30     43 1
    34     31     32 1
    35     31     35 1
    36     31     36 1
    37     32     33 1
    38     32     44 1
    39     32     45 1
    40     33     34 1
    41     33     46 1
    42     33     47 1
    43     34     35 1
    44     34     48 1
    45     34     49 1
    46     35     50 1
    47     35     51 1
    48     36     37 ar
    49     36     41 ar
    50     37     38 ar
    51     37     52 1
    52     38     39 ar
    53     38     53 1
    54     39     40 ar
    55     39     54 1
    56     40     41 ar
    57     40     55 1
    58     41     56 1
    59     10     29 am
@<TRIPOS>SUBSTRUCTURE
     1 BB1          10
     2 BB2          29
@<TRIPOS>MOLECULE
EN300-30341_i001_EN300-223795_i001_4_6_1
  40   42   2   0   0
SMALL
USER_CHARGES
@<TRIPOS>ATOM
     1 C1        -2.9268   -11.0918    10.0133 C.3        1 BB1          0.0000
     2 O2        -1.5566   -11.2773     9.6528 O.3        1 BB1          0.0000
     3 C3        -0.9134   -12.3424    10.1995 C.ar       1 BB1          0.0000
     4 C4        -1.3555   -12.8800    11.3995 C.ar       1 BB1          0.0000
     5 C5        -0.6999   -13.9626    11.9531 C.ar       1 BB1          0.0000
     6 C6         0.3959   -14.5104    11.3122 C.ar       1 BB1          0.0000
     7 C7         0.8388   -13.9761    10.1163 C.ar       1 BB1          0.0000
     8 C8         0.1829   -12.8973     9.5555 C.ar       1 BB1          0.0000
     9 C9         1.1092   -15.6914    11.9183 C.3        1 BB1          0.0000
    10 N10        0.4658   -16.9341    11.4715 N.am       1 BB1          0.0000
    11 C11        1.0397   -15.6012    13.4441 C.3        1 BB1          0.0000
    12 C12       -0.0198   -16.4462    14.1543 C.3        1 BB1          0.0000
    13 C13        1.4568   -16.8365    14.2446 C.3        1 BB1          0.0000
    14 H14       -3.0037   -10.9581    11.0924 H          1 BB1          0.0000
    15 H15       -3.3189   -10.2087     9.5089 H          1 BB1          0.0000
    16 H16       -3.5030   -11.9673     9.7138 H          1 BB1          0.0000
    17 H17       -2.2113   -12.4524    11.9006 H          1 BB1          0.0000
    18 H18       -1.0435   -14.3814    12.8875 H          1 BB1          0.0000
    19 H19        1.6955   -14.4052     9.6180 H          1 BB1          0.0000
    20 H20        0.5292   -12.4803     8.6214 H          1 BB1          0.0000
    21 H21        2.1521   -15.6880    11.6014 H          1 BB1          0.0000
    22 H22        1.2717   -14.6242    13.8682 H          1 BB1          0.0000
    23 H23       -0.4846   -16.0254    15.0459 H          1 BB1          0.0000
    24 H24       -0.6673   -17.0664    13.5345 H          1 BB1          0.0000
    25 H25        1.7807   -17.7135    13.6842 H          1 BB1          0.0000
    26 H26        1.9635   -16.6725    15.1956 H          1 BB1          0.0000
    27 H28        1.1181   -17.4712    10.9201 H          1 BB1          0.0000
    28 O1        -1.0523   -17.8834    11.8907 O.2        2 BB2          0.0000
    29 C2        -0.1310   -18.6893    11.8889 C.2        2 BB2          0.0000
    30 C4         0.5803   -18.9932    13.1358 C.2        2 BB2          0.0000
    31 C5         1.2511   -17.9935    13.9358 C.2        2 BB2          0.0000
    32 C6         1.8272   -18.4953    15.0204 C.2        2 BB2          0.0000
    33 S7         1.5717   -20.2292    15.1109 S.3        2 BB2          0.0000
    34 C8         0.6724   -20.2468    13.6631 C.2        2 BB2          0.0000
    35 C9         0.0684   -21.4816    13.0457 C.3        2 BB2          0.0000
    36 F10       -1.3262   -21.3709    13.0504 F          2 BB2          0.0000
    37 F11        0.5213   -21.6137    11.7286 F          2 BB2          0.0000
    38 F12        0.4494   -22.6066    13.7848 F          2 BB2          0.0000
    39 H13        1.2806   -16.9454    13.6770 H          2 BB2          0.0000
    40 H14        2.3776   -17.9166    15.7474 H          2 BB2          0.0000
@<TRIPOS>BOND
     1      1      2 1
     2      1     14 1
     3      1     15 1
     4      1     16 1
     5      2      3 1
     6      3      4 ar
     7      3      8 ar
     8      4      5 ar
     9      4     17 1
    10      5      6 ar
    11      5     18 1
    12      6      7 ar
    13      6      9 1
    14      7      8 ar
    15      7     19 1
    16      8     20 1
    17      9     10 1
    18      9     11 1
    19      9     21 1
    20     10     27 1
    21     11     12 1
    22     11     13 1
    23     11     22 1
    24     12     13 1
    25     12     23 1
    26     12     24 1
    27     13     25 1
    28     13     26 1
    29     28     29 2
    30     29     30 1
    31     30     31 1
    32     30     34 2
    33     31     32 2
    34     31     39 1
    35     32     33 1
    36     32     40 1
    37     33     34 1
    38     34     35 1
    39     35     36 1
    40     35     37 1
    41     35     38 1
    42     10     29 am
@<TRIPOS>SUBSTRUCTURE
     1 BB1          10
     2 BB2          29
@<TRIPOS>MOLECULE
EN300-30341_i001_EN300-34862_i002_7_10_1
  39   41   2   0   0
SMALL
USER_CHARGES
@<TRIPOS>ATOM
     1 C1        -1.1857   -10.3398    10.5596 C.3        1 BB1          0.0000
     2 O2        -0.9122   -11.4404     9.6902 O.3        1 BB1          0.0000
     3 C3        -0.6007   -12.6267    10.2756 C.ar       1 BB1          0.0000
     4 C4        -1.0156   -12.8916    11.5726 C.ar       1 BB1          0.0000
     5 C5        -0.6976   -14.0981    12.1654 C.ar       1 BB1          0.0000
     6 C6         0.0336   -15.0413    11.4672 C.ar       1 BB1          0.0000
     7 C7         0.4488   -14.7795    10.1746 C.ar       1 BB1          0.0000
     8 C8         0.1279   -13.5769     9.5751 C.ar       1 BB1          0.0000
     9 C9         0.3791   -16.3567    12.1163 C.3        1 BB1          0.0000
    10 N10       -0.8564   -17.0820    12.4409 N.am       1 BB1          0.0000
    11 C11        1.1717   -16.0997    13.3995 C.3        1 BB1          0.0000
    12 C12        1.3340   -17.2668    14.3754 C.3        1 BB1          0.0000
    13 C13        2.5276   -16.7936    13.5434 C.3        1 BB1          0.0000
    14 H14       -0.3113   -10.1401    11.1789 H          1 BB1          0.0000
    15 H15       -1.4194    -9.4566     9.9652 H          1 BB1          0.0000
    16 H16       -2.0350   -10.5834    11.1979 H          1 BB1          0.0000
    17 H17       -1.5865   -12.1551    12.1185 H          1 BB1          0.0000
    18 H18       -1.0201   -14.3047    13.1752 H          1 BB1          0.0000
    19 H19        1.0204   -15.5175     9.6315 H          1 BB1          0.0000
    20 H20        0.4524   -13.3728     8.5654 H          1 BB1          0.0000
    21 H21        0.9811   -16.9532    11.4308 H          1 BB1          0.0000
    22 H22        1.0700   -15.1003    13.8226 H          1 BB1          0.0000
    23 H23        1.3396   -17.0353    15.4405 H          1 BB1          0.0000
    24 H24        0.8762   -18.2178    14.1032 H          1 BB1          0.0000
    25 H25        2.8550   -17.4333    12.7237 H          1 BB1          0.0000
    26 H26        3.3184   -16.2507    14.0610 H          1 BB1          0.0000
    27 H29       -0.6896   -17.6973    13.2230 H          1 BB1          0.0000
    28 C2        -0.3489   -19.7996    11.8809 C.2        2 BB2          0.0000
    29 O3         0.1780   -19.5632    10.8072 O.2        2 BB2          0.0000
    30 C4        -0.1440   -21.1381    12.5424 C.3        2 BB2          0.0000
    31 C5        -0.9105   -21.1624    13.8712 C.3        2 BB2          0.0000
    32 S6        -2.0718   -22.5518    13.6823 S.3        2 BB2          0.0000
    33 C7        -1.5627   -22.9965    12.0496 C.2        2 BB2          0.0000
    34 O8        -2.0284   -23.9088    11.3941 O.2        2 BB2          0.0000
    35 N9        -0.5927   -22.1803    11.6470 N.am       2 BB2          0.0000
    36 H10        0.9186   -21.2765    12.7422 H          2 BB2          0.0000
    37 H11       -0.2290   -21.3438    14.7024 H          2 BB2          0.0000
    38 H12       -1.4526   -20.2281    14.0170 H          2 BB2          0.0000
    39 H13       -0.1942   -22.2823    10.7686 H          2 BB2          0.0000
@<TRIPOS>BOND
     1      1      2 1
     2      1     14 1
     3      1     15 1
     4      1     16 1
     5      2      3 1
     6      3      4 ar
     7      3      8 ar
     8      4      5 ar
     9      4     17 1
    10      5      6 ar
    11      5     18 1
    12      6      7 ar
    13      6      9 1
    14      7      8 ar
    15      7     19 1
    16      8     20 1
    17      9     10 1
    18      9     11 1
    19      9     21 1
    20     10     27 1
    21     11     12 1
    22     11     13 1
    23     11     22 1
    24     12     13 1
    25     12     23 1
    26     12     24 1
    27     13     25 1
    28     13     26 1
    29     28     29 2
    30     28     30 1
    31     30     31 1
    32     30     35 1
    33     30     36 1
    34     31     32 1
    35     31     37 1
    36     31     38 1
    37     32     33 1
    38     33     34 2
    39     33     35 am
    40     35     39 1
    41     10     28 am
@<TRIPOS>SUBSTRUCTURE
     1 BB1          10
     2 BB2          28
@<TRIPOS>MOLECULE
EN300-30341_i001_EN300-107901_i001_7_14_1
  53   56   2   0   0
SMALL
USER_CHARGES
@<TRIPOS>ATOM
     1 C1        -1.1857   -10.3398    10.5596 C.3        1 BB1          0.0000
     2 O2        -0.9122   -11.4404     9.6902 O.3        1 BB1          0.0000
     3 C3        -0.6007   -12.6267    10.2756 C.ar       1 BB1          0.0000
     4 C4        -1.0156   -12.8916    11.5726 C.ar       1 BB1          0.0000
     5 C5        -0.6976   -14.0981    12.1654 C.ar       1 BB1          0.0000
     6 C6         0.0336   -15.0413    11.4672 C.ar       1 BB1          0.0000
     7 C7         0.4488   -14.7795    10.1746 C.ar       1 BB1          0.0000
     8 C8         0.1279   -13.5769     9.5751 C.ar       1 BB1          0.0000
     9 C9         0.3791   -16.3567    12.1163 C.3        1 BB1          0.0000
    10 N10       -0.8564   -17.0820    12.4409 N.am       1 BB1          0.0000
    11 C11        1.1717   -16.0997    13.3995 C.3        1 BB1          0.0000
    12 C12        1.3340   -17.2668    14.3754 C.3        1 BB1          0.0000
    13 C13        2.5276   -16.7936    13.5434 C.3        1 BB1          0.0000
    14 H14       -0.3113   -10.1401    11.1789 H          1 BB1          0.0000
    15 H15       -1.4194    -9.4566     9.9652 H          1 BB1          0.0000
    16 H16       -2.0350   -10.5834    11.1979 H          1 BB1          0.0000
    17 H17       -1.5865   -12.1551    12.1185 H          1 BB1          0.0000
    18 H18       -1.0201   -14.3047    13.1752 H          1 BB1          0.0000
    19 H19        1.0204   -15.5175     9.6315 H          1 BB1          0.0000
    20 H20        0.4524   -13.3728     8.5654 H          1 BB1          0.0000
    21 H21        0.9811   -16.9532    11.4308 H          1 BB1          0.0000
    22 H22        1.0700   -15.1003    13.8226 H          1 BB1          0.0000
    23 H23        1.3396   -17.0353    15.4405 H          1 BB1          0.0000
    24 H24        0.8762   -18.2178    14.1032 H          1 BB1          0.0000
    25 H25        2.8550   -17.4333    12.7237 H          1 BB1          0.0000
    26 H26        3.3184   -16.2507    14.0610 H          1 BB1          0.0000
    27 H28       -1.1475   -17.6251    11.6419 H          1 BB1          0.0000
    28 C2        -0.2112   -19.3730    13.6728 C.2        2 BB2          0.0000
    29 O3        -0.2933   -19.2397    14.8820 O.2        2 BB2          0.0000
    30 C4         0.9797   -20.0451    13.0754 C.3        2 BB2          0.0000
    31 C5         0.7789   -21.1029    12.0033 C.3        2 BB2          0.0000
    32 C6        -0.6011   -21.4491    11.5202 C.3        2 BB2          0.0000
    33 C7        -1.0687   -22.8022    12.1671 C.3        2 BB2          0.0000
    34 C8        -2.1119   -22.2542    13.2046 C.3        2 BB2          0.0000
    35 C9        -1.6431   -21.8882    14.5934 C.3        2 BB2          0.0000
    36 C10       -0.2703   -21.9777    15.1628 C.3        2 BB2          0.0000
    37 C11        0.7467   -22.5237    14.1819 C.3        2 BB2          0.0000
    38 C12        1.4004   -21.4658    13.3283 C.3        2 BB2          0.0000
    39 H13        1.8063   -19.3226    12.8705 H          2 BB2          0.0000
    40 H14        1.4998   -21.0308    11.1347 H          2 BB2          0.0000
    41 H15       -1.3314   -20.6776    11.7382 H          2 BB2          0.0000
    42 H16       -0.5859   -21.6033    10.4298 H          2 BB2          0.0000
    43 H17       -1.6564   -23.3338    11.3862 H          2 BB2          0.0000
    44 H18       -0.3114   -23.4212    12.4973 H          2 BB2          0.0000
    45 H19       -2.5982   -21.3894    12.7428 H          2 BB2          0.0000
    46 H20       -2.8869   -23.0314    13.2890 H          2 BB2          0.0000
    47 H21       -2.0404   -20.8695    14.8077 H          2 BB2          0.0000
    48 H22       -2.2938   -22.4998    15.2815 H          2 BB2          0.0000
    49 H23        0.0623   -21.0182    15.5960 H          2 BB2          0.0000
    50 H24       -0.2987   -22.6555    16.0572 H          2 BB2          0.0000
    51 H25        1.5953   -22.9279    14.8520 H          2 BB2          0.0000
    52 H26        0.4807   -23.4678    13.7322 H          2 BB2          0.0000
    53 H27        2.5427   -21.6098    13.3168 H          2 BB2          0.0000
@<TRIPOS>BOND
     1      1      2 1
     2      1     14 1
     3      1     15 1
     4      1     16 1
     5      2      3 1
     6      3      4 ar
     7      3      8 ar
     8      4      5 ar
     9      4     17 1
    10      5      6 ar
    11      5     18 1
    12      6      7 ar
    13      6      9 1
    14      7      8 ar
    15      7     19 1
    16      8     20 1
    17      9     10 1
    18      9     11 1
    19      9     21 1
    20     10     27 1
    21     11     12 1
    22     11     13 1
    23     11     22 1
    24     12     13 1
    25     12     23 1
    26     12     24 1
    27     13     25 1
    28     13     26 1
    29     28     29 2
    30     28     30 1
    31     30     31 1
    32     30     38 1
    33     30     39 1
    34     31     32 1
    35     31     38 1
    36     31     40 1
    37     32     33 1
    38     32     41 1
    39     32     42 1
    40     33     34 1
    41     33     43 1
    42     33     44 1
    43     34     35 1
    44     34     45 1
    45     34     46 1
    46     35     36 1
    47     35     47 1
    48     35     48 1
    49     36     37 1
    50     36     49 1
    51     36     50 1
    52     37     38 1
    53     37     51 1
    54     37     52 1
    55     38     53 1
    56     10     28 am
@<TRIPOS>SUBSTRUCTURE
     1 BB1          10
     2 BB2          28
@<TRIPOS>MOLECULE
EN300-30341_i001_EN300-344045_i001_7_19_1
  56   59   2   0   0
SMALL
USER_CHARGES
@<TRIPOS>ATOM
     1 C1        -1.1857   -10.3398    10.5596 C.3        1 BB1          0.0000
     2 O2        -0.9122   -11.4404     9.6902 O.3        1 BB1          0.0000
     3 C3        -0.6007   -12.6267    10.2756 C.ar       1 BB1          0.0000
     4 C4        -1.0156   -12.8916    11.5726 C.ar       1 BB1          0.0000
     5 C5        -0.6976   -14.0981    12.1654 C.ar       1 BB1          0.0000
     6 C6         0.0336   -15.0413    11.4672 C.ar       1 BB1          0.0000
     7 C7         0.4488   -14.7795    10.1746 C.ar       1 BB1          0.0000
     8 C8         0.1279   -13.5769     9.5751 C.ar       1 BB1          0.0000
     9 C9         0.3791   -16.3567    12.1163 C.3        1 BB1          0.0000
    10 N10       -0.8564   -17.0820    12.4409 N.am       1 BB1          0.0000
    11 C11        1.1717   -16.0997    13.3995 C.3        1 BB1          0.0000
    12 C12        1.3340   -17.2668    14.3754 C.3        1 BB1          0.0000
    13 C13        2.5276   -16.7936    13.5434 C.3        1 BB1          0.0000
    14 H14       -0.3113   -10.1401    11.1789 H          1 BB1          0.0000
    15 H15       -1.4194    -9.4566     9.9652 H          1 BB1          0.0000
    16 H16       -2.0350   -10.5834    11.1979 H          1 BB1          0.0000
    17 H17       -1.5865   -12.1551    12.1185 H          1 BB1          0.0000
    18 H18       -1.0201   -14.3047    13.1752 H          1 BB1          0.0000
    19 H19        1.0204   -15.5175     9.6315 H          1 BB1          0.0000
    20 H20        0.4524   -13.3728     8.5654 H          1 BB1          0.0000
    21 H21        0.9811   -16.9532    11.4308 H          1 BB1          0.0000
    22 H22        1.0700   -15.1003    13.8226 H          1 BB1          0.0000
    23 H23        1.3396   -17.0353    15.4405 H          1 BB1          0.0000
    24 H24        0.8762   -18.2178    14.1032 H          1 BB1          0.0000
    25 H25        2.8550   -17.4333    12.7237 H          1 BB1          0.0000
    26 H26        3.3184   -16.2507    14.0610 H          1 BB1          0.0000
    27 H27       -1.5809   -16.4219    12.6808 H          1 BB1          0.0000
    28 O1         1.1613   -18.1381    14.4581 O.2        2 BB2          0.0000
    29 C2         0.0841   -18.4694    14.9231 C.2        2 BB2          0.0000
    30 C4        -0.1235   -19.8794    15.4130 C.3        2 BB2          0.0000
    31 C5        -0.1066   -20.8405    14.2228 C.3        2 BB2          0.0000
    32 C6        -1.2264   -20.4700    13.2284 C.3        2 BB2          0.0000
    33 C7        -0.5199   -19.5817    12.1745 C.3        2 BB2          0.0000
    34 C8         0.8631   -20.2629    12.0251 C.3        2 BB2          0.0000
    35 C9         1.2218   -20.7089    13.4577 C.3        2 BB2          0.0000
    36 C10       -0.2896   -22.2578    14.7015 C.ar       2 BB2          0.0000
    37 C11       -0.5323   -22.5096    16.0388 C.ar       2 BB2          0.0000
    38 C12       -0.7001   -23.8096    16.4779 C.ar       2 BB2          0.0000
    39 C13       -0.6258   -24.8576    15.5795 C.ar       2 BB2          0.0000
    40 C14       -0.3840   -24.6056    14.2421 C.ar       2 BB2          0.0000
    41 C15       -0.2206   -23.3053    13.8022 C.ar       2 BB2          0.0000
    42 H16        0.6753   -20.1447    16.1057 H          2 BB2          0.0000
    43 H17       -1.0845   -19.9491    15.9228 H          2 BB2          0.0000
    44 H18       -1.6333   -21.3665    12.7607 H          2 BB2          0.0000
    45 H19       -2.0145   -19.9104    13.7324 H          2 BB2          0.0000
    46 H20       -1.0626   -19.5978    11.2293 H          2 BB2          0.0000
    47 H21       -0.4101   -18.5609    12.5407 H          2 BB2          0.0000
    48 H22        0.7938   -21.1260    11.3630 H          2 BB2          0.0000
    49 H23        1.6001   -19.5522    11.6510 H          2 BB2          0.0000
    50 H24        1.8546   -19.9602    13.9343 H          2 BB2          0.0000
    51 H25        1.7348   -21.6703    13.4321 H          2 BB2          0.0000
    52 H26       -0.5903   -21.6909    16.7407 H          2 BB2          0.0000
    53 H27       -0.8889   -24.0065    17.5229 H          2 BB2          0.0000
    54 H28       -0.7562   -25.8733    15.9227 H          2 BB2          0.0000
    55 H29       -0.3257   -25.4244    13.5402 H          2 BB2          0.0000
    56 H30       -0.0317   -23.1084    12.7572 H          2 BB2          0.0000
@<TRIPOS>BOND
     1      1      2 1
     2      1     14 1
     3      1     15 1
     4      1     16 1
     5      2      3 1
     6      3      4 ar
     7      3      8 ar
     8      4      5 ar
     9      4     17 1
    10      5      6 ar
    11      5     18 1
    12      6      7 ar
    13      6      9 1
    14      7      8 ar
    15      7     19 1
    16      8     20 1
    17      9     10 1
    18      9     11 1
    19      9     21 1
    20     10     27 1
    21     11     12 1
    22     11     13 1
    23     11     22 1
    24     12     13 1
    25     12     23 1
    26     12     24 1
    27     13     25 1
    28     13     26 1
    29     28     29 2
    30     29     30 1
    31     30     31 1
    32     30     42 1
    33     30     43 1
    34     31     32 1
    35     31     35 1
    36     31     36 1
    37     32     33 1
    38     32     44 1
    39     32     45 1
    40     33     34 1
    41     33     46 1
    42     33     47 1
    43     34     35 1
    44     34     48 1
    45     34     49 1
    46     35     50 1
    47     35     51 1
    48     36     37 ar
    49     36     41 ar
    50     37     38 ar
    51     37     52 1
    52     38     39 ar
    53     38     53 1
    54     39     40 ar
    55     39     54 1
    56     40     41 ar
    57     40     55 1
    58     41     56 1
    59     10     29 am
@<TRIPOS>SUBSTRUCTURE
     1 BB1          10
     2 BB2          29
@<TRIPOS>MOLECULE
EN300-269527_i002_EN300-1165841_i001_4_18_1
  58   60   2   0   0
SMALL
USER_CHARGES
@<TRIPOS>ATOM
     1 C1        -1.9665   -10.2620    11.5795 C.3        1 BB1          0.0000
     2 C2        -0.5451    -9.9013    11.1367 C.3        1 BB1          0.0000
     3 C3        -0.0266   -10.9867    10.1884 C.3        1 BB1          0.0000
     4 C4        -0.9877   -11.1206     9.0043 C.3        1 BB1          0.0000
     5 O5        -2.2972   -11.4262     9.4877 O.3        1 BB1          0.0000
     6 C6        -2.8525   -10.4240    10.3417 C.3        1 BB1          0.0000
     7 C7        -0.5088   -12.2443     8.0830 C.3        1 BB1          0.0000
     8 C8         0.8284   -11.8508     7.4488 C.3        1 BB1          0.0000
     9 C9         1.3370   -13.0129     6.5909 C.3        1 BB1          0.0000
    10 C10        1.4538   -14.2676     7.4591 C.3        1 BB1          0.0000
    11 N11        0.1382   -14.6068     8.0147 N.am       1 BB1          0.0000
    12 C12       -0.3235   -13.5275     8.8958 C.3        1 BB1          0.0000
    13 H13       -1.9473   -11.1974    12.1387 H          1 BB1          0.0000
    14 H14       -2.3640    -9.4674    12.2107 H          1 BB1          0.0000
    15 H15       -0.5567    -8.9413    10.6205 H          1 BB1          0.0000
    16 H16        0.1043    -9.8394    12.0099 H          1 BB1          0.0000
    17 H17        0.9631   -10.7103     9.8248 H          1 BB1          0.0000
    18 H18        0.0317   -11.9368    10.7195 H          1 BB1          0.0000
    19 H19       -1.0145   -10.1825     8.4501 H          1 BB1          0.0000
    20 H20       -3.8549   -10.7226    10.6487 H          1 BB1          0.0000
    21 H21       -2.9038    -9.4767     9.8049 H          1 BB1          0.0000
    22 H22       -1.2478   -12.4124     7.2995 H          1 BB1          0.0000
    23 H23        0.6896   -10.9693     6.8230 H          1 BB1          0.0000
    24 H24        1.5533   -11.6321     8.2329 H          1 BB1          0.0000
    25 H25        0.6365   -13.1978     5.7765 H          1 BB1          0.0000
    26 H26        2.3151   -12.7617     6.1807 H          1 BB1          0.0000
    27 H27        1.8158   -15.0969     6.8514 H          1 BB1          0.0000
    28 H28        2.1546   -14.0817     8.2730 H          1 BB1          0.0000
    29 H29        0.4151   -13.3574     9.6791 H          1 BB1          0.0000
    30 H30       -1.2738   -13.8104     9.3489 H          1 BB1          0.0000
    31 C1         1.3966   -14.2800     9.9920 C.3        2 BB2          0.0000
    32 C2         0.2518   -15.2819    10.1545 C.3        2 BB2          0.0000
    33 N3         0.6693   -16.3598    11.0610 N.4        2 BB2          1.0000
    34 C4        -0.4874   -17.2057    11.3786 C.3        2 BB2          0.0000
    35 C5        -0.0421   -18.3766    12.2572 C.3        2 BB2          0.0000
    36 C6         0.5657   -17.8327    13.5534 C.3        2 BB2          0.0000
    37 O7        -0.4306   -17.1141    14.2835 O.3        2 BB2          0.0000
    38 C8         1.7244   -16.8931    13.2074 C.3        2 BB2          0.0000
    39 C9         1.2135   -15.7772    12.2935 C.3        2 BB2          0.0000
    40 C10        1.0639   -18.9511    14.3706 C.1        2 BB2          0.0000
    41 C11        1.4612   -19.8431    15.0224 C.1        2 BB2          0.0000
    42 C12       -0.1007   -15.8644     8.8102 C.2        2 BB2          0.0000
    43 O13       -0.3651   -15.1264     7.8763 O.2        2 BB2          0.0000
    44 H15        2.2672   -14.7875     9.5764 H          2 BB2          0.0000
    45 H16        1.0868   -13.4802     9.3193 H          2 BB2          0.0000
    46 H17        1.6516   -13.8587    10.9644 H          2 BB2          0.0000
    47 H18       -0.6189   -14.7745    10.5701 H          2 BB2          0.0000
    48 H19       -1.2333   -16.6156    11.9110 H          2 BB2          0.0000
    49 H20       -0.9208   -17.5894    10.4549 H          2 BB2          0.0000
    50 H21       -0.9027   -19.0025    12.4933 H          2 BB2          0.0000
    51 H22        0.7037   -18.9676    11.7255 H          2 BB2          0.0000
    52 H23        2.1265   -16.4587    14.1226 H          2 BB2          0.0000
    53 H24        2.5068   -17.4534    12.6954 H          2 BB2          0.0000
    54 H25        2.0359   -15.1063    12.0454 H          2 BB2          0.0000
    55 H26        0.4315   -15.2175    12.8066 H          2 BB2          0.0000
    56 H27        1.8166   -20.6408    15.6053 H          2 BB2          0.0000
    57 H28       -1.2926   -17.5517    14.3077 H          2 BB2          0.0000
    58 H29        1.3802   -16.9182    10.6130 H          2 BB2          0.0000
@<TRIPOS>BOND
     1      1      2 1
     2      1      6 1
     3      1     13 1
     4      1     14 1
     5      2      3 1
     6      2     15 1
     7      2     16 1
     8      3      4 1
     9      3     17 1
    10      3     18 1
    11      4      5 1
    12      4      7 1
    13      4     19 1
    14      5      6 1
    15      6     20 1
    16      6     21 1
    17      7      8 1
    18      7     12 1
    19      7     22 1
    20      8      9 1
    21      8     23 1
    22      8     24 1
    23      9     10 1
    24      9     25 1
    25      9     26 1
    26     10     11 1
    27     10     27 1
    28     10     28 1
    29     11     12 1
    30     12     29 1
    31     12     30 1
    32     31     32 1
    33     31     44 1
    34     31     45 1
    35     31     46 1
    36     32     33 1
    37     32     42 1
    38     32     47 1
    39     33     34 1
    40     33     39 1
    41     33     58 1
    42     34     35 1
    43     34     48 1
    44     34     49 1
    45     35     36 1
    46     35     50 1
    47     35     51 1
    48     36     37 1
    49     36     38 1
    50     36     40 1
    51     37     57 1
    52     38     39 1
    53     38     52 1
    54     38     53 1
    55     39     54 1
    56     39     55 1
    57     40     41 3
    58     41     56 1
    59     42     43 2
    60     11     42 am
@<TRIPOS>SUBSTRUCTURE
     1 BB1          11
     2 BB2          42
@<TRIPOS>MOLECULE
EN300-269527_i002_EN300-1165841_i001_4_20_1
  58   60   2   0   0
SMALL
USER_CHARGES
@<TRIPOS>ATOM
     1 C1        -1.9665   -10.2620    11.5795 C.3        1 BB1          0.0000
     2 C2        -0.5451    -9.9013    11.1367 C.3        1 BB1          0.0000
     3 C3        -0.0266   -10.9867    10.1884 C.3        1 BB1          0.0000
     4 C4        -0.9877   -11.1206     9.0043 C.3        1 BB1          0.0000
     5 O5        -2.2972   -11.4262     9.4877 O.3        1 BB1          0.0000
     6 C6        -2.8525   -10.4240    10.3417 C.3        1 BB1          0.0000
     7 C7        -0.5088   -12.2443     8.0830 C.3        1 BB1          0.0000
     8 C8         0.8284   -11.8508     7.4488 C.3        1 BB1          0.0000
     9 C9         1.3370   -13.0129     6.5909 C.3        1 BB1          0.0000
    10 C10        1.4538   -14.2676     7.4591 C.3        1 BB1          0.0000
    11 N11        0.1382   -14.6068     8.0147 N.am       1 BB1          0.0000
    12 C12       -0.3235   -13.5275     8.8958 C.3        1 BB1          0.0000
    13 H13       -1.9473   -11.1974    12.1387 H          1 BB1          0.0000
    14 H14       -2.3640    -9.4674    12.2107 H          1 BB1          0.0000
    15 H15       -0.5567    -8.9413    10.6205 H          1 BB1          0.0000
    16 H16        0.1043    -9.8394    12.0099 H          1 BB1          0.0000
    17 H17        0.9631   -10.7103     9.8248 H          1 BB1          0.0000
    18 H18        0.0317   -11.9368    10.7195 H          1 BB1          0.0000
    19 H19       -1.0145   -10.1825     8.4501 H          1 BB1          0.0000
    20 H20       -3.8549   -10.7226    10.6487 H          1 BB1          0.0000
    21 H21       -2.9038    -9.4767     9.8049 H          1 BB1          0.0000
    22 H22       -1.2478   -12.4124     7.2995 H          1 BB1          0.0000
    23 H23        0.6896   -10.9693     6.8230 H          1 BB1          0.0000
    24 H24        1.5533   -11.6321     8.2329 H          1 BB1          0.0000
    25 H25        0.6365   -13.1978     5.7765 H          1 BB1          0.0000
    26 H26        2.3151   -12.7617     6.1807 H          1 BB1          0.0000
    27 H27        1.8158   -15.0969     6.8514 H          1 BB1          0.0000
    28 H28        2.1546   -14.0817     8.2730 H          1 BB1          0.0000
    29 H29        0.4151   -13.3574     9.6791 H          1 BB1          0.0000
    30 H30       -1.2738   -13.8104     9.3489 H          1 BB1          0.0000
    31 C1         2.5764   -14.3098    10.1170 C.3        2 BB2          0.0000
    32 C2         1.1323   -14.6517    10.4890 C.3        2 BB2          0.0000
    33 N3         1.1179   -15.8348    11.3597 N.4        2 BB2          1.0000
    34 C4        -0.2523   -16.0819    11.8244 C.3        2 BB2          0.0000
    35 C5        -0.2871   -17.3595    12.6659 C.3        2 BB2          0.0000
    36 C6         0.6411   -17.1947    13.8728 C.3        2 BB2          0.0000
    37 O7         0.1639   -16.1325    14.7010 O.3        2 BB2          0.0000
    38 C8         2.0521   -16.8639    13.3779 C.3        2 BB2          0.0000
    39 C9         2.0000   -15.6046    12.5101 C.3        2 BB2          0.0000
    40 C10        0.6699   -18.4469    14.6460 C.1        2 BB2          0.0000
    41 C11        0.6930   -19.4456    15.2629 C.1        2 BB2          0.0000
    42 C12        0.3457   -14.9402     9.2365 C.2        2 BB2          0.0000
    43 O13        0.1574   -14.0566     8.4177 O.2        2 BB2          0.0000
    44 H15        3.0257   -15.1528     9.5919 H          2 BB2          0.0000
    45 H16        2.5871   -13.4320     9.4709 H          2 BB2          0.0000
    46 H17        3.1454   -14.1011    11.0230 H          2 BB2          0.0000
    47 H18        0.6830   -13.8087    11.0141 H          2 BB2          0.0000
    48 H19       -0.5877   -15.2396    12.4295 H          2 BB2          0.0000
    49 H20       -0.9122   -16.1958    10.9644 H          2 BB2          0.0000
    50 H21       -1.3049   -17.5402    13.0114 H          2 BB2          0.0000
    51 H22        0.0479   -18.2025    12.0615 H          2 BB2          0.0000
    52 H23        2.7061   -16.6903    14.2323 H          2 BB2          0.0000
    53 H24        2.4355   -17.6966    12.7883 H          2 BB2          0.0000
    54 H25        3.0030   -15.3661    12.1562 H          2 BB2          0.0000
    55 H26        1.6167   -14.7725    13.1006 H          2 BB2          0.0000
    56 H27        0.7136   -20.3388    15.8144 H          2 BB2          0.0000
    57 H28       -0.7927   -16.1435    14.8426 H          2 BB2          0.0000
    58 H29        1.4460   -16.6362    10.8419 H          2 BB2          0.0000
@<TRIPOS>BOND
     1      1      2 1
     2      1      6 1
     3      1     13 1
     4      1     14 1
     5      2      3 1
     6      2     15 1
     7      2     16 1
     8      3      4 1
     9      3     17 1
    10      3     18 1
    11      4      5 1
    12      4      7 1
    13      4     19 1
    14      5      6 1
    15      6     20 1
    16      6     21 1
    17      7      8 1
    18      7     12 1
    19      7     22 1
    20      8      9 1
    21      8     23 1
    22      8     24 1
    23      9     10 1
    24      9     25 1
    25      9     26 1
    26     10     11 1
    27     10     27 1
    28     10     28 1
    29     11     12 1
    30     12     29 1
    31     12     30 1
    32     31     32 1
    33     31     44 1
    34     31     45 1
    35     31     46 1
    36     32     33 1
    37     32     42 1
    38     32     47 1
    39     33     34 1
    40     33     39 1
    41     33     58 1
    42     34     35 1
    43     34     48 1
    44     34     49 1
    45     35     36 1
    46     35     50 1
    47     35     51 1
    48     36     37 1
    49     36     38 1
    50     36     40 1
    51     37     57 1
    52     38     39 1
    53     38     52 1
    54     38     53 1
    55     39     54 1
    56     39     55 1
    57     40     41 3
    58     41     56 1
    59     42     43 2
    60     11     42 am
@<TRIPOS>SUBSTRUCTURE
     1 BB1          11
     2 BB2          42
@<TRIPOS>MOLECULE
EN300-269527_i002_EN300-315786_i001_4_16_1
  58   61   2   0   0
SMALL
USER_CHARGES
@<TRIPOS>ATOM
     1 C1        -1.9665   -10.2620    11.5795 C.3        1 BB1          0.0000
     2 C2        -0.5451    -9.9013    11.1367 C.3        1 BB1          0.0000
     3 C3        -0.0266   -10.9867    10.1884 C.3        1 BB1          0.0000
     4 C4        -0.9877   -11.1206     9.0043 C.3        1 BB1          0.0000
     5 O5        -2.2972   -11.4262     9.4877 O.3        1 BB1          0.0000
     6 C6        -2.8525   -10.4240    10.3417 C.3        1 BB1          0.0000
     7 C7        -0.5088   -12.2443     8.0830 C.3        1 BB1          0.0000
     8 C8         0.8284   -11.8508     7.4488 C.3        1 BB1          0.0000
     9 C9         1.3370   -13.0129     6.5909 C.3        1 BB1          0.0000
    10 C10        1.4538   -14.2676     7.4591 C.3        1 BB1          0.0000
    11 N11        0.1382   -14.6068     8.0147 N.am       1 BB1          0.0000
    12 C12       -0.3235   -13.5275     8.8958 C.3        1 BB1          0.0000
    13 H13       -1.9473   -11.1974    12.1387 H          1 BB1          0.0000
    14 H14       -2.3640    -9.4674    12.2107 H          1 BB1          0.0000
    15 H15       -0.5567    -8.9413    10.6205 H          1 BB1          0.0000
    16 H16        0.1043    -9.8394    12.0099 H          1 BB1          0.0000
    17 H17        0.9631   -10.7103     9.8248 H          1 BB1          0.0000
    18 H18        0.0317   -11.9368    10.7195 H          1 BB1          0.0000
    19 H19       -1.0145   -10.1825     8.4501 H          1 BB1          0.0000
    20 H20       -3.8549   -10.7226    10.6487 H          1 BB1          0.0000
    21 H21       -2.9038    -9.4767     9.8049 H          1 BB1          0.0000
    22 H22       -1.2478   -12.4124     7.2995 H          1 BB1          0.0000
    23 H23        0.6896   -10.9693     6.8230 H          1 BB1          0.0000
    24 H24        1.5533   -11.6321     8.2329 H          1 BB1          0.0000
    25 H25        0.6365   -13.1978     5.7765 H          1 BB1          0.0000
    26 H26        2.3151   -12.7617     6.1807 H          1 BB1          0.0000
    27 H27        1.8158   -15.0969     6.8514 H          1 BB1          0.0000
    28 H28        2.1546   -14.0817     8.2730 H          1 BB1          0.0000
    29 H29        0.4151   -13.3574     9.6791 H          1 BB1          0.0000
    30 H30       -1.2738   -13.8104     9.3489 H          1 BB1          0.0000
    31 O1         1.2633   -13.0201     8.0593 O.2        2 BB2          0.0000
    32 C2         0.3606   -12.8877     8.8732 C.2        2 BB2          0.0000
    33 C4         0.3375   -13.7215    10.0931 C.ar       2 BB2          0.0000
    34 C5         1.3368   -14.6734    10.3078 C.ar       2 BB2          0.0000
    35 C6         1.3146   -15.4506    11.4457 C.ar       2 BB2          0.0000
    36 C7         0.2941   -15.2869    12.3832 C.ar       2 BB2          0.0000
    37 C8        -0.7046   -14.3361    12.1693 C.ar       2 BB2          0.0000
    38 C9        -0.6805   -13.5541    11.0346 C.ar       2 BB2          0.0000
    39 C10        0.2706   -16.1228    13.6054 C.2        2 BB2          0.0000
    40 O11        0.3511   -15.6011    14.7000 O.2        2 BB2          0.0000
    41 N12        0.1600   -17.4621    13.5038 N.am       2 BB2          0.0000
    42 C13        0.1447   -18.1234    12.1892 C.3        2 BB2          0.0000
    43 C14        1.1757   -19.2576    12.2065 C.3        2 BB2          0.0000
    44 O15        0.9364   -20.0941    13.3408 O.3        2 BB2          0.0000
    45 C16        1.0872   -19.4318    14.5987 C.3        2 BB2          0.0000
    46 C17        0.0572   -18.3070    14.7042 C.3        2 BB2          0.0000
    47 H18        2.1265   -14.8005     9.5822 H          2 BB2          0.0000
    48 H19        2.0871   -16.1870    11.6117 H          2 BB2          0.0000
    49 H20       -1.4944   -14.2101    12.8951 H          2 BB2          0.0000
    50 H21       -1.4533   -12.8180    10.8693 H          2 BB2          0.0000
    51 H22       -0.8472   -18.5318    11.9953 H          2 BB2          0.0000
    52 H23        0.4039   -17.4034    11.4130 H          2 BB2          0.0000
    53 H24        1.0844   -19.8467    11.2939 H          2 BB2          0.0000
    54 H25        2.1792   -18.8366    12.2700 H          2 BB2          0.0000
    55 H26        0.9320   -20.1462    15.4073 H          2 BB2          0.0000
    56 H27        2.0902   -19.0114    14.6708 H          2 BB2          0.0000
    57 H28        0.2561   -17.7092    15.5937 H          2 BB2          0.0000
    58 H29       -0.9451   -18.7313    14.7629 H          2 BB2          0.0000
@<TRIPOS>BOND
     1      1      2 1
     2      1      6 1
     3      1     13 1
     4      1     14 1
     5      2      3 1
     6      2     15 1
     7      2     16 1
     8      3      4 1
     9      3     17 1
    10      3     18 1
    11      4      5 1
    12      4      7 1
    13      4     19 1
    14      5      6 1
    15      6     20 1
    16      6     21 1
    17      7      8 1
    18      7     12 1
    19      7     22 1
    20      8      9 1
    21      8     23 1
    22      8     24 1
    23      9     10 1
    24      9     25 1
    25      9     26 1
    26     10     11 1
    27     10     27 1
    28     10     28 1
    29     11     12 1
    30     12     29 1
    31     12     30 1
    32     31     32 2
    33     32     33 1
    34     33     34 ar
    35     33     38 ar
    36     34     35 ar
    37     34     47 1
    38     35     36 ar
    39     35     48 1
    40     36     37 ar
    41     36     39 1
    42     37     38 ar
    43     37     49 1
    44     38     50 1
    45     39     40 2
    46     39     41 am
    47     41     42 1
    48     41     46 1
    49     42     43 1
    50     42     51 1
    51     42     52 1
    52     43     44 1
    53     43     53 1
    54     43     54 1
    55     44     45 1
    56     45     46 1
    57     45     55 1
    58     45     56 1
    59     46     57 1
    60     46     58 1
    61     11     32 am
@<TRIPOS>SUBSTRUCTURE
     1 BB1          11
     2 BB2          32
@<TRIPOS>MOLECULE
EN300-269527_i002_EN300-1087079_i001_5_11_1
  56   58   2   0   0
SMALL
USER_CHARGES
@<TRIPOS>ATOM
     1 C1         1.1120   -11.9105     7.1357 C.3        1 BB1          0.0000
     2 C2         0.5257   -13.1895     6.5300 C.3        1 BB1          0.0000
     3 C3         0.7591   -14.3533     7.4980 C.3        1 BB1          0.0000
     4 C4         0.1339   -14.0128     8.8534 C.3        1 BB1          0.0000
     5 O5         0.7009   -12.7971     9.3460 O.3        1 BB1          0.0000
     6 C6         0.4733   -11.6644     8.5051 C.3        1 BB1          0.0000
     7 C7         0.4148   -15.1448     9.8437 C.3        1 BB1          0.0000
     8 C8        -0.0400   -14.7238    11.2440 C.3        1 BB1          0.0000
     9 C9         0.1730   -15.8913    12.2118 C.3        1 BB1          0.0000
    10 C10       -0.5868   -17.1166    11.6992 C.3        1 BB1          0.0000
    11 N11       -0.0882   -17.4848    10.3687 N.am       1 BB1          0.0000
    12 C12       -0.3540   -16.3978     9.4189 C.3        1 BB1          0.0000
    13 H13        2.1899   -12.0233     7.2516 H          1 BB1          0.0000
    14 H14        0.9017   -11.0666     6.4787 H          1 BB1          0.0000
    15 H15       -0.5443   -13.0589     6.3680 H          1 BB1          0.0000
    16 H16        1.0165   -13.4013     5.5801 H          1 BB1          0.0000
    17 H17        0.2964   -15.2565     7.1001 H          1 BB1          0.0000
    18 H18        1.8299   -14.5155     7.6212 H          1 BB1          0.0000
    19 H19       -0.9428   -13.8906     8.7366 H          1 BB1          0.0000
    20 H20        0.9177   -10.7789     8.9596 H          1 BB1          0.0000
    21 H21       -0.5991   -11.5114     8.3837 H          1 BB1          0.0000
    22 H22        1.4834   -15.3597     9.8573 H          1 BB1          0.0000
    23 H23        0.5446   -13.8652    11.5744 H          1 BB1          0.0000
    24 H24       -1.0970   -14.4588    11.2197 H          1 BB1          0.0000
    25 H25        1.2364   -16.1225    12.2747 H          1 BB1          0.0000
    26 H26       -0.1999   -15.6185    13.1990 H          1 BB1          0.0000
    27 H27       -0.4374   -17.9498    12.3861 H          1 BB1          0.0000
    28 H28       -1.6500   -16.8844    11.6369 H          1 BB1          0.0000
    29 H29       -1.4221   -16.1809     9.4052 H          1 BB1          0.0000
    30 H30       -0.0327   -16.7002     8.4221 H          1 BB1          0.0000
    31 C1        -0.7723   -22.7048    12.2406 C.3        2 BB2          0.0000
    32 C2        -0.4916   -21.3064    11.6867 C.3        2 BB2          0.0000
    33 C3         0.7974   -20.7620    12.3055 C.3        2 BB2          0.0000
    34 C4         0.7267   -20.8124    13.8546 C.3        2 BB2          0.0000
    35 C5         1.6998   -19.6731    14.2476 C.3        2 BB2          0.0000
    36 N6         1.4862   -18.6268    13.2312 N.am       2 BB2          0.0000
    37 C7         0.9478   -19.2538    12.0152 C.3        2 BB2          0.0000
    38 C8        -0.3967   -18.6589    11.6843 C.2        2 BB2          0.0000
    39 O10       -0.6014   -18.1942    10.5758 O.2        2 BB2          0.0000
    40 C11        1.7415   -17.3131    13.3906 C.2        2 BB2          0.0000
    41 O12        1.5260   -16.5389    12.4822 O.2        2 BB2          0.0000
    42 C13        2.2948   -16.8061    14.6973 C.3        2 BB2          0.0000
    43 H14       -1.6906   -23.0926    11.7998 H          2 BB2          0.0000
    44 H15        0.0574   -23.3668    11.9931 H          2 BB2          0.0000
    45 H16       -0.8836   -22.6510    13.3236 H          2 BB2          0.0000
    46 H17       -0.3804   -21.3602    10.6038 H          2 BB2          0.0000
    47 H18       -1.3213   -20.6443    11.9342 H          2 BB2          0.0000
    48 H19        1.6624   -21.3158    11.9408 H          2 BB2          0.0000
    49 H20       -0.2833   -20.6023    14.2066 H          2 BB2          0.0000
    50 H21        1.0778   -21.7733    14.2307 H          2 BB2          0.0000
    51 H22        1.4578   -19.2928    15.2401 H          2 BB2          0.0000
    52 H23        2.7304   -20.0270    14.2170 H          2 BB2          0.0000
    53 H24        1.6369   -19.1031    11.1842 H          2 BB2          0.0000
    54 H25        2.4212   -17.6409    15.3868 H          2 BB2          0.0000
    55 H26        3.2595   -16.3295    14.5231 H          2 BB2          0.0000
    56 H27        1.6038   -16.0811    15.1277 H          2 BB2          0.0000
@<TRIPOS>BOND
     1      1      2 1
     2      1      6 1
     3      1     13 1
     4      1     14 1
     5      2      3 1
     6      2     15 1
     7      2     16 1
     8      3      4 1
     9      3     17 1
    10      3     18 1
    11      4      5 1
    12      4      7 1
    13      4     19 1
    14      5      6 1
    15      6     20 1
    16      6     21 1
    17      7      8 1
    18      7     12 1
    19      7     22 1
    20      8      9 1
    21      8     23 1
    22      8     24 1
    23      9     10 1
    24      9     25 1
    25      9     26 1
    26     10     11 1
    27     10     27 1
    28     10     28 1
    29     11     12 1
    30     12     29 1
    31     12     30 1
    32     31     32 1
    33     31     43 1
    34     31     44 1
    35     31     45 1
    36     32     33 1
    37     32     46 1
    38     32     47 1
    39     33     34 1
    40     33     37 1
    41     33     48 1
    42     34     35 1
    43     34     49 1
    44     34     50 1
    45     35     36 1
    46     35     51 1
    47     35     52 1
    48     36     37 1
    49     36     40 am
    50     37     38 1
    51     37     53 1
    52     38     39 2
    53     40     41 2
    54     40     42 1
    55     42     54 1
    56     42     55 1
    57     42     56 1
    58     11     38 am
@<TRIPOS>SUBSTRUCTURE
     1 BB1          11
     2 BB2          38
@<TRIPOS>MOLECULE
EN300-269527_i002_EN300-97777_i001_5_10_1
  58   59   2   0   0
SMALL
USER_CHARGES
@<TRIPOS>ATOM
     1 C1         1.1120   -11.9105     7.1357 C.3        1 BB1          0.0000
     2 C2         0.5257   -13.1895     6.5300 C.3        1 BB1          0.0000
     3 C3         0.7591   -14.3533     7.4980 C.3        1 BB1          0.0000
     4 C4         0.1339   -14.0128     8.8534 C.3        1 BB1          0.0000
     5 O5         0.7009   -12.7971     9.3460 O.3        1 BB1          0.0000
     6 C6         0.4733   -11.6644     8.5051 C.3        1 BB1          0.0000
     7 C7         0.4148   -15.1448     9.8437 C.3        1 BB1          0.0000
     8 C8        -0.0400   -14.7238    11.2440 C.3        1 BB1          0.0000
     9 C9         0.1730   -15.8913    12.2118 C.3        1 BB1          0.0000
    10 C10       -0.5868   -17.1166    11.6992 C.3        1 BB1          0.0000
    11 N11       -0.0882   -17.4848    10.3687 N.am       1 BB1          0.0000
    12 C12       -0.3540   -16.3978     9.4189 C.3        1 BB1          0.0000
    13 H13        2.1899   -12.0233     7.2516 H          1 BB1          0.0000
    14 H14        0.9017   -11.0666     6.4787 H          1 BB1          0.0000
    15 H15       -0.5443   -13.0589     6.3680 H          1 BB1          0.0000
    16 H16        1.0165   -13.4013     5.5801 H          1 BB1          0.0000
    17 H17        0.2964   -15.2565     7.1001 H          1 BB1          0.0000
    18 H18        1.8299   -14.5155     7.6212 H          1 BB1          0.0000
    19 H19       -0.9428   -13.8906     8.7366 H          1 BB1          0.0000
    20 H20        0.9177   -10.7789     8.9596 H          1 BB1          0.0000
    21 H21       -0.5991   -11.5114     8.3837 H          1 BB1          0.0000
    22 H22        1.4834   -15.3597     9.8573 H          1 BB1          0.0000
    23 H23        0.5446   -13.8652    11.5744 H          1 BB1          0.0000
    24 H24       -1.0970   -14.4588    11.2197 H          1 BB1          0.0000
    25 H25        1.2364   -16.1225    12.2747 H          1 BB1          0.0000
    26 H26       -0.1999   -15.6185    13.1990 H          1 BB1          0.0000
    27 H27       -0.4374   -17.9498    12.3861 H          1 BB1          0.0000
    28 H28       -1.6500   -16.8844    11.6369 H          1 BB1          0.0000
    29 H29       -1.4221   -16.1809     9.4052 H          1 BB1          0.0000
    30 H30       -0.0327   -16.7002     8.4221 H          1 BB1          0.0000
    31 C1         0.1321   -23.5018    14.4443 C.3        2 BB2          0.0000
    32 C2        -0.4964   -22.4470    13.5314 C.3        2 BB2          0.0000
    33 C3        -1.0222   -23.1194    12.2616 C.3        2 BB2          0.0000
    34 C4        -1.6532   -21.7632    14.2629 C.3        2 BB2          0.0000
    35 O5         0.5041   -21.4566    13.1758 O.3        2 BB2          0.0000
    36 C6         0.8333   -20.5541    14.1192 C.2        2 BB2          0.0000
    37 O7         0.7474   -20.8462    15.2955 O.2        2 BB2          0.0000
    38 N8         1.2580   -19.3268    13.7587 N.am       2 BB2          0.0000
    39 C9         1.6162   -18.3449    14.7852 C.3        2 BB2          0.0000
    40 C10        1.4692   -16.9865    14.2373 C.1        2 BB2          0.0000
    41 C11        1.3521   -15.9033    13.8003 C.1        2 BB2          0.0000
    42 C12        1.3615   -18.9749    12.3404 C.3        2 BB2          0.0000
    43 C13        0.0098   -19.1129    11.6887 C.2        2 BB2          0.0000
    44 O15       -0.0973   -19.7002    10.6255 O.2        2 BB2          0.0000
    45 H16        0.9562   -23.9888    13.9231 H          2 BB2          0.0000
    46 H17        0.5067   -23.0227    15.3489 H          2 BB2          0.0000
    47 H18       -0.6190   -24.2452    14.7113 H          2 BB2          0.0000
    48 H19       -1.7733   -23.8628    12.5287 H          2 BB2          0.0000
    49 H20       -1.4699   -22.3679    11.6113 H          2 BB2          0.0000
    50 H21       -0.1981   -23.6065    11.7405 H          2 BB2          0.0000
    51 H22       -1.2785   -21.2842    15.1676 H          2 BB2          0.0000
    52 H23       -2.1009   -21.0118    13.6126 H          2 BB2          0.0000
    53 H24       -2.4042   -22.5067    14.5299 H          2 BB2          0.0000
    54 H25        0.9580   -18.4626    15.6459 H          2 BB2          0.0000
    55 H26        2.6496   -18.5023    15.0937 H          2 BB2          0.0000
    56 H27        1.2473   -14.9343    13.4095 H          2 BB2          0.0000
    57 H28        1.7070   -17.9454    12.2458 H          2 BB2          0.0000
    58 H29        2.0707   -19.6425    11.8511 H          2 BB2          0.0000
@<TRIPOS>BOND
     1      1      2 1
     2      1      6 1
     3      1     13 1
     4      1     14 1
     5      2      3 1
     6      2     15 1
     7      2     16 1
     8      3      4 1
     9      3     17 1
    10      3     18 1
    11      4      5 1
    12      4      7 1
    13      4     19 1
    14      5      6 1
    15      6     20 1
    16      6     21 1
    17      7      8 1
    18      7     12 1
    19      7     22 1
    20      8      9 1
    21      8     23 1
    22      8     24 1
    23      9     10 1
    24      9     25 1
    25      9     26 1
    26     10     11 1
    27     10     27 1
    28     10     28 1
    29     11     12 1
    30     12     29 1
    31     12     30 1
    32     31     32 1
    33     31     45 1
    34     31     46 1
    35     31     47 1
    36     32     33 1
    37     32     34 1
    38     32     35 1
    39     33     48 1
    40     33     49 1
    41     33     50 1
    42     34     51 1
    43     34     52 1
    44     34     53 1
    45     35     36 1
    46     36     37 2
    47     36     38 am
    48     38     39 1
    49     38     42 1
    50     39     40 1
    51     39     54 1
    52     39     55 1
    53     40     41 3
    54     41     56 1
    55     42     43 1
    56     42     57 1
    57     42     58 1
    58     43     44 2
    59     11     43 am
@<TRIPOS>SUBSTRUCTURE
     1 BB1          11
     2 BB2          43
@<TRIPOS>MOLECULE
EN300-269527_i002_EN300-34862_i002_5_2_1
  42   44   2   0   0
SMALL
USER_CHARGES
@<TRIPOS>ATOM
     1 C1         1.1120   -11.9105     7.1357 C.3        1 BB1          0.0000
     2 C2         0.5257   -13.1895     6.5300 C.3        1 BB1          0.0000
     3 C3         0.7591   -14.3533     7.4980 C.3        1 BB1          0.0000
     4 C4         0.1339   -14.0128     8.8534 C.3        1 BB1          0.0000
     5 O5         0.7009   -12.7971     9.3460 O.3        1 BB1          0.0000
     6 C6         0.4733   -11.6644     8.5051 C.3        1 BB1          0.0000
     7 C7         0.4148   -15.1448     9.8437 C.3        1 BB1          0.0000
     8 C8        -0.0400   -14.7238    11.2440 C.3        1 BB1          0.0000
     9 C9         0.1730   -15.8913    12.2118 C.3        1 BB1          0.0000
    10 C10       -0.5868   -17.1166    11.6992 C.3        1 BB1          0.0000
    11 N11       -0.0882   -17.4848    10.3687 N.am       1 BB1          0.0000
    12 C12       -0.3540   -16.3978     9.4189 C.3        1 BB1          0.0000
    13 H13        2.1899   -12.0233     7.2516 H          1 BB1          0.0000
    14 H14        0.9017   -11.0666     6.4787 H          1 BB1          0.0000
    15 H15       -0.5443   -13.0589     6.3680 H          1 BB1          0.0000
    16 H16        1.0165   -13.4013     5.5801 H          1 BB1          0.0000
    17 H17        0.2964   -15.2565     7.1001 H          1 BB1          0.0000
    18 H18        1.8299   -14.5155     7.6212 H          1 BB1          0.0000
    19 H19       -0.9428   -13.8906     8.7366 H          1 BB1          0.0000
    20 H20        0.9177   -10.7789     8.9596 H          1 BB1          0.0000
    21 H21       -0.5991   -11.5114     8.3837 H          1 BB1          0.0000
    22 H22        1.4834   -15.3597     9.8573 H          1 BB1          0.0000
    23 H23        0.5446   -13.8652    11.5744 H          1 BB1          0.0000
    24 H24       -1.0970   -14.4588    11.2197 H          1 BB1          0.0000
    25 H25        1.2364   -16.1225    12.2747 H          1 BB1          0.0000
    26 H26       -0.1999   -15.6185    13.1990 H          1 BB1          0.0000
    27 H27       -0.4374   -17.9498    12.3861 H          1 BB1          0.0000
    28 H28       -1.6500   -16.8844    11.6369 H          1 BB1          0.0000
    29 H29       -1.4221   -16.1809     9.4052 H          1 BB1          0.0000
    30 H30       -0.0327   -16.7002     8.4221 H          1 BB1          0.0000
    31 O1        -0.9639   -18.2558    11.1424 O.2        2 BB2          0.0000
    32 C2        -0.0714   -18.9820    11.5454 C.2        2 BB2          0.0000
    33 C4         0.4232   -18.8528    12.9630 C.3        2 BB2          0.0000
    34 C5         1.9278   -18.5532    12.9428 C.3        2 BB2          0.0000
    35 S6         2.0684   -16.9552    13.8039 S.3        2 BB2          0.0000
    36 C7         0.3405   -16.7645    14.1210 C.2        2 BB2          0.0000
    37 O8        -0.1661   -15.8227    14.7002 O.2        2 BB2          0.0000
    38 N9        -0.3212   -17.8079    13.6288 N.am       2 BB2          0.0000
    39 H10        0.2551   -19.7947    13.4851 H          2 BB2          0.0000
    40 H11        2.4788   -19.3262    13.4787 H          2 BB2          0.0000
    41 H12        2.2870   -18.4679    11.9172 H          2 BB2          0.0000
    42 H13       -1.2856   -17.8664    13.7147 H          2 BB2          0.0000
@<TRIPOS>BOND
     1      1      2 1
     2      1      6 1
     3      1     13 1
     4      1     14 1
     5      2      3 1
     6      2     15 1
     7      2     16 1
     8      3      4 1
     9      3     17 1
    10      3     18 1
    11      4      5 1
    12      4      7 1
    13      4     19 1
    14      5      6 1
    15      6     20 1
    16      6     21 1
    17      7      8 1
    18      7     12 1
    19      7     22 1
    20      8      9 1
    21      8     23 1
    22      8     24 1
    23      9     10 1
    24      9     25 1
    25      9     26 1
    26     10     11 1
    27     10     27 1
    28     10     28 1
    29     11     12 1
    30     12     29 1
    31     12     30 1
    32     31     32 2
    33     32     33 1
    34     33     34 1
    35     33     38 1
    36     33     39 1
    37     34     35 1
    38     34     40 1
    39     34     41 1
    40     35     36 1
    41     36     37 2
    42     36     38 am
    43     38     42 1
    44     11     32 am
@<TRIPOS>SUBSTRUCTURE
     1 BB1          11
     2 BB2          32
@<TRIPOS>MOLECULE
EN300-269527_i002_EN300-34862_i002_5_20_1
  42   44   2   0   0
SMALL
USER_CHARGES
@<TRIPOS>ATOM
     1 C1         1.1120   -11.9105     7.1357 C.3        1 BB1          0.0000
     2 C2         0.5257   -13.1895     6.5300 C.3        1 BB1          0.0000
     3 C3         0.7591   -14.3533     7.4980 C.3        1 BB1          0.0000
     4 C4         0.1339   -14.0128     8.8534 C.3        1 BB1          0.0000
     5 O5         0.7009   -12.7971     9.3460 O.3        1 BB1          0.0000
     6 C6         0.4733   -11.6644     8.5051 C.3        1 BB1          0.0000
     7 C7         0.4148   -15.1448     9.8437 C.3        1 BB1          0.0000
     8 C8        -0.0400   -14.7238    11.2440 C.3        1 BB1          0.0000
     9 C9         0.1730   -15.8913    12.2118 C.3        1 BB1          0.0000
    10 C10       -0.5868   -17.1166    11.6992 C.3        1 BB1          0.0000
    11 N11       -0.0882   -17.4848    10.3687 N.am       1 BB1          0.0000
    12 C12       -0.3540   -16.3978     9.4189 C.3        1 BB1          0.0000
    13 H13        2.1899   -12.0233     7.2516 H          1 BB1          0.0000
    14 H14        0.9017   -11.0666     6.4787 H          1 BB1          0.0000
    15 H15       -0.5443   -13.0589     6.3680 H          1 BB1          0.0000
    16 H16        1.0165   -13.4013     5.5801 H          1 BB1          0.0000
    17 H17        0.2964   -15.2565     7.1001 H          1 BB1          0.0000
    18 H18        1.8299   -14.5155     7.6212 H          1 BB1          0.0000
    19 H19       -0.9428   -13.8906     8.7366 H          1 BB1          0.0000
    20 H20        0.9177   -10.7789     8.9596 H          1 BB1          0.0000
    21 H21       -0.5991   -11.5114     8.3837 H          1 BB1          0.0000
    22 H22        1.4834   -15.3597     9.8573 H          1 BB1          0.0000
    23 H23        0.5446   -13.8652    11.5744 H          1 BB1          0.0000
    24 H24       -1.0970   -14.4588    11.2197 H          1 BB1          0.0000
    25 H25        1.2364   -16.1225    12.2747 H          1 BB1          0.0000
    26 H26       -0.1999   -15.6185    13.1990 H          1 BB1          0.0000
    27 H27       -0.4374   -17.9498    12.3861 H          1 BB1          0.0000
    28 H28       -1.6500   -16.8844    11.6369 H          1 BB1          0.0000
    29 H29       -1.4221   -16.1809     9.4052 H          1 BB1          0.0000
    30 H30       -0.0327   -16.7002     8.4221 H          1 BB1          0.0000
    31 C2         1.1358   -19.4228    12.2214 C.2        2 BB2          0.0000
    32 O3        -0.0553   -19.3577    11.9695 O.2        2 BB2          0.0000
    33 C4         1.7002   -18.6648    13.3953 C.3        2 BB2          0.0000
    34 C5         2.7840   -17.7013    12.8947 C.3        2 BB2          0.0000
    35 S6         2.1795   -16.0601    13.4008 S.3        2 BB2          0.0000
    36 C7         0.6944   -16.6384    14.1641 C.2        2 BB2          0.0000
    37 O8        -0.1394   -15.9331    14.6991 O.2        2 BB2          0.0000
    38 N9         0.6276   -17.9630    14.0632 N.am       2 BB2          0.0000
    39 H10        2.1482   -19.3726    14.0928 H          2 BB2          0.0000
    40 H11        3.7399   -17.9203    13.3707 H          2 BB2          0.0000
    41 H12        2.8744   -17.7577    11.8099 H          2 BB2          0.0000
    42 H13       -0.1272   -18.4488    14.4308 H          2 BB2          0.0000
@<TRIPOS>BOND
     1      1      2 1
     2      1      6 1
     3      1     13 1
     4      1     14 1
     5      2      3 1
     6      2     15 1
     7      2     16 1
     8      3      4 1
     9      3     17 1
    10      3     18 1
    11      4      5 1
    12      4      7 1
    13      4     19 1
    14      5      6 1
    15      6     20 1
    16      6     21 1
    17      7      8 1
    18      7     12 1
    19      7     22 1
    20      8      9 1
    21      8     23 1
    22      8     24 1
    23      9     10 1
    24      9     25 1
    25      9     26 1
    26     10     11 1
    27     10     27 1
    28     10     28 1
    29     11     12 1
    30     12     29 1
    31     12     30 1
    32     31     32 2
    33     31     33 1
    34     33     34 1
    35     33     38 1
    36     33     39 1
    37     34     35 1
    38     34     40 1
    39     34     41 1
    40     35     36 1
    41     36     37 2
    42     36     38 am
    43     38     42 1
    44     11     31 am
@<TRIPOS>SUBSTRUCTURE
     1 BB1          11
     2 BB2          31
@<TRIPOS>MOLECULE
EN300-269527_i002_EN300-223795_i001_5_6_1
  43   45   2   0   0
SMALL
USER_CHARGES
@<TRIPOS>ATOM
     1 C1         1.1120   -11.9105     7.1357 C.3        1 BB1          0.0000
     2 C2         0.5257   -13.1895     6.5300 C.3        1 BB1          0.0000
     3 C3         0.7591   -14.3533     7.4980 C.3        1 BB1          0.0000
     4 C4         0.1339   -14.0128     8.8534 C.3        1 BB1          0.0000
     5 O5         0.7009   -12.7971     9.3460 O.3        1 BB1          0.0000
     6 C6         0.4733   -11.6644     8.5051 C.3        1 BB1          0.0000
     7 C7         0.4148   -15.1448     9.8437 C.3        1 BB1          0.0000
     8 C8        -0.0400   -14.7238    11.2440 C.3        1 BB1          0.0000
     9 C9         0.1730   -15.8913    12.2118 C.3        1 BB1          0.0000
    10 C10       -0.5868   -17.1166    11.6992 C.3        1 BB1          0.0000
    11 N11       -0.0882   -17.4848    10.3687 N.am       1 BB1          0.0000
    12 C12       -0.3540   -16.3978     9.4189 C.3        1 BB1          0.0000
    13 H13        2.1899   -12.0233     7.2516 H          1 BB1          0.0000
    14 H14        0.9017   -11.0666     6.4787 H          1 BB1          0.0000
    15 H15       -0.5443   -13.0589     6.3680 H          1 BB1          0.0000
    16 H16        1.0165   -13.4013     5.5801 H          1 BB1          0.0000
    17 H17        0.2964   -15.2565     7.1001 H          1 BB1          0.0000
    18 H18        1.8299   -14.5155     7.6212 H          1 BB1          0.0000
    19 H19       -0.9428   -13.8906     8.7366 H          1 BB1          0.0000
    20 H20        0.9177   -10.7789     8.9596 H          1 BB1          0.0000
    21 H21       -0.5991   -11.5114     8.3837 H          1 BB1          0.0000
    22 H22        1.4834   -15.3597     9.8573 H          1 BB1          0.0000
    23 H23        0.5446   -13.8652    11.5744 H          1 BB1          0.0000
    24 H24       -1.0970   -14.4588    11.2197 H          1 BB1          0.0000
    25 H25        1.2364   -16.1225    12.2747 H          1 BB1          0.0000
    26 H26       -0.1999   -15.6185    13.1990 H          1 BB1          0.0000
    27 H27       -0.4374   -17.9498    12.3861 H          1 BB1          0.0000
    28 H28       -1.6500   -16.8844    11.6369 H          1 BB1          0.0000
    29 H29       -1.4221   -16.1809     9.4052 H          1 BB1          0.0000
    30 H30       -0.0327   -16.7002     8.4221 H          1 BB1          0.0000
    31 C2        -0.1310   -18.6893    11.8889 C.2        2 BB2          0.0000
    32 O3         0.2002   -19.2379    10.8461 O.2        2 BB2          0.0000
    33 C4         0.5803   -18.9932    13.1358 C.2        2 BB2          0.0000
    34 C5         1.2511   -17.9935    13.9358 C.2        2 BB2          0.0000
    35 C6         1.8272   -18.4953    15.0204 C.2        2 BB2          0.0000
    36 S7         1.5717   -20.2292    15.1109 S.3        2 BB2          0.0000
    37 C8         0.6724   -20.2468    13.6631 C.2        2 BB2          0.0000
    38 C9         0.0684   -21.4816    13.0457 C.3        2 BB2          0.0000
    39 F10       -1.3262   -21.3709    13.0504 F          2 BB2          0.0000
    40 F11        0.5213   -21.6137    11.7286 F          2 BB2          0.0000
    41 F12        0.4494   -22.6066    13.7848 F          2 BB2          0.0000
    42 H13        1.2806   -16.9454    13.6770 H          2 BB2          0.0000
    43 H14        2.3776   -17.9166    15.7474 H          2 BB2          0.0000
@<TRIPOS>BOND
     1      1      2 1
     2      1      6 1
     3      1     13 1
     4      1     14 1
     5      2      3 1
     6      2     15 1
     7      2     16 1
     8      3      4 1
     9      3     17 1
    10      3     18 1
    11      4      5 1
    12      4      7 1
    13      4     19 1
    14      5      6 1
    15      6     20 1
    16      6     21 1
    17      7      8 1
    18      7     12 1
    19      7     22 1
    20      8      9 1
    21      8     23 1
    22      8     24 1
    23      9     10 1
    24      9     25 1
    25      9     26 1
    26     10     11 1
    27     10     27 1
    28     10     28 1
    29     11     12 1
    30     12     29 1
    31     12     30 1
    32     31     32 2
    33     31     33 1
    34     33     34 1
    35     33     37 2
    36     34     35 2
    37     34     42 1
    38     35     36 1
    39     35     43 1
    40     36     37 1
    41     37     38 1
    42     38     39 1
    43     38     40 1
    44     38     41 1
    45     11     31 am
@<TRIPOS>SUBSTRUCTURE
     1 BB1          11
     2 BB2          31
@<TRIPOS>MOLECULE
EN300-269527_i002_EN300-223795_i001_5_9_1
  43   45   2   0   0
SMALL
USER_CHARGES
@<TRIPOS>ATOM
     1 C1         1.1120   -11.9105     7.1357 C.3        1 BB1          0.0000
     2 C2         0.5257   -13.1895     6.5300 C.3        1 BB1          0.0000
     3 C3         0.7591   -14.3533     7.4980 C.3        1 BB1          0.0000
     4 C4         0.1339   -14.0128     8.8534 C.3        1 BB1          0.0000
     5 O5         0.7009   -12.7971     9.3460 O.3        1 BB1          0.0000
     6 C6         0.4733   -11.6644     8.5051 C.3        1 BB1          0.0000
     7 C7         0.4148   -15.1448     9.8437 C.3        1 BB1          0.0000
     8 C8        -0.0400   -14.7238    11.2440 C.3        1 BB1          0.0000
     9 C9         0.1730   -15.8913    12.2118 C.3        1 BB1          0.0000
    10 C10       -0.5868   -17.1166    11.6992 C.3        1 BB1          0.0000
    11 N11       -0.0882   -17.4848    10.3687 N.am       1 BB1          0.0000
    12 C12       -0.3540   -16.3978     9.4189 C.3        1 BB1          0.0000
    13 H13        2.1899   -12.0233     7.2516 H          1 BB1          0.0000
    14 H14        0.9017   -11.0666     6.4787 H          1 BB1          0.0000
    15 H15       -0.5443   -13.0589     6.3680 H          1 BB1          0.0000
    16 H16        1.0165   -13.4013     5.5801 H          1 BB1          0.0000
    17 H17        0.2964   -15.2565     7.1001 H          1 BB1          0.0000
    18 H18        1.8299   -14.5155     7.6212 H          1 BB1          0.0000
    19 H19       -0.9428   -13.8906     8.7366 H          1 BB1          0.0000
    20 H20        0.9177   -10.7789     8.9596 H          1 BB1          0.0000
    21 H21       -0.5991   -11.5114     8.3837 H          1 BB1          0.0000
    22 H22        1.4834   -15.3597     9.8573 H          1 BB1          0.0000
    23 H23        0.5446   -13.8652    11.5744 H          1 BB1          0.0000
    24 H24       -1.0970   -14.4588    11.2197 H          1 BB1          0.0000
    25 H25        1.2364   -16.1225    12.2747 H          1 BB1          0.0000
    26 H26       -0.1999   -15.6185    13.1990 H          1 BB1          0.0000
    27 H27       -0.4374   -17.9498    12.3861 H          1 BB1          0.0000
    28 H28       -1.6500   -16.8844    11.6369 H          1 BB1          0.0000
    29 H29       -1.4221   -16.1809     9.4052 H          1 BB1          0.0000
    30 H30       -0.0327   -16.7002     8.4221 H          1 BB1          0.0000
    31 O1         0.1515   -19.4036    10.7042 O.2        2 BB2          0.0000
    32 C2        -0.1464   -19.0876    11.8487 C.2        2 BB2          0.0000
    33 C4         0.5117   -19.7418    12.9853 C.2        2 BB2          0.0000
    34 C5         0.4734   -21.1681    13.2166 C.2        2 BB2          0.0000
    35 C6         1.1374   -21.5371    14.3043 C.2        2 BB2          0.0000
    36 S7         1.8450   -20.1424    15.1003 S.3        2 BB2          0.0000
    37 C8         1.2276   -19.0683    13.9297 C.2        2 BB2          0.0000
    38 C9         1.4375   -17.5761    13.9419 C.3        2 BB2          0.0000
    39 F10        2.2838   -17.2328    15.0017 F          2 BB2          0.0000
    40 F11        2.0182   -17.1770    12.7333 F          2 BB2          0.0000
    41 F12        0.2053   -16.9331    14.1020 F          2 BB2          0.0000
    42 H13       -0.0431   -21.8623    12.5704 H          2 BB2          0.0000
    43 H14        1.2297   -22.5554    14.6519 H          2 BB2          0.0000
@<TRIPOS>BOND
     1      1      2 1
     2      1      6 1
     3      1     13 1
     4      1     14 1
     5      2      3 1
     6      2     15 1
     7      2     16 1
     8      3      4 1
     9      3     17 1
    10      3     18 1
    11      4      5 1
    12      4      7 1
    13      4     19 1
    14      5      6 1
    15      6     20 1
    16      6     21 1
    17      7      8 1
    18      7     12 1
    19      7     22 1
    20      8      9 1
    21      8     23 1
    22      8     24 1
    23      9     10 1
    24      9     25 1
    25      9     26 1
    26     10     11 1
    27     10     27 1
    28     10     28 1
    29     11     12 1
    30     12     29 1
    31     12     30 1
    32     31     32 2
    33     32     33 1
    34     33     34 1
    35     33     37 2
    36     34     35 2
    37     34     42 1
    38     35     36 1
    39     35     43 1
    40     36     37 1
    41     37     38 1
    42     38     39 1
    43     38     40 1
    44     38     41 1
    45     11     32 am
@<TRIPOS>SUBSTRUCTURE
     1 BB1          11
     2 BB2          32
@<TRIPOS>MOLECULE
EN300-269527_i002_EN300-1198129_i001_9_17_1
  54   56   2   0   0
SMALL
USER_CHARGES
@<TRIPOS>ATOM
     1 C1        -0.1455   -23.2128    13.7134 C.3        1 BB1          0.0000
     2 C2         0.9572   -22.7754    14.6826 C.3        1 BB1          0.0000
     3 C3         1.3985   -21.3522    14.3278 C.3        1 BB1          0.0000
     4 C4         0.1828   -20.4229    14.3733 C.3        1 BB1          0.0000
     5 O5        -0.8166   -20.9038    13.4721 O.3        1 BB1          0.0000
     6 C6        -1.3015   -22.2117    13.7825 C.3        1 BB1          0.0000
     7 C7         0.6042   -19.0109    13.9616 C.3        1 BB1          0.0000
     8 C8         1.5878   -18.4498    14.9925 C.3        1 BB1          0.0000
     9 C9         2.0632   -17.0691    14.5312 C.3        1 BB1          0.0000
    10 C10        2.6878   -17.1896    13.1395 C.3        1 BB1          0.0000
    11 N11        1.6903   -17.7061    12.1946 N.am       1 BB1          0.0000
    12 C12        1.2828   -19.0593    12.5910 C.3        1 BB1          0.0000
    13 H13        0.2517   -23.2411    12.6987 H          1 BB1          0.0000
    14 H14       -0.5042   -24.2034    13.9928 H          1 BB1          0.0000
    15 H15        0.5744   -22.7948    15.7029 H          1 BB1          0.0000
    16 H16        1.8070   -23.4526    14.5976 H          1 BB1          0.0000
    17 H17        2.1440   -21.0122    15.0467 H          1 BB1          0.0000
    18 H18        1.8268   -21.3429    13.3255 H          1 BB1          0.0000
    19 H19       -0.2207   -20.4014    15.3856 H          1 BB1          0.0000
    20 H20       -2.0707   -22.4943    13.0638 H          1 BB1          0.0000
    21 H21       -1.7244   -22.2136    14.7872 H          1 BB1          0.0000
    22 H22       -0.2753   -18.3689    13.9106 H          1 BB1          0.0000
    23 H23        1.0914   -18.3602    15.9588 H          1 BB1          0.0000
    24 H24        2.4435   -19.1189    15.0817 H          1 BB1          0.0000
    25 H25        1.2144   -16.3864    14.4914 H          1 BB1          0.0000
    26 H26        2.8059   -16.6871    15.2316 H          1 BB1          0.0000
    27 H27        3.0275   -16.2083    12.8080 H          1 BB1          0.0000
    28 H28        3.5365   -17.8722    13.1805 H          1 BB1          0.0000
    29 H29        2.1615   -19.7021    12.6437 H          1 BB1          0.0000
    30 H30        0.5852   -19.4586    11.8546 H          1 BB1          0.0000
    31 C2        -0.3911   -17.0613    12.6065 C.2        2 BB2          0.0000
    32 O3        -0.6410   -18.1239    13.1584 O.2        2 BB2          0.0000
    33 C4        -0.3958   -16.9760    11.1355 C.ar       2 BB2          0.0000
    34 C5        -0.0908   -15.7687    10.5005 C.ar       2 BB2          0.0000
    35 C6        -0.0971   -15.6964     9.1240 C.ar       2 BB2          0.0000
    36 C7        -0.4049   -16.8151     8.3684 C.ar       2 BB2          0.0000
    37 C8        -0.7081   -18.0142     8.9862 C.ar       2 BB2          0.0000
    38 C9        -0.7001   -18.1055    10.3659 C.ar       2 BB2          0.0000
    39 F10       -0.9964   -19.2773    10.9694 F          2 BB2          0.0000
    40 S11        0.2873   -14.1747     8.3232 S.o2       2 BB2          0.0000
    41 O12        1.6993   -14.0649     8.4386 O.2        2 BB2          0.0000
    42 O13       -0.3379   -14.2803     7.0515 O.2        2 BB2          0.0000
    43 C14       -0.5340   -12.9116     9.3333 C.3        2 BB2          0.0000
    44 C15       -0.3919   -11.5463     8.6574 C.3        2 BB2          0.0000
    45 C16       -1.3236   -10.5914     9.2795 C.1        2 BB2          0.0000
    46 C17       -2.0667    -9.8299     9.7757 C.1        2 BB2          0.0000
    47 H18        0.1491   -14.8943    11.0872 H          2 BB2          0.0000
    48 H19       -0.4086   -16.7505     7.2903 H          2 BB2          0.0000
    49 H20       -0.9471   -18.8823     8.3900 H          2 BB2          0.0000
    50 H21       -1.5909   -13.1582     9.4350 H          2 BB2          0.0000
    51 H22       -0.0721   -12.8783    10.3200 H          2 BB2          0.0000
    52 H23        0.6301   -11.1866     8.7764 H          2 BB2          0.0000
    53 H24       -0.6229   -11.6403     7.5963 H          2 BB2          0.0000
    54 H25       -2.7313    -9.1488    10.2194 H          2 BB2          0.0000
@<TRIPOS>BOND
     1      1      2 1
     2      1      6 1
     3      1     13 1
     4      1     14 1
     5      2      3 1
     6      2     15 1
     7      2     16 1
     8      3      4 1
     9      3     17 1
    10      3     18 1
    11      4      5 1
    12      4      7 1
    13      4     19 1
    14      5      6 1
    15      6     20 1
    16      6     21 1
    17      7      8 1
    18      7     12 1
    19      7     22 1
    20      8      9 1
    21      8     23 1
    22      8     24 1
    23      9     10 1
    24      9     25 1
    25      9     26 1
    26     10     11 1
    27     10     27 1
    28     10     28 1
    29     11     12 1
    30     12     29 1
    31     12     30 1
    32     31     32 2
    33     31     33 1
    34     33     34 ar
    35     33     38 ar
    36     34     35 ar
    37     34     47 1
    38     35     36 ar
    39     35     40 1
    40     36     37 ar
    41     36     48 1
    42     37     38 ar
    43     37     49 1
    44     38     39 1
    45     40     41 2
    46     40     42 2
    47     40     43 1
    48     43     44 1
    49     43     50 1
    50     43     51 1
    51     44     45 1
    52     44     52 1
    53     44     53 1
    54     45     46 3
    55     46     54 1
    56     11     31 am
@<TRIPOS>SUBSTRUCTURE
     1 BB1          11
     2 BB2          31
@<TRIPOS>MOLECULE
EN300-269527_i002_EN300-1198129_i001_9_20_1
  54   56   2   0   0
SMALL
USER_CHARGES
@<TRIPOS>ATOM
     1 C1        -0.1455   -23.2128    13.7134 C.3        1 BB1          0.0000
     2 C2         0.9572   -22.7754    14.6826 C.3        1 BB1          0.0000
     3 C3         1.3985   -21.3522    14.3278 C.3        1 BB1          0.0000
     4 C4         0.1828   -20.4229    14.3733 C.3        1 BB1          0.0000
     5 O5        -0.8166   -20.9038    13.4721 O.3        1 BB1          0.0000
     6 C6        -1.3015   -22.2117    13.7825 C.3        1 BB1          0.0000
     7 C7         0.6042   -19.0109    13.9616 C.3        1 BB1          0.0000
     8 C8         1.5878   -18.4498    14.9925 C.3        1 BB1          0.0000
     9 C9         2.0632   -17.0691    14.5312 C.3        1 BB1          0.0000
    10 C10        2.6878   -17.1896    13.1395 C.3        1 BB1          0.0000
    11 N11        1.6903   -17.7061    12.1946 N.am       1 BB1          0.0000
    12 C12        1.2828   -19.0593    12.5910 C.3        1 BB1          0.0000
    13 H13        0.2517   -23.2411    12.6987 H          1 BB1          0.0000
    14 H14       -0.5042   -24.2034    13.9928 H          1 BB1          0.0000
    15 H15        0.5744   -22.7948    15.7029 H          1 BB1          0.0000
    16 H16        1.8070   -23.4526    14.5976 H          1 BB1          0.0000
    17 H17        2.1440   -21.0122    15.0467 H          1 BB1          0.0000
    18 H18        1.8268   -21.3429    13.3255 H          1 BB1          0.0000
    19 H19       -0.2207   -20.4014    15.3856 H          1 BB1          0.0000
    20 H20       -2.0707   -22.4943    13.0638 H          1 BB1          0.0000
    21 H21       -1.7244   -22.2136    14.7872 H          1 BB1          0.0000
    22 H22       -0.2753   -18.3689    13.9106 H          1 BB1          0.0000
    23 H23        1.0914   -18.3602    15.9588 H          1 BB1          0.0000
    24 H24        2.4435   -19.1189    15.0817 H          1 BB1          0.0000
    25 H25        1.2144   -16.3864    14.4914 H          1 BB1          0.0000
    26 H26        2.8059   -16.6871    15.2316 H          1 BB1          0.0000
    27 H27        3.0275   -16.2083    12.8080 H          1 BB1          0.0000
    28 H28        3.5365   -17.8722    13.1805 H          1 BB1          0.0000
    29 H29        2.1615   -19.7021    12.6437 H          1 BB1          0.0000
    30 H30        0.5852   -19.4586    11.8546 H          1 BB1          0.0000
    31 O1        -0.5772   -17.5252    13.3454 O.2        2 BB2          0.0000
    32 C2        -0.1937   -16.6148    12.6241 C.2        2 BB2          0.0000
    33 C4        -0.2826   -16.7479    11.1594 C.ar       2 BB2          0.0000
    34 C5        -0.0167   -15.6498    10.3364 C.ar       2 BB2          0.0000
    35 C6        -0.1019   -15.7818     8.9670 C.ar       2 BB2          0.0000
    36 C7        -0.4502   -16.9979     8.4040 C.ar       2 BB2          0.0000
    37 C8        -0.7154   -18.0904     9.2087 C.ar       2 BB2          0.0000
    38 C9        -0.6283   -17.9768    10.5840 C.ar       2 BB2          0.0000
    39 F10       -0.8874   -19.0445    11.3701 F          2 BB2          0.0000
    40 S11        0.2332   -14.3978     7.9292 S.o2       2 BB2          0.0000
    41 O12        1.5821   -14.5831     7.5228 O.2        2 BB2          0.0000
    42 O13       -0.8253   -14.4062     6.9813 O.2        2 BB2          0.0000
    43 C14        0.0912   -12.9624     9.0292 C.3        2 BB2          0.0000
    44 C15        0.0804   -11.6798     8.1950 C.3        2 BB2          0.0000
    45 C16        0.9386   -11.8565     7.0122 C.1        2 BB2          0.0000
    46 C17        1.6231   -11.9973     6.0689 C.1        2 BB2          0.0000
    47 H18        0.2546   -14.6998    10.7727 H          2 BB2          0.0000
    48 H19       -0.5157   -17.0934     7.3302 H          2 BB2          0.0000
    49 H20       -0.9864   -19.0355     8.7621 H          2 BB2          0.0000
    50 H21       -0.8347   -13.0323     9.6001 H          2 BB2          0.0000
    51 H22        0.9394   -12.9436     9.7135 H          2 BB2          0.0000
    52 H23       -0.9389   -11.4631     7.8752 H          2 BB2          0.0000
    53 H24        0.4563   -10.8521     8.7964 H          2 BB2          0.0000
    54 H25        2.2353   -12.1232     5.2251 H          2 BB2          0.0000
@<TRIPOS>BOND
     1      1      2 1
     2      1      6 1
     3      1     13 1
     4      1     14 1
     5      2      3 1
     6      2     15 1
     7      2     16 1
     8      3      4 1
     9      3     17 1
    10      3     18 1
    11      4      5 1
    12      4      7 1
    13      4     19 1
    14      5      6 1
    15      6     20 1
    16      6     21 1
    17      7      8 1
    18      7     12 1
    19      7     22 1
    20      8      9 1
    21      8     23 1
    22      8     24 1
    23      9     10 1
    24      9     25 1
    25      9     26 1
    26     10     11 1
    27     10     27 1
    28     10     28 1
    29     11     12 1
    30     12     29 1
    31     12     30 1
    32     31     32 2
    33     32     33 1
    34     33     34 ar
    35     33     38 ar
    36     34     35 ar
    37     34     47 1
    38     35     36 ar
    39     35     40 1
    40     36     37 ar
    41     36     48 1
    42     37     38 ar
    43     37     49 1
    44     38     39 1
    45     40     41 2
    46     40     42 2
    47     40     43 1
    48     43     44 1
    49     43     50 1
    50     43     51 1
    51     44     45 1
    52     44     52 1
    53     44     53 1
    54     45     46 3
    55     46     54 1
    56     11     32 am
@<TRIPOS>SUBSTRUCTURE
     1 BB1          11
     2 BB2          32
@<TRIPOS>MOLECULE
EN300-269527_i002_EN300-4287209_i001_9_6_1
  45   47   2   0   0
SMALL
USER_CHARGES
@<TRIPOS>ATOM
     1 C1        -0.1455   -23.2128    13.7134 C.3        1 BB1          0.0000
     2 C2         0.9572   -22.7754    14.6826 C.3        1 BB1          0.0000
     3 C3         1.3985   -21.3522    14.3278 C.3        1 BB1          0.0000
     4 C4         0.1828   -20.4229    14.3733 C.3        1 BB1          0.0000
     5 O5        -0.8166   -20.9038    13.4721 O.3        1 BB1          0.0000
     6 C6        -1.3015   -22.2117    13.7825 C.3        1 BB1          0.0000
     7 C7         0.6042   -19.0109    13.9616 C.3        1 BB1          0.0000
     8 C8         1.5878   -18.4498    14.9925 C.3        1 BB1          0.0000
     9 C9         2.0632   -17.0691    14.5312 C.3        1 BB1          0.0000
    10 C10        2.6878   -17.1896    13.1395 C.3        1 BB1          0.0000
    11 N11        1.6903   -17.7061    12.1946 N.am       1 BB1          0.0000
    12 C12        1.2828   -19.0593    12.5910 C.3        1 BB1          0.0000
    13 H13        0.2517   -23.2411    12.6987 H          1 BB1          0.0000
    14 H14       -0.5042   -24.2034    13.9928 H          1 BB1          0.0000
    15 H15        0.5744   -22.7948    15.7029 H          1 BB1          0.0000
    16 H16        1.8070   -23.4526    14.5976 H          1 BB1          0.0000
    17 H17        2.1440   -21.0122    15.0467 H          1 BB1          0.0000
    18 H18        1.8268   -21.3429    13.3255 H          1 BB1          0.0000
    19 H19       -0.2207   -20.4014    15.3856 H          1 BB1          0.0000
    20 H20       -2.0707   -22.4943    13.0638 H          1 BB1          0.0000
    21 H21       -1.7244   -22.2136    14.7872 H          1 BB1          0.0000
    22 H22       -0.2753   -18.3689    13.9106 H          1 BB1          0.0000
    23 H23        1.0914   -18.3602    15.9588 H          1 BB1          0.0000
    24 H24        2.4435   -19.1189    15.0817 H          1 BB1          0.0000
    25 H25        1.2144   -16.3864    14.4914 H          1 BB1          0.0000
    26 H26        2.8059   -16.6871    15.2316 H          1 BB1          0.0000
    27 H27        3.0275   -16.2083    12.8080 H          1 BB1          0.0000
    28 H28        3.5365   -17.8722    13.1805 H          1 BB1          0.0000
    29 H29        2.1615   -19.7021    12.6437 H          1 BB1          0.0000
    30 H30        0.5852   -19.4586    11.8546 H          1 BB1          0.0000
    31 O1        -0.7080   -17.4711    12.5580 O.2        2 BB2          0.0000
    32 C2        -0.1536   -16.4857    12.0918 C.2        2 BB2          0.0000
    33 C4        -0.1204   -16.2800    10.6318 C.ar       2 BB2          0.0000
    34 C5         0.2132   -15.0305    10.1087 C.ar       2 BB2          0.0000
    35 C6         0.2425   -14.8456     8.7290 C.ar       2 BB2          0.0000
    36 C7         0.5845   -13.5663     8.1842 C.1        2 BB2          0.0000
    37 C8         0.8649   -12.5175     7.7374 C.1        2 BB2          0.0000
    38 C9        -0.0616   -15.9100     7.8771 C.ar       2 BB2          0.0000
    39 C10       -0.3916   -17.1448     8.3989 C.ar       2 BB2          0.0000
    40 C11       -0.4177   -17.3393     9.7667 C.ar       2 BB2          0.0000
    41 Cl12      -0.8340   -18.8957    10.4133 Cl         2 BB2          0.0000
    42 H13        0.4473   -14.2101    10.7709 H          2 BB2          0.0000
    43 H14        1.1157   -11.5794     7.3378 H          2 BB2          0.0000
    44 H15       -0.0387   -15.7663     6.8069 H          2 BB2          0.0000
    45 H16       -0.6261   -17.9636     7.7348 H          2 BB2          0.0000
@<TRIPOS>BOND
     1      1      2 1
     2      1      6 1
     3      1     13 1
     4      1     14 1
     5      2      3 1
     6      2     15 1
     7      2     16 1
     8      3      4 1
     9      3     17 1
    10      3     18 1
    11      4      5 1
    12      4      7 1
    13      4     19 1
    14      5      6 1
    15      6     20 1
    16      6     21 1
    17      7      8 1
    18      7     12 1
    19      7     22 1
    20      8      9 1
    21      8     23 1
    22      8     24 1
    23      9     10 1
    24      9     25 1
    25      9     26 1
    26     10     11 1
    27     10     27 1
    28     10     28 1
    29     11     12 1
    30     12     29 1
    31     12     30 1
    32     31     32 2
    33     32     33 1
    34     33     34 ar
    35     33     40 ar
    36     34     35 ar
    37     34     42 1
    38     35     36 1
    39     35     38 ar
    40     36     37 3
    41     37     43 1
    42     38     39 ar
    43     38     44 1
    44     39     40 ar
    45     39     45 1
    46     40     41 1
    47     11     32 am
@<TRIPOS>SUBSTRUCTURE
     1 BB1          11
     2 BB2          32
@<TRIPOS>MOLECULE
EN300-269527_i002_EN300-1231025_i001_9_1_1
  45   46   2   0   0
SMALL
USER_CHARGES
@<TRIPOS>ATOM
     1 C1        -0.1455   -23.2128    13.7134 C.3        1 BB1          0.0000
     2 C2         0.9572   -22.7754    14.6826 C.3        1 BB1          0.0000
     3 C3         1.3985   -21.3522    14.3278 C.3        1 BB1          0.0000
     4 C4         0.1828   -20.4229    14.3733 C.3        1 BB1          0.0000
     5 O5        -0.8166   -20.9038    13.4721 O.3        1 BB1          0.0000
     6 C6        -1.3015   -22.2117    13.7825 C.3        1 BB1          0.0000
     7 C7         0.6042   -19.0109    13.9616 C.3        1 BB1          0.0000
     8 C8         1.5878   -18.4498    14.9925 C.3        1 BB1          0.0000
     9 C9         2.0632   -17.0691    14.5312 C.3        1 BB1          0.0000
    10 C10        2.6878   -17.1896    13.1395 C.3        1 BB1          0.0000
    11 N11        1.6903   -17.7061    12.1946 N.am       1 BB1          0.0000
    12 C12        1.2828   -19.0593    12.5910 C.3        1 BB1          0.0000
    13 H13        0.2517   -23.2411    12.6987 H          1 BB1          0.0000
    14 H14       -0.5042   -24.2034    13.9928 H          1 BB1          0.0000
    15 H15        0.5744   -22.7948    15.7029 H          1 BB1          0.0000
    16 H16        1.8070   -23.4526    14.5976 H          1 BB1          0.0000
    17 H17        2.1440   -21.0122    15.0467 H          1 BB1          0.0000
    18 H18        1.8268   -21.3429    13.3255 H          1 BB1          0.0000
    19 H19       -0.2207   -20.4014    15.3856 H          1 BB1          0.0000
    20 H20       -2.0707   -22.4943    13.0638 H          1 BB1          0.0000
    21 H21       -1.7244   -22.2136    14.7872 H          1 BB1          0.0000
    22 H22       -0.2753   -18.3689    13.9106 H          1 BB1          0.0000
    23 H23        1.0914   -18.3602    15.9588 H          1 BB1          0.0000
    24 H24        2.4435   -19.1189    15.0817 H          1 BB1          0.0000
    25 H25        1.2144   -16.3864    14.4914 H          1 BB1          0.0000
    26 H26        2.8059   -16.6871    15.2316 H          1 BB1          0.0000
    27 H27        3.0275   -16.2083    12.8080 H          1 BB1          0.0000
    28 H28        3.5365   -17.8722    13.1805 H          1 BB1          0.0000
    29 H29        2.1615   -19.7021    12.6437 H          1 BB1          0.0000
    30 H30        0.5852   -19.4586    11.8546 H          1 BB1          0.0000
    31 O1         1.5533   -15.7809    11.7534 O.3        2 BB2          0.0000
    32 C2         0.1671   -15.8328    12.0963 C.3        2 BB2          0.0000
    33 C3        -0.3909   -14.4108    12.1812 C.3        2 BB2          0.0000
    34 C4        -0.4040   -13.7839    10.7856 C.3        2 BB2          0.0000
    35 C5        -1.0947   -12.4851    10.8376 C.1        2 BB2          0.0000
    36 C6        -1.6456   -11.4492    10.8792 C.1        2 BB2          0.0000
    37 C7         0.0047   -16.5167    13.4294 C.2        2 BB2          0.0000
    38 O9        -0.6232   -17.5588    13.5075 O.2        2 BB2          0.0000
    39 H10       -0.3753   -16.3911    11.3332 H          2 BB2          0.0000
    40 H11       -1.4068   -14.4421    12.5750 H          2 BB2          0.0000
    41 H12        0.2367   -13.8131    12.8421 H          2 BB2          0.0000
    42 H13        0.6204   -13.6371    10.4436 H          2 BB2          0.0000
    43 H14       -0.9264   -14.4458    10.0948 H          2 BB2          0.0000
    44 H15       -2.1384   -10.5227    10.9163 H          2 BB2          0.0000
    45 H16        1.7824   -16.2892    10.9633 H          2 BB2          0.0000
@<TRIPOS>BOND
     1      1      2 1
     2      1      6 1
     3      1     13 1
     4      1     14 1
     5      2      3 1
     6      2     15 1
     7      2     16 1
     8      3      4 1
     9      3     17 1
    10      3     18 1
    11      4      5 1
    12      4      7 1
    13      4     19 1
    14      5      6 1
    15      6     20 1
    16      6     21 1
    17      7      8 1
    18      7     12 1
    19      7     22 1
    20      8      9 1
    21      8     23 1
    22      8     24 1
    23      9     10 1
    24      9     25 1
    25      9     26 1
    26     10     11 1
    27     10     27 1
    28     10     28 1
    29     11     12 1
    30     12     29 1
    31     12     30 1
    32     31     32 1
    33     31     45 1
    34     32     33 1
    35     32     37 1
    36     32     39 1
    37     33     34 1
    38     33     40 1
    39     33     41 1
    40     34     35 1
    41     34     42 1
    42     34     43 1
    43     35     36 3
    44     36     44 1
    45     37     38 2
    46     11     37 am
@<TRIPOS>SUBSTRUCTURE
     1 BB1          11
     2 BB2          37
@<TRIPOS>MOLECULE
EN300-269527_i002_EN300-19857_i001_9_14_1
  43   45   2   0   0
SMALL
USER_CHARGES
@<TRIPOS>ATOM
     1 C1        -0.1455   -23.2128    13.7134 C.3        1 BB1          0.0000
     2 C2         0.9572   -22.7754    14.6826 C.3        1 BB1          0.0000
     3 C3         1.3985   -21.3522    14.3278 C.3        1 BB1          0.0000
     4 C4         0.1828   -20.4229    14.3733 C.3        1 BB1          0.0000
     5 O5        -0.8166   -20.9038    13.4721 O.3        1 BB1          0.0000
     6 C6        -1.3015   -22.2117    13.7825 C.3        1 BB1          0.0000
     7 C7         0.6042   -19.0109    13.9616 C.3        1 BB1          0.0000
     8 C8         1.5878   -18.4498    14.9925 C.3        1 BB1          0.0000
     9 C9         2.0632   -17.0691    14.5312 C.3        1 BB1          0.0000
    10 C10        2.6878   -17.1896    13.1395 C.3        1 BB1          0.0000
    11 N11        1.6903   -17.7061    12.1946 N.am       1 BB1          0.0000
    12 C12        1.2828   -19.0593    12.5910 C.3        1 BB1          0.0000
    13 H13        0.2517   -23.2411    12.6987 H          1 BB1          0.0000
    14 H14       -0.5042   -24.2034    13.9928 H          1 BB1          0.0000
    15 H15        0.5744   -22.7948    15.7029 H          1 BB1          0.0000
    16 H16        1.8070   -23.4526    14.5976 H          1 BB1          0.0000
    17 H17        2.1440   -21.0122    15.0467 H          1 BB1          0.0000
    18 H18        1.8268   -21.3429    13.3255 H          1 BB1          0.0000
    19 H19       -0.2207   -20.4014    15.3856 H          1 BB1          0.0000
    20 H20       -2.0707   -22.4943    13.0638 H          1 BB1          0.0000
    21 H21       -1.7244   -22.2136    14.7872 H          1 BB1          0.0000
    22 H22       -0.2753   -18.3689    13.9106 H          1 BB1          0.0000
    23 H23        1.0914   -18.3602    15.9588 H          1 BB1          0.0000
    24 H24        2.4435   -19.1189    15.0817 H          1 BB1          0.0000
    25 H25        1.2144   -16.3864    14.4914 H          1 BB1          0.0000
    26 H26        2.8059   -16.6871    15.2316 H          1 BB1          0.0000
    27 H27        3.0275   -16.2083    12.8080 H          1 BB1          0.0000
    28 H28        3.5365   -17.8722    13.1805 H          1 BB1          0.0000
    29 H29        2.1615   -19.7021    12.6437 H          1 BB1          0.0000
    30 H30        0.5852   -19.4586    11.8546 H          1 BB1          0.0000
    31 O1        -0.5707   -17.3163    13.2432 O.2        2 BB2          0.0000
    32 C2        -0.2271   -16.1459    13.3298 C.2        2 BB2          0.0000
    33 C4        -0.2357   -15.2840    12.1323 C.ar       2 BB2          0.0000
    34 C5         0.2150   -15.7808    10.9070 C.ar       2 BB2          0.0000
    35 C6         0.2045   -14.9696     9.7912 C.ar       2 BB2          0.0000
    36 C7        -0.2510   -13.6665     9.8834 C.ar       2 BB2          0.0000
    37 C8        -0.6989   -13.1666    11.0947 C.ar       2 BB2          0.0000
    38 Br9       -1.3191   -11.3838    11.2084 Br         2 BB2          0.0000
    39 C10       -0.6998   -13.9688    12.2175 C.ar       2 BB2          0.0000
    40 H11        0.5712   -16.7977    10.8333 H          2 BB2          0.0000
    41 H12        0.5529   -15.3526     8.8435 H          2 BB2          0.0000
    42 H13       -0.2570   -13.0361     9.0065 H          2 BB2          0.0000
    43 H14       -1.0492   -13.5781    13.1619 H          2 BB2          0.0000
@<TRIPOS>BOND
     1      1      2 1
     2      1      6 1
     3      1     13 1
     4      1     14 1
     5      2      3 1
     6      2     15 1
     7      2     16 1
     8      3      4 1
     9      3     17 1
    10      3     18 1
    11      4      5 1
    12      4      7 1
    13      4     19 1
    14      5      6 1
    15      6     20 1
    16      6     21 1
    17      7      8 1
    18      7     12 1
    19      7     22 1
    20      8      9 1
    21      8     23 1
    22      8     24 1
    23      9     10 1
    24      9     25 1
    25      9     26 1
    26     10     11 1
    27     10     27 1
    28     10     28 1
    29     11     12 1
    30     12     29 1
    31     12     30 1
    32     31     32 2
    33     32     33 1
    34     33     34 ar
    35     33     39 ar
    36     34     35 ar
    37     34     40 1
    38     35     36 ar
    39     35     41 1
    40     36     37 ar
    41     36     42 1
    42     37     38 1
    43     37     39 ar
    44     39     43 1
    45     11     32 am
@<TRIPOS>SUBSTRUCTURE
     1 BB1          11
     2 BB2          32
@<TRIPOS>MOLECULE
EN300-269527_i002_EN300-19857_i001_9_15_1
  43   45   2   0   0
SMALL
USER_CHARGES
@<TRIPOS>ATOM
     1 C1        -0.1455   -23.2128    13.7134 C.3        1 BB1          0.0000
     2 C2         0.9572   -22.7754    14.6826 C.3        1 BB1          0.0000
     3 C3         1.3985   -21.3522    14.3278 C.3        1 BB1          0.0000
     4 C4         0.1828   -20.4229    14.3733 C.3        1 BB1          0.0000
     5 O5        -0.8166   -20.9038    13.4721 O.3        1 BB1          0.0000
     6 C6        -1.3015   -22.2117    13.7825 C.3        1 BB1          0.0000
     7 C7         0.6042   -19.0109    13.9616 C.3        1 BB1          0.0000
     8 C8         1.5878   -18.4498    14.9925 C.3        1 BB1          0.0000
     9 C9         2.0632   -17.0691    14.5312 C.3        1 BB1          0.0000
    10 C10        2.6878   -17.1896    13.1395 C.3        1 BB1          0.0000
    11 N11        1.6903   -17.7061    12.1946 N.am       1 BB1          0.0000
    12 C12        1.2828   -19.0593    12.5910 C.3        1 BB1          0.0000
    13 H13        0.2517   -23.2411    12.6987 H          1 BB1          0.0000
    14 H14       -0.5042   -24.2034    13.9928 H          1 BB1          0.0000
    15 H15        0.5744   -22.7948    15.7029 H          1 BB1          0.0000
    16 H16        1.8070   -23.4526    14.5976 H          1 BB1          0.0000
    17 H17        2.1440   -21.0122    15.0467 H          1 BB1          0.0000
    18 H18        1.8268   -21.3429    13.3255 H          1 BB1          0.0000
    19 H19       -0.2207   -20.4014    15.3856 H          1 BB1          0.0000
    20 H20       -2.0707   -22.4943    13.0638 H          1 BB1          0.0000
    21 H21       -1.7244   -22.2136    14.7872 H          1 BB1          0.0000
    22 H22       -0.2753   -18.3689    13.9106 H          1 BB1          0.0000
    23 H23        1.0914   -18.3602    15.9588 H          1 BB1          0.0000
    24 H24        2.4435   -19.1189    15.0817 H          1 BB1          0.0000
    25 H25        1.2144   -16.3864    14.4914 H          1 BB1          0.0000
    26 H26        2.8059   -16.6871    15.2316 H          1 BB1          0.0000
    27 H27        3.0275   -16.2083    12.8080 H          1 BB1          0.0000
    28 H28        3.5365   -17.8722    13.1805 H          1 BB1          0.0000
    29 H29        2.1615   -19.7021    12.6437 H          1 BB1          0.0000
    30 H30        0.5852   -19.4586    11.8546 H          1 BB1          0.0000
    31 C2         0.4308   -15.7600    12.9387 C.2        2 BB2          0.0000
    32 O3         0.9294   -16.8458    12.6777 O.2        2 BB2          0.0000
    33 C4         0.1148   -14.8131    11.8522 C.ar       2 BB2          0.0000
    34 C5        -0.7069   -13.7107    12.0991 C.ar       2 BB2          0.0000
    35 C6        -0.9985   -12.8293    11.0788 C.ar       2 BB2          0.0000
    36 C7        -0.4794   -13.0347     9.8130 C.ar       2 BB2          0.0000
    37 C8         0.3356   -14.1255     9.5602 C.ar       2 BB2          0.0000
    38 Br9        1.0393   -14.3958     7.8260 Br         2 BB2          0.0000
    39 C10        0.6406   -15.0118    10.5730 C.ar       2 BB2          0.0000
    40 H11       -1.1132   -13.5490    13.0866 H          2 BB2          0.0000
    41 H12       -1.6339   -11.9768    11.2686 H          2 BB2          0.0000
    42 H13       -0.7111   -12.3413     9.0181 H          2 BB2          0.0000
    43 H14        1.2763   -15.8623    10.3750 H          2 BB2          0.0000
@<TRIPOS>BOND
     1      1      2 1
     2      1      6 1
     3      1     13 1
     4      1     14 1
     5      2      3 1
     6      2     15 1
     7      2     16 1
     8      3      4 1
     9      3     17 1
    10      3     18 1
    11      4      5 1
    12      4      7 1
    13      4     19 1
    14      5      6 1
    15      6     20 1
    16      6     21 1
    17      7      8 1
    18      7     12 1
    19      7     22 1
    20      8      9 1
    21      8     23 1
    22      8     24 1
    23      9     10 1
    24      9     25 1
    25      9     26 1
    26     10     11 1
    27     10     27 1
    28     10     28 1
    29     11     12 1
    30     12     29 1
    31     12     30 1
    32     31     32 2
    33     31     33 1
    34     33     34 ar
    35     33     39 ar
    36     34     35 ar
    37     34     40 1
    38     35     36 ar
    39     35     41 1
    40     36     37 ar
    41     36     42 1
    42     37     38 1
    43     37     39 ar
    44     39     43 1
    45     11     31 am
@<TRIPOS>SUBSTRUCTURE
     1 BB1          11
     2 BB2          31
@<TRIPOS>MOLECULE
EN300-269527_i002_EN300-19857_i001_9_19_1
  43   45   2   0   0
SMALL
USER_CHARGES
@<TRIPOS>ATOM
     1 C1        -0.1455   -23.2128    13.7134 C.3        1 BB1          0.0000
     2 C2         0.9572   -22.7754    14.6826 C.3        1 BB1          0.0000
     3 C3         1.3985   -21.3522    14.3278 C.3        1 BB1          0.0000
     4 C4         0.1828   -20.4229    14.3733 C.3        1 BB1          0.0000
     5 O5        -0.8166   -20.9038    13.4721 O.3        1 BB1          0.0000
     6 C6        -1.3015   -22.2117    13.7825 C.3        1 BB1          0.0000
     7 C7         0.6042   -19.0109    13.9616 C.3        1 BB1          0.0000
     8 C8         1.5878   -18.4498    14.9925 C.3        1 BB1          0.0000
     9 C9         2.0632   -17.0691    14.5312 C.3        1 BB1          0.0000
    10 C10        2.6878   -17.1896    13.1395 C.3        1 BB1          0.0000
    11 N11        1.6903   -17.7061    12.1946 N.am       1 BB1          0.0000
    12 C12        1.2828   -19.0593    12.5910 C.3        1 BB1          0.0000
    13 H13        0.2517   -23.2411    12.6987 H          1 BB1          0.0000
    14 H14       -0.5042   -24.2034    13.9928 H          1 BB1          0.0000
    15 H15        0.5744   -22.7948    15.7029 H          1 BB1          0.0000
    16 H16        1.8070   -23.4526    14.5976 H          1 BB1          0.0000
    17 H17        2.1440   -21.0122    15.0467 H          1 BB1          0.0000
    18 H18        1.8268   -21.3429    13.3255 H          1 BB1          0.0000
    19 H19       -0.2207   -20.4014    15.3856 H          1 BB1          0.0000
    20 H20       -2.0707   -22.4943    13.0638 H          1 BB1          0.0000
    21 H21       -1.7244   -22.2136    14.7872 H          1 BB1          0.0000
    22 H22       -0.2753   -18.3689    13.9106 H          1 BB1          0.0000
    23 H23        1.0914   -18.3602    15.9588 H          1 BB1          0.0000
    24 H24        2.4435   -19.1189    15.0817 H          1 BB1          0.0000
    25 H25        1.2144   -16.3864    14.4914 H          1 BB1          0.0000
    26 H26        2.8059   -16.6871    15.2316 H          1 BB1          0.0000
    27 H27        3.0275   -16.2083    12.8080 H          1 BB1          0.0000
    28 H28        3.5365   -17.8722    13.1805 H          1 BB1          0.0000
    29 H29        2.1615   -19.7021    12.6437 H          1 BB1          0.0000
    30 H30        0.5852   -19.4586    11.8546 H          1 BB1          0.0000
    31 O1         0.4960   -16.3601    11.6857 O.2        2 BB2          0.0000
    32 C2         0.1084   -15.2492    12.0190 C.2        2 BB2          0.0000
    33 C4        -0.1003   -14.2039    10.9989 C.ar       2 BB2          0.0000
    34 C5         0.6067   -14.2472     9.7949 C.ar       2 BB2          0.0000
    35 C6         0.4070   -13.2666     8.8454 C.ar       2 BB2          0.0000
    36 C7        -0.4913   -12.2416     9.0830 C.ar       2 BB2          0.0000
    37 C8        -1.1956   -12.1914    10.2743 C.ar       2 BB2          0.0000
    38 Br9       -2.4207   -10.7854    10.5877 Br         2 BB2          0.0000
    39 C10       -1.0103   -13.1691    11.2304 C.ar       2 BB2          0.0000
    40 H11        1.3085   -15.0465     9.6080 H          2 BB2          0.0000
    41 H12        0.9533   -13.2990     7.9144 H          2 BB2          0.0000
    42 H13       -0.6436   -11.4766     8.3360 H          2 BB2          0.0000
    43 H14       -1.5600   -13.1293    12.1592 H          2 BB2          0.0000
@<TRIPOS>BOND
     1      1      2 1
     2      1      6 1
     3      1     13 1
     4      1     14 1
     5      2      3 1
     6      2     15 1
     7      2     16 1
     8      3      4 1
     9      3     17 1
    10      3     18 1
    11      4      5 1
    12      4      7 1
    13      4     19 1
    14      5      6 1
    15      6     20 1
    16      6     21 1
    17      7      8 1
    18      7     12 1
    19      7     22 1
    20      8      9 1
    21      8     23 1
    22      8     24 1
    23      9     10 1
    24      9     25 1
    25      9     26 1
    26     10     11 1
    27     10     27 1
    28     10     28 1
    29     11     12 1
    30     12     29 1
    31     12     30 1
    32     31     32 2
    33     32     33 1
    34     33     34 ar
    35     33     39 ar
    36     34     35 ar
    37     34     40 1
    38     35     36 ar
    39     35     41 1
    40     36     37 ar
    41     36     42 1
    42     37     38 1
    43     37     39 ar
    44     39     43 1
    45     11     32 am
@<TRIPOS>SUBSTRUCTURE
     1 BB1          11
     2 BB2          32
@<TRIPOS>MOLECULE
EN300-269527_i002_EN300-1165841_i001_9_9_1
  58   60   2   0   0
SMALL
USER_CHARGES
@<TRIPOS>ATOM
     1 C1        -0.1455   -23.2128    13.7134 C.3        1 BB1          0.0000
     2 C2         0.9572   -22.7754    14.6826 C.3        1 BB1          0.0000
     3 C3         1.3985   -21.3522    14.3278 C.3        1 BB1          0.0000
     4 C4         0.1828   -20.4229    14.3733 C.3        1 BB1          0.0000
     5 O5        -0.8166   -20.9038    13.4721 O.3        1 BB1          0.0000
     6 C6        -1.3015   -22.2117    13.7825 C.3        1 BB1          0.0000
     7 C7         0.6042   -19.0109    13.9616 C.3        1 BB1          0.0000
     8 C8         1.5878   -18.4498    14.9925 C.3        1 BB1          0.0000
     9 C9         2.0632   -17.0691    14.5312 C.3        1 BB1          0.0000
    10 C10        2.6878   -17.1896    13.1395 C.3        1 BB1          0.0000
    11 N11        1.6903   -17.7061    12.1946 N.am       1 BB1          0.0000
    12 C12        1.2828   -19.0593    12.5910 C.3        1 BB1          0.0000
    13 H13        0.2517   -23.2411    12.6987 H          1 BB1          0.0000
    14 H14       -0.5042   -24.2034    13.9928 H          1 BB1          0.0000
    15 H15        0.5744   -22.7948    15.7029 H          1 BB1          0.0000
    16 H16        1.8070   -23.4526    14.5976 H          1 BB1          0.0000
    17 H17        2.1440   -21.0122    15.0467 H          1 BB1          0.0000
    18 H18        1.8268   -21.3429    13.3255 H          1 BB1          0.0000
    19 H19       -0.2207   -20.4014    15.3856 H          1 BB1          0.0000
    20 H20       -2.0707   -22.4943    13.0638 H          1 BB1          0.0000
    21 H21       -1.7244   -22.2136    14.7872 H          1 BB1          0.0000
    22 H22       -0.2753   -18.3689    13.9106 H          1 BB1          0.0000
    23 H23        1.0914   -18.3602    15.9588 H          1 BB1          0.0000
    24 H24        2.4435   -19.1189    15.0817 H          1 BB1          0.0000
    25 H25        1.2144   -16.3864    14.4914 H          1 BB1          0.0000
    26 H26        2.8059   -16.6871    15.2316 H          1 BB1          0.0000
    27 H27        3.0275   -16.2083    12.8080 H          1 BB1          0.0000
    28 H28        3.5365   -17.8722    13.1805 H          1 BB1          0.0000
    29 H29        2.1615   -19.7021    12.6437 H          1 BB1          0.0000
    30 H30        0.5852   -19.4586    11.8546 H          1 BB1          0.0000
    31 C1        -0.4775   -18.1700    10.2903 C.3        2 BB2          0.0000
    32 C2        -0.3453   -16.7630    10.8767 C.3        2 BB2          0.0000
    33 N3         0.3038   -15.8828     9.8960 N.4        2 BB2          1.0000
    34 C4         0.2669   -14.4986    10.3832 C.3        2 BB2          0.0000
    35 C5         1.0128   -13.5892     9.4043 C.3        2 BB2          0.0000
    36 C6         0.3403   -13.6667     8.0306 C.3        2 BB2          0.0000
    37 O7        -0.9980   -13.1748     8.1253 O.3        2 BB2          0.0000
    38 C8         0.3180   -15.1256     7.5655 C.3        2 BB2          0.0000
    39 C9        -0.4021   -15.9780     8.6126 C.3        2 BB2          0.0000
    40 C10        1.0969   -12.8523     7.0656 C.1        2 BB2          0.0000
    41 C11        1.7003   -12.2027     6.2959 C.1        2 BB2          0.0000
    42 C12        0.4877   -16.8178    12.1313 C.2        2 BB2          0.0000
    43 O13        0.9510   -17.8803    12.5095 O.2        2 BB2          0.0000
    44 H15        0.5126   -18.5589    10.0524 H          2 BB2          0.0000
    45 H16       -0.9591   -18.8231    11.0180 H          2 BB2          0.0000
    46 H17       -1.0800   -18.1303     9.3829 H          2 BB2          0.0000
    47 H18       -1.3354   -16.3740    11.1147 H          2 BB2          0.0000
    48 H19       -0.7692   -14.1705    10.4658 H          2 BB2          0.0000
    49 H20        0.7430   -14.4457    11.3623 H          2 BB2          0.0000
    50 H21        0.9827   -12.5618     9.7668 H          2 BB2          0.0000
    51 H22        2.0492   -13.9164     9.3211 H          2 BB2          0.0000
    52 H23       -0.2086   -15.1963     6.6138 H          2 BB2          0.0000
    53 H24        1.3401   -15.4846     7.4442 H          2 BB2          0.0000
    54 H25       -0.4200   -17.0173     8.2846 H          2 BB2          0.0000
    55 H26       -1.4240   -15.6184     8.7329 H          2 BB2          0.0000
    56 H27        2.2399   -11.6219     5.6077 H          2 BB2          0.0000
    57 H28       -1.1530   -12.6008     8.8879 H          2 BB2          0.0000
    58 H29        1.2633   -16.1691     9.7718 H          2 BB2          0.0000
@<TRIPOS>BOND
     1      1      2 1
     2      1      6 1
     3      1     13 1
     4      1     14 1
     5      2      3 1
     6      2     15 1
     7      2     16 1
     8      3      4 1
     9      3     17 1
    10      3     18 1
    11      4      5 1
    12      4      7 1
    13      4     19 1
    14      5      6 1
    15      6     20 1
    16      6     21 1
    17      7      8 1
    18      7     12 1
    19      7     22 1
    20      8      9 1
    21      8     23 1
    22      8     24 1
    23      9     10 1
    24      9     25 1
    25      9     26 1
    26     10     11 1
    27     10     27 1
    28     10     28 1
    29     11     12 1
    30     12     29 1
    31     12     30 1
    32     31     32 1
    33     31     44 1
    34     31     45 1
    35     31     46 1
    36     32     33 1
    37     32     42 1
    38     32     47 1
    39     33     34 1
    40     33     39 1
    41     33     58 1
    42     34     35 1
    43     34     48 1
    44     34     49 1
    45     35     36 1
    46     35     50 1
    47     35     51 1
    48     36     37 1
    49     36     38 1
    50     36     40 1
    51     37     57 1
    52     38     39 1
    53     38     52 1
    54     38     53 1
    55     39     54 1
    56     39     55 1
    57     40     41 3
    58     41     56 1
    59     42     43 2
    60     11     42 am
@<TRIPOS>SUBSTRUCTURE
     1 BB1          11
     2 BB2          42
@<TRIPOS>MOLECULE
EN300-269527_i002_EN300-29801_i001_9_1_1
  63   64   2   0   0
SMALL
USER_CHARGES
@<TRIPOS>ATOM
     1 C1        -0.1455   -23.2128    13.7134 C.3        1 BB1          0.0000
     2 C2         0.9572   -22.7754    14.6826 C.3        1 BB1          0.0000
     3 C3         1.3985   -21.3522    14.3278 C.3        1 BB1          0.0000
     4 C4         0.1828   -20.4229    14.3733 C.3        1 BB1          0.0000
     5 O5        -0.8166   -20.9038    13.4721 O.3        1 BB1          0.0000
     6 C6        -1.3015   -22.2117    13.7825 C.3        1 BB1          0.0000
     7 C7         0.6042   -19.0109    13.9616 C.3        1 BB1          0.0000
     8 C8         1.5878   -18.4498    14.9925 C.3        1 BB1          0.0000
     9 C9         2.0632   -17.0691    14.5312 C.3        1 BB1          0.0000
    10 C10        2.6878   -17.1896    13.1395 C.3        1 BB1          0.0000
    11 N11        1.6903   -17.7061    12.1946 N.am       1 BB1          0.0000
    12 C12        1.2828   -19.0593    12.5910 C.3        1 BB1          0.0000
    13 H13        0.2517   -23.2411    12.6987 H          1 BB1          0.0000
    14 H14       -0.5042   -24.2034    13.9928 H          1 BB1          0.0000
    15 H15        0.5744   -22.7948    15.7029 H          1 BB1          0.0000
    16 H16        1.8070   -23.4526    14.5976 H          1 BB1          0.0000
    17 H17        2.1440   -21.0122    15.0467 H          1 BB1          0.0000
    18 H18        1.8268   -21.3429    13.3255 H          1 BB1          0.0000
    19 H19       -0.2207   -20.4014    15.3856 H          1 BB1          0.0000
    20 H20       -2.0707   -22.4943    13.0638 H          1 BB1          0.0000
    21 H21       -1.7244   -22.2136    14.7872 H          1 BB1          0.0000
    22 H22       -0.2753   -18.3689    13.9106 H          1 BB1          0.0000
    23 H23        1.0914   -18.3602    15.9588 H          1 BB1          0.0000
    24 H24        2.4435   -19.1189    15.0817 H          1 BB1          0.0000
    25 H25        1.2144   -16.3864    14.4914 H          1 BB1          0.0000
    26 H26        2.8059   -16.6871    15.2316 H          1 BB1          0.0000
    27 H27        3.0275   -16.2083    12.8080 H          1 BB1          0.0000
    28 H28        3.5365   -17.8722    13.1805 H          1 BB1          0.0000
    29 H29        2.1615   -19.7021    12.6437 H          1 BB1          0.0000
    30 H30        0.5852   -19.4586    11.8546 H          1 BB1          0.0000
    31 C1        -0.9111   -18.4258     9.2021 C.3        2 BB2          0.0000
    32 S2        -0.4253   -19.5600    10.5319 S.3        2 BB2          0.0000
    33 C3         0.2245   -18.4423    11.8044 C.3        2 BB2          0.0000
    34 C4        -0.7278   -17.2573    11.9769 C.3        2 BB2          0.0000
    35 C5         0.0837   -15.9741    12.1659 C.3        2 BB2          0.0000
    36 N6         0.8220   -15.6776    10.9357 N.am       2 BB2          0.0000
    37 C7         0.5402   -14.5627    10.2328 C.2        2 BB2          0.0000
    38 O8        -0.3261   -13.8034    10.6195 O.2        2 BB2          0.0000
    39 O9         1.2187   -14.2902     9.1023 O.3        2 BB2          0.0000
    40 C10        0.6373   -13.3075     8.2052 C.3        2 BB2          0.0000
    41 C11        0.6808   -11.9271     8.8637 C.3        2 BB2          0.0000
    42 C12        1.4339   -13.2749     6.8993 C.3        2 BB2          0.0000
    43 C13       -0.8151   -13.6850     7.9074 C.3        2 BB2          0.0000
    44 C14        1.0554   -16.1570    13.3031 C.2        2 BB2          0.0000
    45 O16        2.0409   -16.8597    13.1558 O.2        2 BB2          0.0000
    46 H17       -1.6644   -17.7314     9.5739 H          2 BB2          0.0000
    47 H18       -0.0381   -17.8679     8.8634 H          2 BB2          0.0000
    48 H19       -1.3226   -18.9970     8.3698 H          2 BB2          0.0000
    49 H20        0.3116   -18.9789    12.7491 H          2 BB2          0.0000
    50 H21        1.2062   -18.0784    11.5015 H          2 BB2          0.0000
    51 H22       -1.3551   -17.1632    11.0905 H          2 BB2          0.0000
    52 H23       -1.3572   -17.4213    12.8517 H          2 BB2          0.0000
    53 H24       -0.5903   -15.1481    12.3932 H          2 BB2          0.0000
    54 H25        1.7156   -11.6582     9.0759 H          2 BB2          0.0000
    55 H26        0.2444   -11.1895     8.1903 H          2 BB2          0.0000
    56 H27        0.1134   -11.9504     9.7941 H          2 BB2          0.0000
    57 H28        1.4029   -14.2583     6.4302 H          2 BB2          0.0000
    58 H29        0.9975   -12.5371     6.2259 H          2 BB2          0.0000
    59 H30        2.4687   -13.0059     7.1115 H          2 BB2          0.0000
    60 H31       -1.3826   -13.7083     8.8377 H          2 BB2          0.0000
    61 H32       -1.2515   -12.9473     7.2340 H          2 BB2          0.0000
    62 H33       -0.8460   -14.6684     7.4382 H          2 BB2          0.0000
    63 H34        1.5134   -16.2838    10.6270 H          2 BB2          0.0000
@<TRIPOS>BOND
     1      1      2 1
     2      1      6 1
     3      1     13 1
     4      1     14 1
     5      2      3 1
     6      2     15 1
     7      2     16 1
     8      3      4 1
     9      3     17 1
    10      3     18 1
    11      4      5 1
    12      4      7 1
    13      4     19 1
    14      5      6 1
    15      6     20 1
    16      6     21 1
    17      7      8 1
    18      7     12 1
    19      7     22 1
    20      8      9 1
    21      8     23 1
    22      8     24 1
    23      9     10 1
    24      9     25 1
    25      9     26 1
    26     10     11 1
    27     10     27 1
    28     10     28 1
    29     11     12 1
    30     12     29 1
    31     12     30 1
    32     31     32 1
    33     31     46 1
    34     31     47 1
    35     31     48 1
    36     32     33 1
    37     33     34 1
    38     33     49 1
    39     33     50 1
    40     34     35 1
    41     34     51 1
    42     34     52 1
    43     35     36 1
    44     35     44 1
    45     35     53 1
    46     36     37 am
    47     36     63 1
    48     37     38 2
    49     37     39 1
    50     39     40 1
    51     40     41 1
    52     40     42 1
    53     40     43 1
    54     41     54 1
    55     41     55 1
    56     41     56 1
    57     42     57 1
    58     42     58 1
    59     42     59 1
    60     43     60 1
    61     43     61 1
    62     43     62 1
    63     44     45 2
    64     11     44 am
@<TRIPOS>SUBSTRUCTURE
     1 BB1          11
     2 BB2          44
@<TRIPOS>MOLECULE
EN300-269527_i002_EN300-222254_i002_9_1_1
  53   56   2   0   0
SMALL
USER_CHARGES
@<TRIPOS>ATOM
     1 C1        -0.1455   -23.2128    13.7134 C.3        1 BB1          0.0000
     2 C2         0.9572   -22.7754    14.6826 C.3        1 BB1          0.0000
     3 C3         1.3985   -21.3522    14.3278 C.3        1 BB1          0.0000
     4 C4         0.1828   -20.4229    14.3733 C.3        1 BB1          0.0000
     5 O5        -0.8166   -20.9038    13.4721 O.3        1 BB1          0.0000
     6 C6        -1.3015   -22.2117    13.7825 C.3        1 BB1          0.0000
     7 C7         0.6042   -19.0109    13.9616 C.3        1 BB1          0.0000
     8 C8         1.5878   -18.4498    14.9925 C.3        1 BB1          0.0000
     9 C9         2.0632   -17.0691    14.5312 C.3        1 BB1          0.0000
    10 C10        2.6878   -17.1896    13.1395 C.3        1 BB1          0.0000
    11 N11        1.6903   -17.7061    12.1946 N.am       1 BB1          0.0000
    12 C12        1.2828   -19.0593    12.5910 C.3        1 BB1          0.0000
    13 H13        0.2517   -23.2411    12.6987 H          1 BB1          0.0000
    14 H14       -0.5042   -24.2034    13.9928 H          1 BB1          0.0000
    15 H15        0.5744   -22.7948    15.7029 H          1 BB1          0.0000
    16 H16        1.8070   -23.4526    14.5976 H          1 BB1          0.0000
    17 H17        2.1440   -21.0122    15.0467 H          1 BB1          0.0000
    18 H18        1.8268   -21.3429    13.3255 H          1 BB1          0.0000
    19 H19       -0.2207   -20.4014    15.3856 H          1 BB1          0.0000
    20 H20       -2.0707   -22.4943    13.0638 H          1 BB1          0.0000
    21 H21       -1.7244   -22.2136    14.7872 H          1 BB1          0.0000
    22 H22       -0.2753   -18.3689    13.9106 H          1 BB1          0.0000
    23 H23        1.0914   -18.3602    15.9588 H          1 BB1          0.0000
    24 H24        2.4435   -19.1189    15.0817 H          1 BB1          0.0000
    25 H25        1.2144   -16.3864    14.4914 H          1 BB1          0.0000
    26 H26        2.8059   -16.6871    15.2316 H          1 BB1          0.0000
    27 H27        3.0275   -16.2083    12.8080 H          1 BB1          0.0000
    28 H28        3.5365   -17.8722    13.1805 H          1 BB1          0.0000
    29 H29        2.1615   -19.7021    12.6437 H          1 BB1          0.0000
    30 H30        0.5852   -19.4586    11.8546 H          1 BB1          0.0000
    31 C2         0.7196   -16.0614    13.6158 C.2        2 BB2          0.0000
    32 O3         1.8368   -16.5307    13.4803 O.2        2 BB2          0.0000
    33 C4        -0.2410   -16.0554    12.4548 C.3        2 BB2          0.0000
    34 C5        -0.3307   -17.4046    11.7223 C.3        2 BB2          0.0000
    35 C6        -0.3838   -16.6008    10.4125 C.3        2 BB2          0.0000
    36 C7         0.3603   -15.4822    11.1606 C.3        2 BB2          0.0000
    37 C8        -0.1351   -14.0989    10.8258 C.ar       2 BB2          0.0000
    38 C9        -0.9924   -13.4442    11.6893 C.ar       2 BB2          0.0000
    39 C10       -1.4477   -12.1754    11.3827 C.ar       2 BB2          0.0000
    40 C11       -1.0451   -11.5594    10.2112 C.ar       2 BB2          0.0000
    41 Cl12      -1.6170    -9.9659     9.8274 Cl         2 BB2          0.0000
    42 C13       -0.1865   -12.2132     9.3458 C.ar       2 BB2          0.0000
    43 C14        0.2735   -13.4815     9.6554 C.ar       2 BB2          0.0000
    44 F15        1.1125   -14.1209     8.8113 F          2 BB2          0.0000
    45 H16       -1.2123   -15.6324    12.7112 H          2 BB2          0.0000
    46 H17        0.5657   -18.0166    11.8231 H          2 BB2          0.0000
    47 H18       -1.2468   -17.9561    11.9336 H          2 BB2          0.0000
    48 H19        0.1958   -17.0455     9.6035 H          2 BB2          0.0000
    49 H20       -1.3941   -16.3263    10.1093 H          2 BB2          0.0000
    50 H21        1.4456   -15.5685    11.1078 H          2 BB2          0.0000
    51 H22       -1.3074   -13.9242    12.6042 H          2 BB2          0.0000
    52 H23       -2.1183   -11.6648    12.0580 H          2 BB2          0.0000
    53 H24        0.1280   -11.7327     8.4312 H          2 BB2          0.0000
@<TRIPOS>BOND
     1      1      2 1
     2      1      6 1
     3      1     13 1
     4      1     14 1
     5      2      3 1
     6      2     15 1
     7      2     16 1
     8      3      4 1
     9      3     17 1
    10      3     18 1
    11      4      5 1
    12      4      7 1
    13      4     19 1
    14      5      6 1
    15      6     20 1
    16      6     21 1
    17      7      8 1
    18      7     12 1
    19      7     22 1
    20      8      9 1
    21      8     23 1
    22      8     24 1
    23      9     10 1
    24      9     25 1
    25      9     26 1
    26     10     11 1
    27     10     27 1
    28     10     28 1
    29     11     12 1
    30     12     29 1
    31     12     30 1
    32     31     32 2
    33     31     33 1
    34     33     34 1
    35     33     36 1
    36     33     45 1
    37     34     35 1
    38     34     46 1
    39     34     47 1
    40     35     36 1
    41     35     48 1
    42     35     49 1
    43     36     37 1
    44     36     50 1
    45     37     38 ar
    46     37     43 ar
    47     38     39 ar
    48     38     51 1
    49     39     40 ar
    50     39     52 1
    51     40     41 1
    52     40     42 ar
    53     42     43 ar
    54     42     53 1
    55     43     44 1
    56     11     31 am
@<TRIPOS>SUBSTRUCTURE
     1 BB1          11
     2 BB2          31
@<TRIPOS>MOLECULE
EN300-269527_i002_EN300-315786_i001_9_1_1
  58   61   2   0   0
SMALL
USER_CHARGES
@<TRIPOS>ATOM
     1 C1        -0.1455   -23.2128    13.7134 C.3        1 BB1          0.0000
     2 C2         0.9572   -22.7754    14.6826 C.3        1 BB1          0.0000
     3 C3         1.3985   -21.3522    14.3278 C.3        1 BB1          0.0000
     4 C4         0.1828   -20.4229    14.3733 C.3        1 BB1          0.0000
     5 O5        -0.8166   -20.9038    13.4721 O.3        1 BB1          0.0000
     6 C6        -1.3015   -22.2117    13.7825 C.3        1 BB1          0.0000
     7 C7         0.6042   -19.0109    13.9616 C.3        1 BB1          0.0000
     8 C8         1.5878   -18.4498    14.9925 C.3        1 BB1          0.0000
     9 C9         2.0632   -17.0691    14.5312 C.3        1 BB1          0.0000
    10 C10        2.6878   -17.1896    13.1395 C.3        1 BB1          0.0000
    11 N11        1.6903   -17.7061    12.1946 N.am       1 BB1          0.0000
    12 C12        1.2828   -19.0593    12.5910 C.3        1 BB1          0.0000
    13 H13        0.2517   -23.2411    12.6987 H          1 BB1          0.0000
    14 H14       -0.5042   -24.2034    13.9928 H          1 BB1          0.0000
    15 H15        0.5744   -22.7948    15.7029 H          1 BB1          0.0000
    16 H16        1.8070   -23.4526    14.5976 H          1 BB1          0.0000
    17 H17        2.1440   -21.0122    15.0467 H          1 BB1          0.0000
    18 H18        1.8268   -21.3429    13.3255 H          1 BB1          0.0000
    19 H19       -0.2207   -20.4014    15.3856 H          1 BB1          0.0000
    20 H20       -2.0707   -22.4943    13.0638 H          1 BB1          0.0000
    21 H21       -1.7244   -22.2136    14.7872 H          1 BB1          0.0000
    22 H22       -0.2753   -18.3689    13.9106 H          1 BB1          0.0000
    23 H23        1.0914   -18.3602    15.9588 H          1 BB1          0.0000
    24 H24        2.4435   -19.1189    15.0817 H          1 BB1          0.0000
    25 H25        1.2144   -16.3864    14.4914 H          1 BB1          0.0000
    26 H26        2.8059   -16.6871    15.2316 H          1 BB1          0.0000
    27 H27        3.0275   -16.2083    12.8080 H          1 BB1          0.0000
    28 H28        3.5365   -17.8722    13.1805 H          1 BB1          0.0000
    29 H29        2.1615   -19.7021    12.6437 H          1 BB1          0.0000
    30 H30        0.5852   -19.4586    11.8546 H          1 BB1          0.0000
    31 C2        -0.0431   -16.8871    13.6453 C.2        2 BB2          0.0000
    32 O3        -0.5421   -17.9909    13.8113 O.2        2 BB2          0.0000
    33 C4         0.1511   -16.3620    12.2777 C.ar       2 BB2          0.0000
    34 C5         0.9072   -15.2055    12.0741 C.ar       2 BB2          0.0000
    35 C6         1.0879   -14.7164    10.7984 C.ar       2 BB2          0.0000
    36 C7         0.5155   -15.3762     9.7102 C.ar       2 BB2          0.0000
    37 C8        -0.2401   -16.5316     9.9129 C.ar       2 BB2          0.0000
    38 C9        -0.4168   -17.0252    11.1875 C.ar       2 BB2          0.0000
    39 C10        0.7097   -14.8496     8.3397 C.2        2 BB2          0.0000
    40 O11        1.2660   -15.5300     7.5005 O.2        2 BB2          0.0000
    41 N12        0.2693   -13.6158     8.0232 N.am       2 BB2          0.0000
    42 C13       -0.3324   -12.7415     9.0425 C.3        2 BB2          0.0000
    43 C14        0.3584   -11.3747     8.9759 C.3        2 BB2          0.0000
    44 O15        0.3256   -10.8958     7.6294 O.3        2 BB2          0.0000
    45 C16        1.0327   -11.7185     6.6982 C.3        2 BB2          0.0000
    46 C17        0.3815   -13.1008     6.6492 C.3        2 BB2          0.0000
    47 H18        1.3500   -14.6945    12.9163 H          2 BB2          0.0000
    48 H19        1.6724   -13.8218    10.6409 H          2 BB2          0.0000
    49 H20       -0.6831   -17.0416     9.0702 H          2 BB2          0.0000
    50 H21       -1.0013   -17.9196    11.3442 H          2 BB2          0.0000
    51 H22       -1.3977   -12.6246     8.8434 H          2 BB2          0.0000
    52 H23       -0.1890   -13.1776    10.0311 H          2 BB2          0.0000
    53 H24       -0.1628   -10.6713     9.6253 H          2 BB2          0.0000
    54 H25        1.3938   -11.4738     9.3019 H          2 BB2          0.0000
    55 H26        0.9965   -11.2625     5.7088 H          2 BB2          0.0000
    56 H27        2.0704   -11.8188     7.0159 H          2 BB2          0.0000
    57 H28        0.9955   -13.7750     6.0520 H          2 BB2          0.0000
    58 H29       -0.6130   -13.0228     6.2100 H          2 BB2          0.0000
@<TRIPOS>BOND
     1      1      2 1
     2      1      6 1
     3      1     13 1
     4      1     14 1
     5      2      3 1
     6      2     15 1
     7      2     16 1
     8      3      4 1
     9      3     17 1
    10      3     18 1
    11      4      5 1
    12      4      7 1
    13      4     19 1
    14      5      6 1
    15      6     20 1
    16      6     21 1
    17      7      8 1
    18      7     12 1
    19      7     22 1
    20      8      9 1
    21      8     23 1
    22      8     24 1
    23      9     10 1
    24      9     25 1
    25      9     26 1
    26     10     11 1
    27     10     27 1
    28     10     28 1
    29     11     12 1
    30     12     29 1
    31     12     30 1
    32     31     32 2
    33     31     33 1
    34     33     34 ar
    35     33     38 ar
    36     34     35 ar
    37     34     47 1
    38     35     36 ar
    39     35     48 1
    40     36     37 ar
    41     36     39 1
    42     37     38 ar
    43     37     49 1
    44     38     50 1
    45     39     40 2
    46     39     41 am
    47     41     42 1
    48     41     46 1
    49     42     43 1
    50     42     51 1
    51     42     52 1
    52     43     44 1
    53     43     53 1
    54     43     54 1
    55     44     45 1
    56     45     46 1
    57     45     55 1
    58     45     56 1
    59     46     57 1
    60     46     58 1
    61     11     31 am
@<TRIPOS>SUBSTRUCTURE
     1 BB1          11
     2 BB2          31
@<TRIPOS>MOLECULE
EN300-269527_i002_EN300-315786_i001_9_19_1
  58   61   2   0   0
SMALL
USER_CHARGES
@<TRIPOS>ATOM
     1 C1        -0.1455   -23.2128    13.7134 C.3        1 BB1          0.0000
     2 C2         0.9572   -22.7754    14.6826 C.3        1 BB1          0.0000
     3 C3         1.3985   -21.3522    14.3278 C.3        1 BB1          0.0000
     4 C4         0.1828   -20.4229    14.3733 C.3        1 BB1          0.0000
     5 O5        -0.8166   -20.9038    13.4721 O.3        1 BB1          0.0000
     6 C6        -1.3015   -22.2117    13.7825 C.3        1 BB1          0.0000
     7 C7         0.6042   -19.0109    13.9616 C.3        1 BB1          0.0000
     8 C8         1.5878   -18.4498    14.9925 C.3        1 BB1          0.0000
     9 C9         2.0632   -17.0691    14.5312 C.3        1 BB1          0.0000
    10 C10        2.6878   -17.1896    13.1395 C.3        1 BB1          0.0000
    11 N11        1.6903   -17.7061    12.1946 N.am       1 BB1          0.0000
    12 C12        1.2828   -19.0593    12.5910 C.3        1 BB1          0.0000
    13 H13        0.2517   -23.2411    12.6987 H          1 BB1          0.0000
    14 H14       -0.5042   -24.2034    13.9928 H          1 BB1          0.0000
    15 H15        0.5744   -22.7948    15.7029 H          1 BB1          0.0000
    16 H16        1.8070   -23.4526    14.5976 H          1 BB1          0.0000
    17 H17        2.1440   -21.0122    15.0467 H          1 BB1          0.0000
    18 H18        1.8268   -21.3429    13.3255 H          1 BB1          0.0000
    19 H19       -0.2207   -20.4014    15.3856 H          1 BB1          0.0000
    20 H20       -2.0707   -22.4943    13.0638 H          1 BB1          0.0000
    21 H21       -1.7244   -22.2136    14.7872 H          1 BB1          0.0000
    22 H22       -0.2753   -18.3689    13.9106 H          1 BB1          0.0000
    23 H23        1.0914   -18.3602    15.9588 H          1 BB1          0.0000
    24 H24        2.4435   -19.1189    15.0817 H          1 BB1          0.0000
    25 H25        1.2144   -16.3864    14.4914 H          1 BB1          0.0000
    26 H26        2.8059   -16.6871    15.2316 H          1 BB1          0.0000
    27 H27        3.0275   -16.2083    12.8080 H          1 BB1          0.0000
    28 H28        3.5365   -17.8722    13.1805 H          1 BB1          0.0000
    29 H29        2.1615   -19.7021    12.6437 H          1 BB1          0.0000
    30 H30        0.5852   -19.4586    11.8546 H          1 BB1          0.0000
    31 C2        -0.0498   -18.3968    13.1731 C.2        2 BB2          0.0000
    32 O3         0.9575   -18.7212    13.7854 O.2        2 BB2          0.0000
    33 C4        -0.1015   -17.0974    12.4710 C.ar       2 BB2          0.0000
    34 C5         0.1455   -15.9146    13.1713 C.ar       2 BB2          0.0000
    35 C6         0.0972   -14.7032    12.5159 C.ar       2 BB2          0.0000
    36 C7        -0.1986   -14.6582    11.1530 C.ar       2 BB2          0.0000
    37 C8        -0.4456   -15.8396    10.4527 C.ar       2 BB2          0.0000
    38 C9        -0.3919   -17.0522    11.1056 C.ar       2 BB2          0.0000
    39 C10       -0.2510   -13.3560    10.4496 C.2        2 BB2          0.0000
    40 O11       -1.0511   -12.5098    10.7965 O.2        2 BB2          0.0000
    41 N12        0.5888   -13.1095     9.4247 N.am       2 BB2          0.0000
    42 C13        1.5089   -14.1473     8.9328 C.3        2 BB2          0.0000
    43 C14        1.3531   -14.2496     7.4112 C.3        2 BB2          0.0000
    44 O15        1.4962   -12.9493     6.8348 O.3        2 BB2          0.0000
    45 C16        0.5004   -12.0118     7.2509 C.3        2 BB2          0.0000
    46 C17        0.6085   -11.7965     8.7606 C.3        2 BB2          0.0000
    47 H18        0.3741   -15.9492    14.2263 H          2 BB2          0.0000
    48 H19        0.2878   -13.7883    13.0575 H          2 BB2          0.0000
    49 H20       -0.6748   -15.8040     9.3979 H          2 BB2          0.0000
    50 H21       -0.5827   -17.9665    10.5634 H          2 BB2          0.0000
    51 H22        2.5351   -13.8748     9.1792 H          2 BB2          0.0000
    52 H23        1.2622   -15.1043     9.3924 H          2 BB2          0.0000
    53 H24        2.1203   -14.9121     7.0104 H          2 BB2          0.0000
    54 H25        0.3667   -14.6473     7.1722 H          2 BB2          0.0000
    55 H26        0.6542   -11.0641     6.7348 H          2 BB2          0.0000
    56 H27       -0.4890   -12.4013     7.0113 H          2 BB2          0.0000
    57 H28       -0.2324   -11.1956     9.1069 H          2 BB2          0.0000
    58 H29        1.5442   -11.2878     8.9927 H          2 BB2          0.0000
@<TRIPOS>BOND
     1      1      2 1
     2      1      6 1
     3      1     13 1
     4      1     14 1
     5      2      3 1
     6      2     15 1
     7      2     16 1
     8      3      4 1
     9      3     17 1
    10      3     18 1
    11      4      5 1
    12      4      7 1
    13      4     19 1
    14      5      6 1
    15      6     20 1
    16      6     21 1
    17      7      8 1
    18      7     12 1
    19      7     22 1
    20      8      9 1
    21      8     23 1
    22      8     24 1
    23      9     10 1
    24      9     25 1
    25      9     26 1
    26     10     11 1
    27     10     27 1
    28     10     28 1
    29     11     12 1
    30     12     29 1
    31     12     30 1
    32     31     32 2
    33     31     33 1
    34     33     34 ar
    35     33     38 ar
    36     34     35 ar
    37     34     47 1
    38     35     36 ar
    39     35     48 1
    40     36     37 ar
    41     36     39 1
    42     37     38 ar
    43     37     49 1
    44     38     50 1
    45     39     40 2
    46     39     41 am
    47     41     42 1
    48     41     46 1
    49     42     43 1
    50     42     51 1
    51     42     52 1
    52     43     44 1
    53     43     53 1
    54     43     54 1
    55     44     45 1
    56     45     46 1
    57     45     55 1
    58     45     56 1
    59     46     57 1
    60     46     58 1
    61     11     31 am
@<TRIPOS>SUBSTRUCTURE
     1 BB1          11
     2 BB2          31
@<TRIPOS>MOLECULE
EN300-269527_i002_EN300-194291_i002_9_10_1
  54   57   2   0   0
SMALL
USER_CHARGES
@<TRIPOS>ATOM
     1 C1        -0.1455   -23.2128    13.7134 C.3        1 BB1          0.0000
     2 C2         0.9572   -22.7754    14.6826 C.3        1 BB1          0.0000
     3 C3         1.3985   -21.3522    14.3278 C.3        1 BB1          0.0000
     4 C4         0.1828   -20.4229    14.3733 C.3        1 BB1          0.0000
     5 O5        -0.8166   -20.9038    13.4721 O.3        1 BB1          0.0000
     6 C6        -1.3015   -22.2117    13.7825 C.3        1 BB1          0.0000
     7 C7         0.6042   -19.0109    13.9616 C.3        1 BB1          0.0000
     8 C8         1.5878   -18.4498    14.9925 C.3        1 BB1          0.0000
     9 C9         2.0632   -17.0691    14.5312 C.3        1 BB1          0.0000
    10 C10        2.6878   -17.1896    13.1395 C.3        1 BB1          0.0000
    11 N11        1.6903   -17.7061    12.1946 N.am       1 BB1          0.0000
    12 C12        1.2828   -19.0593    12.5910 C.3        1 BB1          0.0000
    13 H13        0.2517   -23.2411    12.6987 H          1 BB1          0.0000
    14 H14       -0.5042   -24.2034    13.9928 H          1 BB1          0.0000
    15 H15        0.5744   -22.7948    15.7029 H          1 BB1          0.0000
    16 H16        1.8070   -23.4526    14.5976 H          1 BB1          0.0000
    17 H17        2.1440   -21.0122    15.0467 H          1 BB1          0.0000
    18 H18        1.8268   -21.3429    13.3255 H          1 BB1          0.0000
    19 H19       -0.2207   -20.4014    15.3856 H          1 BB1          0.0000
    20 H20       -2.0707   -22.4943    13.0638 H          1 BB1          0.0000
    21 H21       -1.7244   -22.2136    14.7872 H          1 BB1          0.0000
    22 H22       -0.2753   -18.3689    13.9106 H          1 BB1          0.0000
    23 H23        1.0914   -18.3602    15.9588 H          1 BB1          0.0000
    24 H24        2.4435   -19.1189    15.0817 H          1 BB1          0.0000
    25 H25        1.2144   -16.3864    14.4914 H          1 BB1          0.0000
    26 H26        2.8059   -16.6871    15.2316 H          1 BB1          0.0000
    27 H27        3.0275   -16.2083    12.8080 H          1 BB1          0.0000
    28 H28        3.5365   -17.8722    13.1805 H          1 BB1          0.0000
    29 H29        2.1615   -19.7021    12.6437 H          1 BB1          0.0000
    30 H30        0.5852   -19.4586    11.8546 H          1 BB1          0.0000
    31 O1         1.3207   -17.2750    14.1270 O.2        2 BB2          0.0000
    32 C2         0.4763   -16.8160    13.3767 C.2        2 BB2          0.0000
    33 C4         0.6440   -15.4290    12.8118 C.3        2 BB2          0.0000
    34 C5         0.9682   -15.4824    11.3024 C.3        2 BB2          0.0000
    35 N6         0.2732   -14.3325    10.7117 N.am       2 BB2          0.0000
    36 C7        -0.6722   -13.8555    11.5396 C.2        2 BB2          0.0000
    37 O8        -1.3983   -12.9149    11.2964 O.2        2 BB2          0.0000
    38 C9        -0.6989   -14.6625    12.8189 C.3        2 BB2          0.0000
    39 C10        0.5580   -13.8011     9.4479 C.ar       2 BB2          0.0000
    40 C11        1.0908   -14.6136     8.4564 C.ar       2 BB2          0.0000
    41 C12        1.3712   -14.0886     7.2095 C.ar       2 BB2          0.0000
    42 C13        1.1219   -12.7527     6.9476 C.ar       2 BB2          0.0000
    43 F14        1.3968   -12.2416     5.7277 F          2 BB2          0.0000
    44 C15        0.5896   -11.9383     7.9363 C.ar       2 BB2          0.0000
    45 F16        0.3463   -10.6345     7.6789 F          2 BB2          0.0000
    46 C17        0.3026   -12.4621     9.1834 C.ar       2 BB2          0.0000
    47 H18        1.4110   -14.8784    13.3564 H          2 BB2          0.0000
    48 H19        2.0432   -15.3953    11.1442 H          2 BB2          0.0000
    49 H20        0.5965   -16.4110    10.8693 H          2 BB2          0.0000
    50 H21       -1.5364   -15.3602    12.8125 H          2 BB2          0.0000
    51 H22       -0.7572   -14.0031    13.6849 H          2 BB2          0.0000
    52 H23        1.2865   -15.6561     8.6598 H          2 BB2          0.0000
    53 H24        1.7856   -14.7212     6.4385 H          2 BB2          0.0000
    54 H25       -0.1119   -11.8285     9.9536 H          2 BB2          0.0000
@<TRIPOS>BOND
     1      1      2 1
     2      1      6 1
     3      1     13 1
     4      1     14 1
     5      2      3 1
     6      2     15 1
     7      2     16 1
     8      3      4 1
     9      3     17 1
    10      3     18 1
    11      4      5 1
    12      4      7 1
    13      4     19 1
    14      5      6 1
    15      6     20 1
    16      6     21 1
    17      7      8 1
    18      7     12 1
    19      7     22 1
    20      8      9 1
    21      8     23 1
    22      8     24 1
    23      9     10 1
    24      9     25 1
    25      9     26 1
    26     10     11 1
    27     10     27 1
    28     10     28 1
    29     11     12 1
    30     12     29 1
    31     12     30 1
    32     31     32 2
    33     32     33 1
    34     33     34 1
    35     33     38 1
    36     33     47 1
    37     34     35 1
    38     34     48 1
    39     34     49 1
    40     35     36 am
    41     35     39 1
    42     36     37 2
    43     36     38 1
    44     38     50 1
    45     38     51 1
    46     39     40 ar
    47     39     46 ar
    48     40     41 ar
    49     40     52 1
    50     41     42 ar
    51     41     53 1
    52     42     43 1
    53     42     44 ar
    54     44     45 1
    55     44     46 ar
    56     46     54 1
    57     11     32 am
@<TRIPOS>SUBSTRUCTURE
     1 BB1          11
     2 BB2          32
@<TRIPOS>MOLECULE
EN300-269527_i002_EN300-194291_i002_9_13_1
  54   57   2   0   0
SMALL
USER_CHARGES
@<TRIPOS>ATOM
     1 C1        -0.1455   -23.2128    13.7134 C.3        1 BB1          0.0000
     2 C2         0.9572   -22.7754    14.6826 C.3        1 BB1          0.0000
     3 C3         1.3985   -21.3522    14.3278 C.3        1 BB1          0.0000
     4 C4         0.1828   -20.4229    14.3733 C.3        1 BB1          0.0000
     5 O5        -0.8166   -20.9038    13.4721 O.3        1 BB1          0.0000
     6 C6        -1.3015   -22.2117    13.7825 C.3        1 BB1          0.0000
     7 C7         0.6042   -19.0109    13.9616 C.3        1 BB1          0.0000
     8 C8         1.5878   -18.4498    14.9925 C.3        1 BB1          0.0000
     9 C9         2.0632   -17.0691    14.5312 C.3        1 BB1          0.0000
    10 C10        2.6878   -17.1896    13.1395 C.3        1 BB1          0.0000
    11 N11        1.6903   -17.7061    12.1946 N.am       1 BB1          0.0000
    12 C12        1.2828   -19.0593    12.5910 C.3        1 BB1          0.0000
    13 H13        0.2517   -23.2411    12.6987 H          1 BB1          0.0000
    14 H14       -0.5042   -24.2034    13.9928 H          1 BB1          0.0000
    15 H15        0.5744   -22.7948    15.7029 H          1 BB1          0.0000
    16 H16        1.8070   -23.4526    14.5976 H          1 BB1          0.0000
    17 H17        2.1440   -21.0122    15.0467 H          1 BB1          0.0000
    18 H18        1.8268   -21.3429    13.3255 H          1 BB1          0.0000
    19 H19       -0.2207   -20.4014    15.3856 H          1 BB1          0.0000
    20 H20       -2.0707   -22.4943    13.0638 H          1 BB1          0.0000
    21 H21       -1.7244   -22.2136    14.7872 H          1 BB1          0.0000
    22 H22       -0.2753   -18.3689    13.9106 H          1 BB1          0.0000
    23 H23        1.0914   -18.3602    15.9588 H          1 BB1          0.0000
    24 H24        2.4435   -19.1189    15.0817 H          1 BB1          0.0000
    25 H25        1.2144   -16.3864    14.4914 H          1 BB1          0.0000
    26 H26        2.8059   -16.6871    15.2316 H          1 BB1          0.0000
    27 H27        3.0275   -16.2083    12.8080 H          1 BB1          0.0000
    28 H28        3.5365   -17.8722    13.1805 H          1 BB1          0.0000
    29 H29        2.1615   -19.7021    12.6437 H          1 BB1          0.0000
    30 H30        0.5852   -19.4586    11.8546 H          1 BB1          0.0000
    31 O1         1.5849   -17.9659    13.5861 O.2        2 BB2          0.0000
    32 C2         0.6432   -17.1940    13.6492 C.2        2 BB2          0.0000
    33 C4         0.7972   -15.7762    13.1623 C.3        2 BB2          0.0000
    34 C5         1.0164   -15.7373    11.6337 C.3        2 BB2          0.0000
    35 N6         0.3037   -14.5425    11.1662 N.am       2 BB2          0.0000
    36 C7        -0.5740   -14.1064    12.0861 C.2        2 BB2          0.0000
    37 O8        -1.2978   -13.1422    11.9535 O.2        2 BB2          0.0000
    38 C9        -0.5278   -14.9932    13.3109 C.3        2 BB2          0.0000
    39 C10        0.5111   -13.9353     9.9216 C.ar       2 BB2          0.0000
    40 C11        0.5196   -12.5510     9.8166 C.ar       2 BB2          0.0000
    41 C12        0.7248   -11.9526     8.5882 C.ar       2 BB2          0.0000
    42 C13        0.9213   -12.7319     7.4616 C.ar       2 BB2          0.0000
    43 F14        1.1217   -12.1445     6.2615 F          2 BB2          0.0000
    44 C15        0.9132   -14.1152     7.5632 C.ar       2 BB2          0.0000
    45 F16        1.1057   -14.8745     6.4624 F          2 BB2          0.0000
    46 C17        0.7139   -14.7171     8.7921 C.ar       2 BB2          0.0000
    47 H18        1.6096   -15.2722    13.6859 H          2 BB2          0.0000
    48 H19        2.0794   -15.6552    11.4071 H          2 BB2          0.0000
    49 H20        0.5990   -16.6311    11.1699 H          2 BB2          0.0000
    50 H21       -1.3764   -15.6773    13.3188 H          2 BB2          0.0000
    51 H22       -0.5147   -14.3897    14.2185 H          2 BB2          0.0000
    52 H23        0.3657   -11.9419    10.6950 H          2 BB2          0.0000
    53 H24        0.7314   -10.8757     8.5071 H          2 BB2          0.0000
    54 H25        0.7076   -15.7941     8.8719 H          2 BB2          0.0000
@<TRIPOS>BOND
     1      1      2 1
     2      1      6 1
     3      1     13 1
     4      1     14 1
     5      2      3 1
     6      2     15 1
     7      2     16 1
     8      3      4 1
     9      3     17 1
    10      3     18 1
    11      4      5 1
    12      4      7 1
    13      4     19 1
    14      5      6 1
    15      6     20 1
    16      6     21 1
    17      7      8 1
    18      7     12 1
    19      7     22 1
    20      8      9 1
    21      8     23 1
    22      8     24 1
    23      9     10 1
    24      9     25 1
    25      9     26 1
    26     10     11 1
    27     10     27 1
    28     10     28 1
    29     11     12 1
    30     12     29 1
    31     12     30 1
    32     31     32 2
    33     32     33 1
    34     33     34 1
    35     33     38 1
    36     33     47 1
    37     34     35 1
    38     34     48 1
    39     34     49 1
    40     35     36 am
    41     35     39 1
    42     36     37 2
    43     36     38 1
    44     38     50 1
    45     38     51 1
    46     39     40 ar
    47     39     46 ar
    48     40     41 ar
    49     40     52 1
    50     41     42 ar
    51     41     53 1
    52     42     43 1
    53     42     44 ar
    54     44     45 1
    55     44     46 ar
    56     46     54 1
    57     11     32 am
@<TRIPOS>SUBSTRUCTURE
     1 BB1          11
     2 BB2          32
@<TRIPOS>MOLECULE
EN300-269527_i002_EN300-194291_i002_9_5_1
  54   57   2   0   0
SMALL
USER_CHARGES
@<TRIPOS>ATOM
     1 C1        -0.1455   -23.2128    13.7134 C.3        1 BB1          0.0000
     2 C2         0.9572   -22.7754    14.6826 C.3        1 BB1          0.0000
     3 C3         1.3985   -21.3522    14.3278 C.3        1 BB1          0.0000
     4 C4         0.1828   -20.4229    14.3733 C.3        1 BB1          0.0000
     5 O5        -0.8166   -20.9038    13.4721 O.3        1 BB1          0.0000
     6 C6        -1.3015   -22.2117    13.7825 C.3        1 BB1          0.0000
     7 C7         0.6042   -19.0109    13.9616 C.3        1 BB1          0.0000
     8 C8         1.5878   -18.4498    14.9925 C.3        1 BB1          0.0000
     9 C9         2.0632   -17.0691    14.5312 C.3        1 BB1          0.0000
    10 C10        2.6878   -17.1896    13.1395 C.3        1 BB1          0.0000
    11 N11        1.6903   -17.7061    12.1946 N.am       1 BB1          0.0000
    12 C12        1.2828   -19.0593    12.5910 C.3        1 BB1          0.0000
    13 H13        0.2517   -23.2411    12.6987 H          1 BB1          0.0000
    14 H14       -0.5042   -24.2034    13.9928 H          1 BB1          0.0000
    15 H15        0.5744   -22.7948    15.7029 H          1 BB1          0.0000
    16 H16        1.8070   -23.4526    14.5976 H          1 BB1          0.0000
    17 H17        2.1440   -21.0122    15.0467 H          1 BB1          0.0000
    18 H18        1.8268   -21.3429    13.3255 H          1 BB1          0.0000
    19 H19       -0.2207   -20.4014    15.3856 H          1 BB1          0.0000
    20 H20       -2.0707   -22.4943    13.0638 H          1 BB1          0.0000
    21 H21       -1.7244   -22.2136    14.7872 H          1 BB1          0.0000
    22 H22       -0.2753   -18.3689    13.9106 H          1 BB1          0.0000
    23 H23        1.0914   -18.3602    15.9588 H          1 BB1          0.0000
    24 H24        2.4435   -19.1189    15.0817 H          1 BB1          0.0000
    25 H25        1.2144   -16.3864    14.4914 H          1 BB1          0.0000
    26 H26        2.8059   -16.6871    15.2316 H          1 BB1          0.0000
    27 H27        3.0275   -16.2083    12.8080 H          1 BB1          0.0000
    28 H28        3.5365   -17.8722    13.1805 H          1 BB1          0.0000
    29 H29        2.1615   -19.7021    12.6437 H          1 BB1          0.0000
    30 H30        0.5852   -19.4586    11.8546 H          1 BB1          0.0000
    31 O1         0.8177   -15.8618    14.5942 O.2        2 BB2          0.0000
    32 C2        -0.0309   -16.4634    13.9582 C.2        2 BB2          0.0000
    33 C4        -0.3832   -16.0181    12.5623 C.3        2 BB2          0.0000
    34 C5        -0.8673   -14.5511    12.5556 C.3        2 BB2          0.0000
    35 N6        -0.3475   -13.9729    11.3108 N.am       2 BB2          0.0000
    36 C7         0.6380   -14.7282    10.7959 C.2        2 BB2          0.0000
    37 O8         1.2459   -14.4767     9.7769 O.2        2 BB2          0.0000
    38 C9         0.8785   -15.9378    11.6721 C.3        2 BB2          0.0000
    39 C10       -0.8173   -12.7866    10.7341 C.ar       2 BB2          0.0000
    40 C11        0.0283   -12.0118     9.9519 C.ar       2 BB2          0.0000
    41 C12       -0.4361   -10.8416     9.3829 C.ar       2 BB2          0.0000
    42 C13       -1.7440   -10.4402     9.5922 C.ar       2 BB2          0.0000
    43 F14       -2.1959    -9.2956     9.0348 F          2 BB2          0.0000
    44 C15       -2.5912   -11.2122    10.3733 C.ar       2 BB2          0.0000
    45 F16       -3.8679   -10.8192    10.5763 F          2 BB2          0.0000
    46 C17       -2.1311   -12.3868    10.9395 C.ar       2 BB2          0.0000
    47 H18       -1.1308   -16.6777    12.1217 H          2 BB2          0.0000
    48 H19       -1.9567   -14.5134    12.5629 H          2 BB2          0.0000
    49 H20       -0.4649   -14.0172    13.4165 H          2 BB2          0.0000
    50 H21        1.7689   -15.7943    12.2844 H          2 BB2          0.0000
    51 H22        0.9738   -16.8370    11.0634 H          2 BB2          0.0000
    52 H23        1.0493   -12.3236     9.7884 H          2 BB2          0.0000
    53 H24        0.2221   -10.2392     8.7743 H          2 BB2          0.0000
    54 H25       -2.7903   -12.9883    11.5477 H          2 BB2          0.0000
@<TRIPOS>BOND
     1      1      2 1
     2      1      6 1
     3      1     13 1
     4      1     14 1
     5      2      3 1
     6      2     15 1
     7      2     16 1
     8      3      4 1
     9      3     17 1
    10      3     18 1
    11      4      5 1
    12      4      7 1
    13      4     19 1
    14      5      6 1
    15      6     20 1
    16      6     21 1
    17      7      8 1
    18      7     12 1
    19      7     22 1
    20      8      9 1
    21      8     23 1
    22      8     24 1
    23      9     10 1
    24      9     25 1
    25      9     26 1
    26     10     11 1
    27     10     27 1
    28     10     28 1
    29     11     12 1
    30     12     29 1
    31     12     30 1
    32     31     32 2
    33     32     33 1
    34     33     34 1
    35     33     38 1
    36     33     47 1
    37     34     35 1
    38     34     48 1
    39     34     49 1
    40     35     36 am
    41     35     39 1
    42     36     37 2
    43     36     38 1
    44     38     50 1
    45     38     51 1
    46     39     40 ar
    47     39     46 ar
    48     40     41 ar
    49     40     52 1
    50     41     42 ar
    51     41     53 1
    52     42     43 1
    53     42     44 ar
    54     44     45 1
    55     44     46 ar
    56     46     54 1
    57     11     32 am
@<TRIPOS>SUBSTRUCTURE
     1 BB1          11
     2 BB2          32
@<TRIPOS>MOLECULE
EN300-269527_i002_EN300-194291_i002_9_6_1
  54   57   2   0   0
SMALL
USER_CHARGES
@<TRIPOS>ATOM
     1 C1        -0.1455   -23.2128    13.7134 C.3        1 BB1          0.0000
     2 C2         0.9572   -22.7754    14.6826 C.3        1 BB1          0.0000
     3 C3         1.3985   -21.3522    14.3278 C.3        1 BB1          0.0000
     4 C4         0.1828   -20.4229    14.3733 C.3        1 BB1          0.0000
     5 O5        -0.8166   -20.9038    13.4721 O.3        1 BB1          0.0000
     6 C6        -1.3015   -22.2117    13.7825 C.3        1 BB1          0.0000
     7 C7         0.6042   -19.0109    13.9616 C.3        1 BB1          0.0000
     8 C8         1.5878   -18.4498    14.9925 C.3        1 BB1          0.0000
     9 C9         2.0632   -17.0691    14.5312 C.3        1 BB1          0.0000
    10 C10        2.6878   -17.1896    13.1395 C.3        1 BB1          0.0000
    11 N11        1.6903   -17.7061    12.1946 N.am       1 BB1          0.0000
    12 C12        1.2828   -19.0593    12.5910 C.3        1 BB1          0.0000
    13 H13        0.2517   -23.2411    12.6987 H          1 BB1          0.0000
    14 H14       -0.5042   -24.2034    13.9928 H          1 BB1          0.0000
    15 H15        0.5744   -22.7948    15.7029 H          1 BB1          0.0000
    16 H16        1.8070   -23.4526    14.5976 H          1 BB1          0.0000
    17 H17        2.1440   -21.0122    15.0467 H          1 BB1          0.0000
    18 H18        1.8268   -21.3429    13.3255 H          1 BB1          0.0000
    19 H19       -0.2207   -20.4014    15.3856 H          1 BB1          0.0000
    20 H20       -2.0707   -22.4943    13.0638 H          1 BB1          0.0000
    21 H21       -1.7244   -22.2136    14.7872 H          1 BB1          0.0000
    22 H22       -0.2753   -18.3689    13.9106 H          1 BB1          0.0000
    23 H23        1.0914   -18.3602    15.9588 H          1 BB1          0.0000
    24 H24        2.4435   -19.1189    15.0817 H          1 BB1          0.0000
    25 H25        1.2144   -16.3864    14.4914 H          1 BB1          0.0000
    26 H26        2.8059   -16.6871    15.2316 H          1 BB1          0.0000
    27 H27        3.0275   -16.2083    12.8080 H          1 BB1          0.0000
    28 H28        3.5365   -17.8722    13.1805 H          1 BB1          0.0000
    29 H29        2.1615   -19.7021    12.6437 H          1 BB1          0.0000
    30 H30        0.5852   -19.4586    11.8546 H          1 BB1          0.0000
    31 O1         1.0065   -15.9968    14.3205 O.2        2 BB2          0.0000
    32 C2        -0.0228   -16.5681    14.0032 C.2        2 BB2          0.0000
    33 C4        -0.6902   -16.2451    12.6912 C.3        2 BB2          0.0000
    34 C5         0.1173   -15.1882    11.9056 C.3        2 BB2          0.0000
    35 N6        -0.0074   -15.5700    10.4939 N.am       2 BB2          0.0000
    36 C7        -0.4260   -16.8410    10.3670 C.2        2 BB2          0.0000
    37 O8        -0.6055   -17.4112     9.3117 O.2        2 BB2          0.0000
    38 C9        -0.6406   -17.4569    11.7321 C.3        2 BB2          0.0000
    39 C10        0.2740   -14.7196     9.4177 C.ar       2 BB2          0.0000
    40 C11        0.6822   -15.2499     8.2014 C.ar       2 BB2          0.0000
    41 C12        0.9593   -14.4102     7.1397 C.ar       2 BB2          0.0000
    42 C13        0.8309   -13.0402     7.2875 C.ar       2 BB2          0.0000
    43 F14        1.1024   -12.2211     6.2480 F          2 BB2          0.0000
    44 C15        0.4233   -12.5073     8.5015 C.ar       2 BB2          0.0000
    45 F16        0.2980   -11.1696     8.6440 F          2 BB2          0.0000
    46 C17        0.1397   -13.3454     9.5642 C.ar       2 BB2          0.0000
    47 H18       -1.7166   -15.9138    12.8493 H          2 BB2          0.0000
    48 H19       -0.3037   -14.1957    12.0665 H          2 BB2          0.0000
    49 H20        1.1634   -15.2091    12.2110 H          2 BB2          0.0000
    50 H21        0.1907   -18.1133    11.9894 H          2 BB2          0.0000
    51 H22       -1.5828   -18.0042    11.7598 H          2 BB2          0.0000
    52 H23        0.7834   -16.3189     8.0851 H          2 BB2          0.0000
    53 H24        1.2768   -14.8233     6.1937 H          2 BB2          0.0000
    54 H25       -0.1778   -12.9311    10.5097 H          2 BB2          0.0000
@<TRIPOS>BOND
     1      1      2 1
     2      1      6 1
     3      1     13 1
     4      1     14 1
     5      2      3 1
     6      2     15 1
     7      2     16 1
     8      3      4 1
     9      3     17 1
    10      3     18 1
    11      4      5 1
    12      4      7 1
    13      4     19 1
    14      5      6 1
    15      6     20 1
    16      6     21 1
    17      7      8 1
    18      7     12 1
    19      7     22 1
    20      8      9 1
    21      8     23 1
    22      8     24 1
    23      9     10 1
    24      9     25 1
    25      9     26 1
    26     10     11 1
    27     10     27 1
    28     10     28 1
    29     11     12 1
    30     12     29 1
    31     12     30 1
    32     31     32 2
    33     32     33 1
    34     33     34 1
    35     33     38 1
    36     33     47 1
    37     34     35 1
    38     34     48 1
    39     34     49 1
    40     35     36 am
    41     35     39 1
    42     36     37 2
    43     36     38 1
    44     38     50 1
    45     38     51 1
    46     39     40 ar
    47     39     46 ar
    48     40     41 ar
    49     40     52 1
    50     41     42 ar
    51     41     53 1
    52     42     43 1
    53     42     44 ar
    54     44     45 1
    55     44     46 ar
    56     46     54 1
    57     11     32 am
@<TRIPOS>SUBSTRUCTURE
     1 BB1          11
     2 BB2          32
@<TRIPOS>MOLECULE
EN300-269527_i002_EN300-43851_i001_9_5_1
  52   55   2   0   0
SMALL
USER_CHARGES
@<TRIPOS>ATOM
     1 C1        -0.1455   -23.2128    13.7134 C.3        1 BB1          0.0000
     2 C2         0.9572   -22.7754    14.6826 C.3        1 BB1          0.0000
     3 C3         1.3985   -21.3522    14.3278 C.3        1 BB1          0.0000
     4 C4         0.1828   -20.4229    14.3733 C.3        1 BB1          0.0000
     5 O5        -0.8166   -20.9038    13.4721 O.3        1 BB1          0.0000
     6 C6        -1.3015   -22.2117    13.7825 C.3        1 BB1          0.0000
     7 C7         0.6042   -19.0109    13.9616 C.3        1 BB1          0.0000
     8 C8         1.5878   -18.4498    14.9925 C.3        1 BB1          0.0000
     9 C9         2.0632   -17.0691    14.5312 C.3        1 BB1          0.0000
    10 C10        2.6878   -17.1896    13.1395 C.3        1 BB1          0.0000
    11 N11        1.6903   -17.7061    12.1946 N.am       1 BB1          0.0000
    12 C12        1.2828   -19.0593    12.5910 C.3        1 BB1          0.0000
    13 H13        0.2517   -23.2411    12.6987 H          1 BB1          0.0000
    14 H14       -0.5042   -24.2034    13.9928 H          1 BB1          0.0000
    15 H15        0.5744   -22.7948    15.7029 H          1 BB1          0.0000
    16 H16        1.8070   -23.4526    14.5976 H          1 BB1          0.0000
    17 H17        2.1440   -21.0122    15.0467 H          1 BB1          0.0000
    18 H18        1.8268   -21.3429    13.3255 H          1 BB1          0.0000
    19 H19       -0.2207   -20.4014    15.3856 H          1 BB1          0.0000
    20 H20       -2.0707   -22.4943    13.0638 H          1 BB1          0.0000
    21 H21       -1.7244   -22.2136    14.7872 H          1 BB1          0.0000
    22 H22       -0.2753   -18.3689    13.9106 H          1 BB1          0.0000
    23 H23        1.0914   -18.3602    15.9588 H          1 BB1          0.0000
    24 H24        2.4435   -19.1189    15.0817 H          1 BB1          0.0000
    25 H25        1.2144   -16.3864    14.4914 H          1 BB1          0.0000
    26 H26        2.8059   -16.6871    15.2316 H          1 BB1          0.0000
    27 H27        3.0275   -16.2083    12.8080 H          1 BB1          0.0000
    28 H28        3.5365   -17.8722    13.1805 H          1 BB1          0.0000
    29 H29        2.1615   -19.7021    12.6437 H          1 BB1          0.0000
    30 H30        0.5852   -19.4586    11.8546 H          1 BB1          0.0000
    31 C1        -0.4310   -15.6953    13.9759 C.3        2 BB2          0.0000
    32 C2        -0.1974   -15.7006    12.4871 C.2        2 BB2          0.0000
    33 N3         0.0545   -14.6594    11.7295 N.2        2 BB2          0.0000
    34 N4         0.2015   -15.1272    10.4170 N.pl3      2 BB2          0.0000
    35 N5         0.0399   -16.4041    10.4091 N.2        2 BB2          0.0000
    36 C6        -0.2010   -16.8237    11.6395 C.2        2 BB2          0.0000
    37 C7        -0.4407   -18.2195    12.0491 C.2        2 BB2          0.0000
    38 O8        -0.3694   -19.1197    11.2242 O.2        2 BB2          0.0000
    39 C10        0.4790   -14.3340     9.2955 C.ar       2 BB2          0.0000
    40 C11        0.7135   -12.9737     9.4469 C.ar       2 BB2          0.0000
    41 C12        0.9867   -12.1938     8.3407 C.ar       2 BB2          0.0000
    42 C13        1.0269   -12.7673     7.0807 C.ar       2 BB2          0.0000
    43 F14        1.2947   -12.0027     5.9996 F          2 BB2          0.0000
    44 C15        0.7931   -14.1239     6.9275 C.ar       2 BB2          0.0000
    45 C16        0.5253   -14.9083     8.0321 C.ar       2 BB2          0.0000
    46 H17       -1.4945   -15.5661    14.1763 H          2 BB2          0.0000
    47 H18       -0.0937   -16.6411    14.3999 H          2 BB2          0.0000
    48 H19        0.1263   -14.8750    14.4282 H          2 BB2          0.0000
    49 H20        0.6819   -12.5259    10.4293 H          2 BB2          0.0000
    50 H21        1.1688   -11.1358     8.4580 H          2 BB2          0.0000
    51 H22        0.8249   -14.5694     5.9442 H          2 BB2          0.0000
    52 H23        0.3435   -15.9661     7.9122 H          2 BB2          0.0000
@<TRIPOS>BOND
     1      1      2 1
     2      1      6 1
     3      1     13 1
     4      1     14 1
     5      2      3 1
     6      2     15 1
     7      2     16 1
     8      3      4 1
     9      3     17 1
    10      3     18 1
    11      4      5 1
    12      4      7 1
    13      4     19 1
    14      5      6 1
    15      6     20 1
    16      6     21 1
    17      7      8 1
    18      7     12 1
    19      7     22 1
    20      8      9 1
    21      8     23 1
    22      8     24 1
    23      9     10 1
    24      9     25 1
    25      9     26 1
    26     10     11 1
    27     10     27 1
    28     10     28 1
    29     11     12 1
    30     12     29 1
    31     12     30 1
    32     31     32 1
    33     31     46 1
    34     31     47 1
    35     31     48 1
    36     32     33 2
    37     32     36 1
    38     33     34 1
    39     34     35 1
    40     34     39 1
    41     35     36 2
    42     36     37 1
    43     37     38 2
    44     39     40 ar
    45     39     45 ar
    46     40     41 ar
    47     40     49 1
    48     41     42 ar
    49     41     50 1
    50     42     43 1
    51     42     44 ar
    52     44     45 ar
    53     44     51 1
    54     45     52 1
    55     11     37 am
@<TRIPOS>SUBSTRUCTURE
     1 BB1          11
     2 BB2          37
@<TRIPOS>MOLECULE
EN300-269527_i002_EN300-206926_i001_9_13_1
  45   46   2   0   0
SMALL
USER_CHARGES
@<TRIPOS>ATOM
     1 C1        -0.1455   -23.2128    13.7134 C.3        1 BB1          0.0000
     2 C2         0.9572   -22.7754    14.6826 C.3        1 BB1          0.0000
     3 C3         1.3985   -21.3522    14.3278 C.3        1 BB1          0.0000
     4 C4         0.1828   -20.4229    14.3733 C.3        1 BB1          0.0000
     5 O5        -0.8166   -20.9038    13.4721 O.3        1 BB1          0.0000
     6 C6        -1.3015   -22.2117    13.7825 C.3        1 BB1          0.0000
     7 C7         0.6042   -19.0109    13.9616 C.3        1 BB1          0.0000
     8 C8         1.5878   -18.4498    14.9925 C.3        1 BB1          0.0000
     9 C9         2.0632   -17.0691    14.5312 C.3        1 BB1          0.0000
    10 C10        2.6878   -17.1896    13.1395 C.3        1 BB1          0.0000
    11 N11        1.6903   -17.7061    12.1946 N.am       1 BB1          0.0000
    12 C12        1.2828   -19.0593    12.5910 C.3        1 BB1          0.0000
    13 H13        0.2517   -23.2411    12.6987 H          1 BB1          0.0000
    14 H14       -0.5042   -24.2034    13.9928 H          1 BB1          0.0000
    15 H15        0.5744   -22.7948    15.7029 H          1 BB1          0.0000
    16 H16        1.8070   -23.4526    14.5976 H          1 BB1          0.0000
    17 H17        2.1440   -21.0122    15.0467 H          1 BB1          0.0000
    18 H18        1.8268   -21.3429    13.3255 H          1 BB1          0.0000
    19 H19       -0.2207   -20.4014    15.3856 H          1 BB1          0.0000
    20 H20       -2.0707   -22.4943    13.0638 H          1 BB1          0.0000
    21 H21       -1.7244   -22.2136    14.7872 H          1 BB1          0.0000
    22 H22       -0.2753   -18.3689    13.9106 H          1 BB1          0.0000
    23 H23        1.0914   -18.3602    15.9588 H          1 BB1          0.0000
    24 H24        2.4435   -19.1189    15.0817 H          1 BB1          0.0000
    25 H25        1.2144   -16.3864    14.4914 H          1 BB1          0.0000
    26 H26        2.8059   -16.6871    15.2316 H          1 BB1          0.0000
    27 H27        3.0275   -16.2083    12.8080 H          1 BB1          0.0000
    28 H28        3.5365   -17.8722    13.1805 H          1 BB1          0.0000
    29 H29        2.1615   -19.7021    12.6437 H          1 BB1          0.0000
    30 H30        0.5852   -19.4586    11.8546 H          1 BB1          0.0000
    31 C1        -0.9824   -11.6960    10.6006 C.3        2 BB2          0.0000
    32 C2         0.1278   -12.0724     9.6537 C.2        2 BB2          0.0000
    33 O3         0.5421   -11.2618     8.8517 O.2        2 BB2          0.0000
    34 S4         0.8045   -13.6441     9.7096 S.3        2 BB2          0.0000
    35 C5        -0.1426   -14.3454    11.0834 C.3        2 BB2          0.0000
    36 C6         0.7480   -15.2992    11.8823 C.3        2 BB2          0.0000
    37 C7        -0.0391   -15.8792    13.0292 C.2        2 BB2          0.0000
    38 O8        -0.9987   -16.5980    12.8082 O.2        2 BB2          0.0000
    39 H10       -1.9443   -11.9285    10.1436 H          2 BB2          0.0000
    40 H11       -0.8754   -12.2586    11.5281 H          2 BB2          0.0000
    41 H12       -0.9306   -10.6285    10.8151 H          2 BB2          0.0000
    42 H13       -0.4892   -13.5419    11.7333 H          2 BB2          0.0000
    43 H14       -1.0005   -14.8917    10.6917 H          2 BB2          0.0000
    44 H15        1.0916   -16.1047    11.2334 H          2 BB2          0.0000
    45 H16        1.6079   -14.7537    12.2708 H          2 BB2          0.0000
@<TRIPOS>BOND
     1      1      2 1
     2      1      6 1
     3      1     13 1
     4      1     14 1
     5      2      3 1
     6      2     15 1
     7      2     16 1
     8      3      4 1
     9      3     17 1
    10      3     18 1
    11      4      5 1
    12      4      7 1
    13      4     19 1
    14      5      6 1
    15      6     20 1
    16      6     21 1
    17      7      8 1
    18      7     12 1
    19      7     22 1
    20      8      9 1
    21      8     23 1
    22      8     24 1
    23      9     10 1
    24      9     25 1
    25      9     26 1
    26     10     11 1
    27     10     27 1
    28     10     28 1
    29     11     12 1
    30     12     29 1
    31     12     30 1
    32     31     32 1
    33     31     39 1
    34     31     40 1
    35     31     41 1
    36     32     33 2
    37     32     34 1
    38     34     35 1
    39     35     36 1
    40     35     42 1
    41     35     43 1
    42     36     37 1
    43     36     44 1
    44     36     45 1
    45     37     38 2
    46     11     37 am
@<TRIPOS>SUBSTRUCTURE
     1 BB1          11
     2 BB2          37
@<TRIPOS>MOLECULE
EN300-269527_i002_EN300-35009_i001_9_10_1
  52   55   2   0   0
SMALL
USER_CHARGES
@<TRIPOS>ATOM
     1 C1        -0.1455   -23.2128    13.7134 C.3        1 BB1          0.0000
     2 C2         0.9572   -22.7754    14.6826 C.3        1 BB1          0.0000
     3 C3         1.3985   -21.3522    14.3278 C.3        1 BB1          0.0000
     4 C4         0.1828   -20.4229    14.3733 C.3        1 BB1          0.0000
     5 O5        -0.8166   -20.9038    13.4721 O.3        1 BB1          0.0000
     6 C6        -1.3015   -22.2117    13.7825 C.3        1 BB1          0.0000
     7 C7         0.6042   -19.0109    13.9616 C.3        1 BB1          0.0000
     8 C8         1.5878   -18.4498    14.9925 C.3        1 BB1          0.0000
     9 C9         2.0632   -17.0691    14.5312 C.3        1 BB1          0.0000
    10 C10        2.6878   -17.1896    13.1395 C.3        1 BB1          0.0000
    11 N11        1.6903   -17.7061    12.1946 N.am       1 BB1          0.0000
    12 C12        1.2828   -19.0593    12.5910 C.3        1 BB1          0.0000
    13 H13        0.2517   -23.2411    12.6987 H          1 BB1          0.0000
    14 H14       -0.5042   -24.2034    13.9928 H          1 BB1          0.0000
    15 H15        0.5744   -22.7948    15.7029 H          1 BB1          0.0000
    16 H16        1.8070   -23.4526    14.5976 H          1 BB1          0.0000
    17 H17        2.1440   -21.0122    15.0467 H          1 BB1          0.0000
    18 H18        1.8268   -21.3429    13.3255 H          1 BB1          0.0000
    19 H19       -0.2207   -20.4014    15.3856 H          1 BB1          0.0000
    20 H20       -2.0707   -22.4943    13.0638 H          1 BB1          0.0000
    21 H21       -1.7244   -22.2136    14.7872 H          1 BB1          0.0000
    22 H22       -0.2753   -18.3689    13.9106 H          1 BB1          0.0000
    23 H23        1.0914   -18.3602    15.9588 H          1 BB1          0.0000
    24 H24        2.4435   -19.1189    15.0817 H          1 BB1          0.0000
    25 H25        1.2144   -16.3864    14.4914 H          1 BB1          0.0000
    26 H26        2.8059   -16.6871    15.2316 H          1 BB1          0.0000
    27 H27        3.0275   -16.2083    12.8080 H          1 BB1          0.0000
    28 H28        3.5365   -17.8722    13.1805 H          1 BB1          0.0000
    29 H29        2.1615   -19.7021    12.6437 H          1 BB1          0.0000
    30 H30        0.5852   -19.4586    11.8546 H          1 BB1          0.0000
    31 C1        -1.0730   -18.6694     8.6332 C.3        2 BB2          0.0000
    32 C2        -0.5428   -17.4424     9.3292 C.2        2 BB2          0.0000
    33 N3        -0.2278   -16.3581     8.6293 N.2        2 BB2          0.0000
    34 C4         0.2347   -15.2723     9.1919 C.2        2 BB2          0.0000
    35 N5         0.4282   -15.1660    10.5173 N.am       2 BB2          0.0000
    36 C6         0.1422   -16.2069    11.3306 C.2        2 BB2          0.0000
    37 O7         0.3110   -16.1296    12.5343 O.2        2 BB2          0.0000
    38 C8        -0.3838   -17.4327    10.7152 C.2        2 BB2          0.0000
    39 C9        -0.7192   -18.6071    11.5269 C.2        2 BB2          0.0000
    40 O11       -0.4162   -19.7273    11.1371 O.2        2 BB2          0.0000
    41 C12        0.5650   -14.0905     8.3170 C.3        2 BB2          0.0000
    42 C13       -0.5325   -13.5728     7.3852 C.3        2 BB2          0.0000
    43 C14       -0.1372   -12.7662     8.6238 C.3        2 BB2          0.0000
    44 H15       -1.1299   -18.4826     7.5608 H          2 BB2          0.0000
    45 H16       -0.4056   -19.5104     8.8207 H          2 BB2          0.0000
    46 H17       -2.0672   -18.9024     9.0146 H          2 BB2          0.0000
    47 H18        1.5932   -14.0440     7.9582 H          2 BB2          0.0000
    48 H19       -0.2263   -13.1853     6.4135 H          2 BB2          0.0000
    49 H20       -1.4935   -14.0868     7.4049 H          2 BB2          0.0000
    50 H21       -0.8379   -12.7497     9.4584 H          2 BB2          0.0000
    51 H22        0.4291   -11.8482     8.4670 H          2 BB2          0.0000
    52 H23        0.7742   -14.3406    10.8912 H          2 BB2          0.0000
@<TRIPOS>BOND
     1      1      2 1
     2      1      6 1
     3      1     13 1
     4      1     14 1
     5      2      3 1
     6      2     15 1
     7      2     16 1
     8      3      4 1
     9      3     17 1
    10      3     18 1
    11      4      5 1
    12      4      7 1
    13      4     19 1
    14      5      6 1
    15      6     20 1
    16      6     21 1
    17      7      8 1
    18      7     12 1
    19      7     22 1
    20      8      9 1
    21      8     23 1
    22      8     24 1
    23      9     10 1
    24      9     25 1
    25      9     26 1
    26     10     11 1
    27     10     27 1
    28     10     28 1
    29     11     12 1
    30     12     29 1
    31     12     30 1
    32     31     32 1
    33     31     44 1
    34     31     45 1
    35     31     46 1
    36     32     33 1
    37     32     38 2
    38     33     34 2
    39     34     35 1
    40     34     41 1
    41     35     36 am
    42     35     52 1
    43     36     37 2
    44     36     38 1
    45     38     39 1
    46     39     40 2
    47     41     42 1
    48     41     43 1
    49     41     47 1
    50     42     43 1
    51     42     48 1
    52     42     49 1
    53     43     50 1
    54     43     51 1
    55     11     39 am
@<TRIPOS>SUBSTRUCTURE
     1 BB1          11
     2 BB2          39
@<TRIPOS>MOLECULE
EN300-269527_i002_EN300-35009_i001_9_17_1
  52   55   2   0   0
SMALL
USER_CHARGES
@<TRIPOS>ATOM
     1 C1        -0.1455   -23.2128    13.7134 C.3        1 BB1          0.0000
     2 C2         0.9572   -22.7754    14.6826 C.3        1 BB1          0.0000
     3 C3         1.3985   -21.3522    14.3278 C.3        1 BB1          0.0000
     4 C4         0.1828   -20.4229    14.3733 C.3        1 BB1          0.0000
     5 O5        -0.8166   -20.9038    13.4721 O.3        1 BB1          0.0000
     6 C6        -1.3015   -22.2117    13.7825 C.3        1 BB1          0.0000
     7 C7         0.6042   -19.0109    13.9616 C.3        1 BB1          0.0000
     8 C8         1.5878   -18.4498    14.9925 C.3        1 BB1          0.0000
     9 C9         2.0632   -17.0691    14.5312 C.3        1 BB1          0.0000
    10 C10        2.6878   -17.1896    13.1395 C.3        1 BB1          0.0000
    11 N11        1.6903   -17.7061    12.1946 N.am       1 BB1          0.0000
    12 C12        1.2828   -19.0593    12.5910 C.3        1 BB1          0.0000
    13 H13        0.2517   -23.2411    12.6987 H          1 BB1          0.0000
    14 H14       -0.5042   -24.2034    13.9928 H          1 BB1          0.0000
    15 H15        0.5744   -22.7948    15.7029 H          1 BB1          0.0000
    16 H16        1.8070   -23.4526    14.5976 H          1 BB1          0.0000
    17 H17        2.1440   -21.0122    15.0467 H          1 BB1          0.0000
    18 H18        1.8268   -21.3429    13.3255 H          1 BB1          0.0000
    19 H19       -0.2207   -20.4014    15.3856 H          1 BB1          0.0000
    20 H20       -2.0707   -22.4943    13.0638 H          1 BB1          0.0000
    21 H21       -1.7244   -22.2136    14.7872 H          1 BB1          0.0000
    22 H22       -0.2753   -18.3689    13.9106 H          1 BB1          0.0000
    23 H23        1.0914   -18.3602    15.9588 H          1 BB1          0.0000
    24 H24        2.4435   -19.1189    15.0817 H          1 BB1          0.0000
    25 H25        1.2144   -16.3864    14.4914 H          1 BB1          0.0000
    26 H26        2.8059   -16.6871    15.2316 H          1 BB1          0.0000
    27 H27        3.0275   -16.2083    12.8080 H          1 BB1          0.0000
    28 H28        3.5365   -17.8722    13.1805 H          1 BB1          0.0000
    29 H29        2.1615   -19.7021    12.6437 H          1 BB1          0.0000
    30 H30        0.5852   -19.4586    11.8546 H          1 BB1          0.0000
    31 C1         0.4156   -15.6043    13.3339 C.3        2 BB2          0.0000
    32 C2         0.2036   -15.9617    11.8853 C.2        2 BB2          0.0000
    33 N3         0.3477   -15.0401    10.9394 N.2        2 BB2          0.0000
    34 C4         0.1740   -15.3062     9.6712 C.2        2 BB2          0.0000
    35 N5        -0.1630   -16.5277     9.2242 N.am       2 BB2          0.0000
    36 C6        -0.3369   -17.5454    10.0962 C.2        2 BB2          0.0000
    37 O7        -0.6425   -18.6594     9.7102 O.2        2 BB2          0.0000
    38 C8        -0.1399   -17.2648    11.5247 C.2        2 BB2          0.0000
    39 C9        -0.3091   -18.3136    12.5357 C.2        2 BB2          0.0000
    40 O10        0.0687   -19.4545    12.3033 O.2        2 BB2          0.0000
    41 C12        0.3593   -14.1963     8.6687 C.3        2 BB2          0.0000
    42 C13        1.4034   -14.4040     7.5698 C.3        2 BB2          0.0000
    43 C14       -0.0872   -14.4622     7.2296 C.3        2 BB2          0.0000
    44 H15        0.6803   -14.5499    13.4129 H          2 BB2          0.0000
    45 H16       -0.5016   -15.7916    13.8922 H          2 BB2          0.0000
    46 H17        1.2215   -16.2129    13.7441 H          2 BB2          0.0000
    47 H18        0.2315   -13.1859     9.0570 H          2 BB2          0.0000
    48 H19        1.9623   -13.5301     7.2349 H          2 BB2          0.0000
    49 H20        1.9563   -15.3433     7.5718 H          2 BB2          0.0000
    50 H21       -0.5150   -15.4399     7.0080 H          2 BB2          0.0000
    51 H22       -0.5090   -13.6267     6.6711 H          2 BB2          0.0000
    52 H23       -0.2821   -16.6793     8.2735 H          2 BB2          0.0000
@<TRIPOS>BOND
     1      1      2 1
     2      1      6 1
     3      1     13 1
     4      1     14 1
     5      2      3 1
     6      2     15 1
     7      2     16 1
     8      3      4 1
     9      3     17 1
    10      3     18 1
    11      4      5 1
    12      4      7 1
    13      4     19 1
    14      5      6 1
    15      6     20 1
    16      6     21 1
    17      7      8 1
    18      7     12 1
    19      7     22 1
    20      8      9 1
    21      8     23 1
    22      8     24 1
    23      9     10 1
    24      9     25 1
    25      9     26 1
    26     10     11 1
    27     10     27 1
    28     10     28 1
    29     11     12 1
    30     12     29 1
    31     12     30 1
    32     31     32 1
    33     31     44 1
    34     31     45 1
    35     31     46 1
    36     32     33 1
    37     32     38 2
    38     33     34 2
    39     34     35 1
    40     34     41 1
    41     35     36 am
    42     35     52 1
    43     36     37 2
    44     36     38 1
    45     38     39 1
    46     39     40 2
    47     41     42 1
    48     41     43 1
    49     41     47 1
    50     42     43 1
    51     42     48 1
    52     42     49 1
    53     43     50 1
    54     43     51 1
    55     11     39 am
@<TRIPOS>SUBSTRUCTURE
     1 BB1          11
     2 BB2          39
@<TRIPOS>MOLECULE
EN300-269527_i002_EN300-15782_i003_9_13_1
  64   66   2   0   0
SMALL
USER_CHARGES
@<TRIPOS>ATOM
     1 C1        -0.1455   -23.2128    13.7134 C.3        1 BB1          0.0000
     2 C2         0.9572   -22.7754    14.6826 C.3        1 BB1          0.0000
     3 C3         1.3985   -21.3522    14.3278 C.3        1 BB1          0.0000
     4 C4         0.1828   -20.4229    14.3733 C.3        1 BB1          0.0000
     5 O5        -0.8166   -20.9038    13.4721 O.3        1 BB1          0.0000
     6 C6        -1.3015   -22.2117    13.7825 C.3        1 BB1          0.0000
     7 C7         0.6042   -19.0109    13.9616 C.3        1 BB1          0.0000
     8 C8         1.5878   -18.4498    14.9925 C.3        1 BB1          0.0000
     9 C9         2.0632   -17.0691    14.5312 C.3        1 BB1          0.0000
    10 C10        2.6878   -17.1896    13.1395 C.3        1 BB1          0.0000
    11 N11        1.6903   -17.7061    12.1946 N.am       1 BB1          0.0000
    12 C12        1.2828   -19.0593    12.5910 C.3        1 BB1          0.0000
    13 H13        0.2517   -23.2411    12.6987 H          1 BB1          0.0000
    14 H14       -0.5042   -24.2034    13.9928 H          1 BB1          0.0000
    15 H15        0.5744   -22.7948    15.7029 H          1 BB1          0.0000
    16 H16        1.8070   -23.4526    14.5976 H          1 BB1          0.0000
    17 H17        2.1440   -21.0122    15.0467 H          1 BB1          0.0000
    18 H18        1.8268   -21.3429    13.3255 H          1 BB1          0.0000
    19 H19       -0.2207   -20.4014    15.3856 H          1 BB1          0.0000
    20 H20       -2.0707   -22.4943    13.0638 H          1 BB1          0.0000
    21 H21       -1.7244   -22.2136    14.7872 H          1 BB1          0.0000
    22 H22       -0.2753   -18.3689    13.9106 H          1 BB1          0.0000
    23 H23        1.0914   -18.3602    15.9588 H          1 BB1          0.0000
    24 H24        2.4435   -19.1189    15.0817 H          1 BB1          0.0000
    25 H25        1.2144   -16.3864    14.4914 H          1 BB1          0.0000
    26 H26        2.8059   -16.6871    15.2316 H          1 BB1          0.0000
    27 H27        3.0275   -16.2083    12.8080 H          1 BB1          0.0000
    28 H28        3.5365   -17.8722    13.1805 H          1 BB1          0.0000
    29 H29        2.1615   -19.7021    12.6437 H          1 BB1          0.0000
    30 H30        0.5852   -19.4586    11.8546 H          1 BB1          0.0000
    31 C1        -1.0027   -18.6540     9.2703 C.3        2 BB2          0.0000
    32 C2        -0.5207   -19.1795    10.6240 C.3        2 BB2          0.0000
    33 O3         0.8220   -19.6531    10.5004 O.3        2 BB2          0.0000
    34 C4        -0.5705   -18.0513    11.6562 C.3        2 BB2          0.0000
    35 N5         0.5139   -17.1017    11.3945 N.pl3      2 BB2          0.0000
    36 S6         0.6492   -15.7271    12.3080 S.o2       2 BB2          0.0000
    37 O7        -0.2559   -15.8758    13.3932 O.2        2 BB2          0.0000
    38 O8         2.0405   -15.4965    12.4823 O.2        2 BB2          0.0000
    39 C9         0.0419   -14.3910    11.3329 C.ar       2 BB2          0.0000
    40 C10       -0.8776   -13.5080    11.8670 C.ar       2 BB2          0.0000
    41 C11       -1.3542   -12.4596    11.1018 C.ar       2 BB2          0.0000
    42 C12       -0.9108   -12.2944     9.8033 C.ar       2 BB2          0.0000
    43 C13       -1.4306   -11.1519     8.9693 C.3        2 BB2          0.0000
    44 C14        0.0100   -13.1768     9.2696 C.ar       2 BB2          0.0000
    45 C15        0.4938   -12.9964     7.8539 C.3        2 BB2          0.0000
    46 C16        0.4893   -14.2226    10.0358 C.ar       2 BB2          0.0000
    47 C17       -0.4100   -18.6283    13.0391 C.2        2 BB2          0.0000
    48 O18        0.6141   -18.4260    13.6690 O.2        2 BB2          0.0000
    49 H20       -0.9671   -19.4577     8.5349 H          2 BB2          0.0000
    50 H21       -2.0267   -18.2927     9.3646 H          2 BB2          0.0000
    51 H22       -0.3576   -17.8370     8.9472 H          2 BB2          0.0000
    52 H23       -1.1658   -19.9966    10.9472 H          2 BB2          0.0000
    53 H24       -1.5289   -17.5369    11.5862 H          2 BB2          0.0000
    54 H25       -1.2241   -13.6371    12.8817 H          2 BB2          0.0000
    55 H26       -2.0732   -11.7700    11.5189 H          2 BB2          0.0000
    56 H27       -0.7893   -10.2812     9.1057 H          2 BB2          0.0000
    57 H28       -1.4325   -11.4408     7.9182 H          2 BB2          0.0000
    58 H29       -2.4463   -10.9075     9.2805 H          2 BB2          0.0000
    59 H30        1.3769   -12.3574     7.8503 H          2 BB2          0.0000
    60 H31        0.7467   -13.9680     7.4296 H          2 BB2          0.0000
    61 H32       -0.2922   -12.5329     7.2576 H          2 BB2          0.0000
    62 H33        1.2086   -14.9119     9.6188 H          2 BB2          0.0000
    63 H34        1.4901   -18.9551    10.5369 H          2 BB2          0.0000
    64 H35        1.1526   -17.2780    10.6861 H          2 BB2          0.0000
@<TRIPOS>BOND
     1      1      2 1
     2      1      6 1
     3      1     13 1
     4      1     14 1
     5      2      3 1
     6      2     15 1
     7      2     16 1
     8      3      4 1
     9      3     17 1
    10      3     18 1
    11      4      5 1
    12      4      7 1
    13      4     19 1
    14      5      6 1
    15      6     20 1
    16      6     21 1
    17      7      8 1
    18      7     12 1
    19      7     22 1
    20      8      9 1
    21      8     23 1
    22      8     24 1
    23      9     10 1
    24      9     25 1
    25      9     26 1
    26     10     11 1
    27     10     27 1
    28     10     28 1
    29     11     12 1
    30     12     29 1
    31     12     30 1
    32     31     32 1
    33     31     49 1
    34     31     50 1
    35     31     51 1
    36     32     33 1
    37     32     34 1
    38     32     52 1
    39     33     63 1
    40     34     35 1
    41     34     47 1
    42     34     53 1
    43     35     36 1
    44     35     64 1
    45     36     37 2
    46     36     38 2
    47     36     39 1
    48     39     40 ar
    49     39     46 ar
    50     40     41 ar
    51     40     54 1
    52     41     42 ar
    53     41     55 1
    54     42     43 1
    55     42     44 ar
    56     43     56 1
    57     43     57 1
    58     43     58 1
    59     44     45 1
    60     44     46 ar
    61     45     59 1
    62     45     60 1
    63     45     61 1
    64     46     62 1
    65     47     48 2
    66     11     47 am
@<TRIPOS>SUBSTRUCTURE
     1 BB1          11
     2 BB2          47
@<TRIPOS>MOLECULE
EN300-269527_i002_EN300-15782_i003_9_17_1
  64   66   2   0   0
SMALL
USER_CHARGES
@<TRIPOS>ATOM
     1 C1        -0.1455   -23.2128    13.7134 C.3        1 BB1          0.0000
     2 C2         0.9572   -22.7754    14.6826 C.3        1 BB1          0.0000
     3 C3         1.3985   -21.3522    14.3278 C.3        1 BB1          0.0000
     4 C4         0.1828   -20.4229    14.3733 C.3        1 BB1          0.0000
     5 O5        -0.8166   -20.9038    13.4721 O.3        1 BB1          0.0000
     6 C6        -1.3015   -22.2117    13.7825 C.3        1 BB1          0.0000
     7 C7         0.6042   -19.0109    13.9616 C.3        1 BB1          0.0000
     8 C8         1.5878   -18.4498    14.9925 C.3        1 BB1          0.0000
     9 C9         2.0632   -17.0691    14.5312 C.3        1 BB1          0.0000
    10 C10        2.6878   -17.1896    13.1395 C.3        1 BB1          0.0000
    11 N11        1.6903   -17.7061    12.1946 N.am       1 BB1          0.0000
    12 C12        1.2828   -19.0593    12.5910 C.3        1 BB1          0.0000
    13 H13        0.2517   -23.2411    12.6987 H          1 BB1          0.0000
    14 H14       -0.5042   -24.2034    13.9928 H          1 BB1          0.0000
    15 H15        0.5744   -22.7948    15.7029 H          1 BB1          0.0000
    16 H16        1.8070   -23.4526    14.5976 H          1 BB1          0.0000
    17 H17        2.1440   -21.0122    15.0467 H          1 BB1          0.0000
    18 H18        1.8268   -21.3429    13.3255 H          1 BB1          0.0000
    19 H19       -0.2207   -20.4014    15.3856 H          1 BB1          0.0000
    20 H20       -2.0707   -22.4943    13.0638 H          1 BB1          0.0000
    21 H21       -1.7244   -22.2136    14.7872 H          1 BB1          0.0000
    22 H22       -0.2753   -18.3689    13.9106 H          1 BB1          0.0000
    23 H23        1.0914   -18.3602    15.9588 H          1 BB1          0.0000
    24 H24        2.4435   -19.1189    15.0817 H          1 BB1          0.0000
    25 H25        1.2144   -16.3864    14.4914 H          1 BB1          0.0000
    26 H26        2.8059   -16.6871    15.2316 H          1 BB1          0.0000
    27 H27        3.0275   -16.2083    12.8080 H          1 BB1          0.0000
    28 H28        3.5365   -17.8722    13.1805 H          1 BB1          0.0000
    29 H29        2.1615   -19.7021    12.6437 H          1 BB1          0.0000
    30 H30        0.5852   -19.4586    11.8546 H          1 BB1          0.0000
    31 C1        -0.7299   -17.9233     8.8213 C.3        2 BB2          0.0000
    32 C2        -0.7098   -18.4976    10.2392 C.3        2 BB2          0.0000
    33 O3         0.3486   -19.4512    10.3520 O.3        2 BB2          0.0000
    34 C4        -0.4862   -17.3662    11.2447 C.3        2 BB2          0.0000
    35 N5         0.7805   -16.6927    10.9481 N.pl3      2 BB2          0.0000
    36 S6         0.9977   -15.1093    11.3817 S.o2       2 BB2          0.0000
    37 O7        -0.1361   -14.7466    12.1577 O.2        2 BB2          0.0000
    38 O8         2.3320   -15.0033    11.8588 O.2        2 BB2          0.0000
    39 C9         0.9190   -14.1490     9.9065 C.ar       2 BB2          0.0000
    40 C10        1.6009   -14.5606     8.7770 C.ar       2 BB2          0.0000
    41 C11        1.5392   -13.8070     7.6194 C.ar       2 BB2          0.0000
    42 C12        0.7953   -12.6425     7.5917 C.ar       2 BB2          0.0000
    43 C13        0.7285   -11.8210     6.3301 C.3        2 BB2          0.0000
    44 C14        0.1122   -12.2315     8.7212 C.ar       2 BB2          0.0000
    45 C15       -0.6992   -10.9620     8.6909 C.3        2 BB2          0.0000
    46 C16        0.1708   -12.9869     9.8773 C.ar       2 BB2          0.0000
    47 C17       -0.4378   -17.9358    12.6391 C.2        2 BB2          0.0000
    48 O18        0.4554   -17.6072    13.4012 O.2        2 BB2          0.0000
    49 H20       -0.8891   -18.7293     8.1050 H          2 BB2          0.0000
    50 H21       -1.5371   -17.1959     8.7353 H          2 BB2          0.0000
    51 H22        0.2224   -17.4354     8.6134 H          2 BB2          0.0000
    52 H23       -1.6621   -18.9856    10.4471 H          2 BB2          0.0000
    53 H24       -1.3043   -16.6496    11.1731 H          2 BB2          0.0000
    54 H25        2.1821   -15.4706     8.7986 H          2 BB2          0.0000
    55 H26        2.0725   -14.1283     6.7369 H          2 BB2          0.0000
    56 H27       -0.1116   -12.1564     5.7221 H          2 BB2          0.0000
    57 H28        0.5943   -10.7703     6.5874 H          2 BB2          0.0000
    58 H29        1.6548   -11.9419     5.7683 H          2 BB2          0.0000
    59 H30       -1.7187   -11.1897     8.3795 H          2 BB2          0.0000
    60 H31       -0.7141   -10.5164     9.6855 H          2 BB2          0.0000
    61 H32       -0.2518   -10.2617     7.9855 H          2 BB2          0.0000
    62 H33       -0.3630   -12.6658    10.7596 H          2 BB2          0.0000
    63 H34        0.6762   -19.7774     9.5028 H          2 BB2          0.0000
    64 H35        1.4921   -17.1741    10.4977 H          2 BB2          0.0000
@<TRIPOS>BOND
     1      1      2 1
     2      1      6 1
     3      1     13 1
     4      1     14 1
     5      2      3 1
     6      2     15 1
     7      2     16 1
     8      3      4 1
     9      3     17 1
    10      3     18 1
    11      4      5 1
    12      4      7 1
    13      4     19 1
    14      5      6 1
    15      6     20 1
    16      6     21 1
    17      7      8 1
    18      7     12 1
    19      7     22 1
    20      8      9 1
    21      8     23 1
    22      8     24 1
    23      9     10 1
    24      9     25 1
    25      9     26 1
    26     10     11 1
    27     10     27 1
    28     10     28 1
    29     11     12 1
    30     12     29 1
    31     12     30 1
    32     31     32 1
    33     31     49 1
    34     31     50 1
    35     31     51 1
    36     32     33 1
    37     32     34 1
    38     32     52 1
    39     33     63 1
    40     34     35 1
    41     34     47 1
    42     34     53 1
    43     35     36 1
    44     35     64 1
    45     36     37 2
    46     36     38 2
    47     36     39 1
    48     39     40 ar
    49     39     46 ar
    50     40     41 ar
    51     40     54 1
    52     41     42 ar
    53     41     55 1
    54     42     43 1
    55     42     44 ar
    56     43     56 1
    57     43     57 1
    58     43     58 1
    59     44     45 1
    60     44     46 ar
    61     45     59 1
    62     45     60 1
    63     45     61 1
    64     46     62 1
    65     47     48 2
    66     11     47 am
@<TRIPOS>SUBSTRUCTURE
     1 BB1          11
     2 BB2          47
@<TRIPOS>MOLECULE
EN300-266730_i001_EN300-1198129_i001_10_16_1
  55   58   2   0   0
SMALL
USER_CHARGES
@<TRIPOS>ATOM
     1 C1        -0.5858   -19.4386    11.8574 C.3        1 BB1          0.0000
     2 C2         0.7143   -20.2641    11.9403 C.3        1 BB1          0.0000
     3 O3         1.7035   -19.4419    12.5905 O.3        1 BB1          0.0000
     4 C4         1.3212   -18.0827    12.3396 C.3        1 BB1          0.0000
     5 C5         2.0202   -17.0981    13.2509 C.3        1 BB1          0.0000
     6 C6         1.5466   -17.2612    14.6968 C.3        1 BB1          0.0000
     7 C7         0.0218   -17.1034    14.7188 C.3        1 BB1          0.0000
     8 N8        -0.5728   -18.1861    13.9328 N.am       1 BB1          0.0000
     9 C9        -0.2093   -18.0786    12.5147 C.3        1 BB1          0.0000
    10 C10        0.4766   -21.5145    12.7472 C.ar       1 BB1          0.0000
    11 C11       -0.5789   -22.3498    12.4327 C.ar       1 BB1          0.0000
    12 C12       -0.7970   -23.4968    13.1728 C.ar       1 BB1          0.0000
    13 C13        0.0408   -23.8087    14.2273 C.ar       1 BB1          0.0000
    14 C14        1.0969   -22.9738    14.5411 C.ar       1 BB1          0.0000
    15 C15        1.3175   -21.8290    13.7983 C.ar       1 BB1          0.0000
    16 H16       -0.8801   -19.2925    10.8181 H          1 BB1          0.0000
    17 H17       -1.3842   -19.9257    12.4171 H          1 BB1          0.0000
    18 H18        1.0513   -20.5262    10.9374 H          1 BB1          0.0000
    19 H19        1.5495   -17.8340    11.3032 H          1 BB1          0.0000
    20 H20        3.0957   -17.2685    13.2049 H          1 BB1          0.0000
    21 H21        1.8042   -16.0838    12.9155 H          1 BB1          0.0000
    22 H22        1.8195   -18.2504    15.0642 H          1 BB1          0.0000
    23 H23        2.0050   -16.4958    15.3229 H          1 BB1          0.0000
    24 H24       -0.3368   -17.1582    15.7467 H          1 BB1          0.0000
    25 H25       -0.2527   -16.1423    14.2840 H          1 BB1          0.0000
    26 H26       -0.6910   -17.2306    12.0279 H          1 BB1          0.0000
    27 H27       -1.2335   -22.1062    11.6089 H          1 BB1          0.0000
    28 H28       -1.6220   -24.1491    12.9275 H          1 BB1          0.0000
    29 H29       -0.1299   -24.7043    14.8059 H          1 BB1          0.0000
    30 H30        1.7512   -23.2172    15.3652 H          1 BB1          0.0000
    31 H31        2.1426   -21.1768    14.0435 H          1 BB1          0.0000
    32 C2        -0.3578   -15.7728    13.1084 C.2        2 BB2          0.0000
    33 O3        -1.3034   -16.5039    12.8483 O.2        2 BB2          0.0000
    34 C4         0.4393   -15.1832    12.0183 C.ar       2 BB2          0.0000
    35 C5        -0.1358   -14.2472    11.1540 C.ar       2 BB2          0.0000
    36 C6         0.6160   -13.6999    10.1365 C.ar       2 BB2          0.0000
    37 C7         1.9383   -14.0742     9.9675 C.ar       2 BB2          0.0000
    38 C8         2.5170   -14.9992    10.8166 C.ar       2 BB2          0.0000
    39 C9         1.7788   -15.5532    11.8462 C.ar       2 BB2          0.0000
    40 F10        2.3445   -16.4569    12.6759 F          2 BB2          0.0000
    41 S11       -0.1085   -12.5200     9.0468 S.o2       2 BB2          0.0000
    42 O12        0.7172   -11.3707     9.1757 O.2        2 BB2          0.0000
    43 O13       -0.2183   -13.2080     7.8083 O.2        2 BB2          0.0000
    44 C14       -1.7516   -12.2053     9.7480 C.3        2 BB2          0.0000
    45 C15       -1.8209   -10.7645    10.2581 C.3        2 BB2          0.0000
    46 C16       -3.2119   -10.2873    10.1927 C.1        2 BB2          0.0000
    47 C17       -4.3213    -9.9066    10.1405 C.1        2 BB2          0.0000
    48 H18       -1.1671   -13.9537    11.2830 H          2 BB2          0.0000
    49 H19        2.5208   -13.6416     9.1675 H          2 BB2          0.0000
    50 H20        3.5489   -15.2860    10.6783 H          2 BB2          0.0000
    51 H21       -2.5096   -12.3554     8.9793 H          2 BB2          0.0000
    52 H22       -1.9316   -12.8925    10.5747 H          2 BB2          0.0000
    53 H23       -1.4723   -10.7273    11.2902 H          2 BB2          0.0000
    54 H24       -1.1892   -10.1286     9.6379 H          2 BB2          0.0000
    55 H25       -5.3135    -9.5662    10.0940 H          2 BB2          0.0000
@<TRIPOS>BOND
     1      1      2 1
     2      1      9 1
     3      1     16 1
     4      1     17 1
     5      2      3 1
     6      2     10 1
     7      2     18 1
     8      3      4 1
     9      4      5 1
    10      4      9 1
    11      4     19 1
    12      5      6 1
    13      5     20 1
    14      5     21 1
    15      6      7 1
    16      6     22 1
    17      6     23 1
    18      7      8 1
    19      7     24 1
    20      7     25 1
    21      8      9 1
    22      9     26 1
    23     10     11 ar
    24     10     15 ar
    25     11     12 ar
    26     11     27 1
    27     12     13 ar
    28     12     28 1
    29     13     14 ar
    30     13     29 1
    31     14     15 ar
    32     14     30 1
    33     15     31 1
    34     32     33 2
    35     32     34 1
    36     34     35 ar
    37     34     39 ar
    38     35     36 ar
    39     35     48 1
    40     36     37 ar
    41     36     41 1
    42     37     38 ar
    43     37     49 1
    44     38     39 ar
    45     38     50 1
    46     39     40 1
    47     41     42 2
    48     41     43 2
    49     41     44 1
    50     44     45 1
    51     44     51 1
    52     44     52 1
    53     45     46 1
    54     45     53 1
    55     45     54 1
    56     46     47 3
    57     47     55 1
    58      8     32 am
@<TRIPOS>SUBSTRUCTURE
     1 BB1           8
     2 BB2          32
@<TRIPOS>MOLECULE
EN300-266730_i001_EN300-1198129_i001_10_9_1
  55   58   2   0   0
SMALL
USER_CHARGES
@<TRIPOS>ATOM
     1 C1        -0.5858   -19.4386    11.8574 C.3        1 BB1          0.0000
     2 C2         0.7143   -20.2641    11.9403 C.3        1 BB1          0.0000
     3 O3         1.7035   -19.4419    12.5905 O.3        1 BB1          0.0000
     4 C4         1.3212   -18.0827    12.3396 C.3        1 BB1          0.0000
     5 C5         2.0202   -17.0981    13.2509 C.3        1 BB1          0.0000
     6 C6         1.5466   -17.2612    14.6968 C.3        1 BB1          0.0000
     7 C7         0.0218   -17.1034    14.7188 C.3        1 BB1          0.0000
     8 N8        -0.5728   -18.1861    13.9328 N.am       1 BB1          0.0000
     9 C9        -0.2093   -18.0786    12.5147 C.3        1 BB1          0.0000
    10 C10        0.4766   -21.5145    12.7472 C.ar       1 BB1          0.0000
    11 C11       -0.5789   -22.3498    12.4327 C.ar       1 BB1          0.0000
    12 C12       -0.7970   -23.4968    13.1728 C.ar       1 BB1          0.0000
    13 C13        0.0408   -23.8087    14.2273 C.ar       1 BB1          0.0000
    14 C14        1.0969   -22.9738    14.5411 C.ar       1 BB1          0.0000
    15 C15        1.3175   -21.8290    13.7983 C.ar       1 BB1          0.0000
    16 H16       -0.8801   -19.2925    10.8181 H          1 BB1          0.0000
    17 H17       -1.3842   -19.9257    12.4171 H          1 BB1          0.0000
    18 H18        1.0513   -20.5262    10.9374 H          1 BB1          0.0000
    19 H19        1.5495   -17.8340    11.3032 H          1 BB1          0.0000
    20 H20        3.0957   -17.2685    13.2049 H          1 BB1          0.0000
    21 H21        1.8042   -16.0838    12.9155 H          1 BB1          0.0000
    22 H22        1.8195   -18.2504    15.0642 H          1 BB1          0.0000
    23 H23        2.0050   -16.4958    15.3229 H          1 BB1          0.0000
    24 H24       -0.3368   -17.1582    15.7467 H          1 BB1          0.0000
    25 H25       -0.2527   -16.1423    14.2840 H          1 BB1          0.0000
    26 H26       -0.6910   -17.2306    12.0279 H          1 BB1          0.0000
    27 H27       -1.2335   -22.1062    11.6089 H          1 BB1          0.0000
    28 H28       -1.6220   -24.1491    12.9275 H          1 BB1          0.0000
    29 H29       -0.1299   -24.7043    14.8059 H          1 BB1          0.0000
    30 H30        1.7512   -23.2172    15.3652 H          1 BB1          0.0000
    31 H31        2.1426   -21.1768    14.0435 H          1 BB1          0.0000
    32 C2        -0.3298   -16.2651    12.1501 C.2        2 BB2          0.0000
    33 O3        -0.7790   -17.3577    12.4674 O.2        2 BB2          0.0000
    34 C4        -0.2777   -15.8739    10.7304 C.ar       2 BB2          0.0000
    35 C5        -0.0559   -14.5399    10.3768 C.ar       2 BB2          0.0000
    36 C6        -0.0084   -14.1812     9.0467 C.ar       2 BB2          0.0000
    37 C7        -0.1800   -15.1375     8.0601 C.ar       2 BB2          0.0000
    38 C8        -0.4001   -16.4597     8.3988 C.ar       2 BB2          0.0000
    39 C9        -0.4444   -16.8374     9.7282 C.ar       2 BB2          0.0000
    40 F10       -0.6594   -18.1295    10.0590 F          2 BB2          0.0000
    41 S11        0.2712   -12.4998     8.6004 S.o2       2 BB2          0.0000
    42 O12        1.1192   -12.0014     9.6259 O.2        2 BB2          0.0000
    43 O13        0.7129   -12.5641     7.2513 O.2        2 BB2          0.0000
    44 C14       -1.3671   -11.7273     8.6976 C.3        2 BB2          0.0000
    45 C15       -1.8344   -11.7042    10.1543 C.3        2 BB2          0.0000
    46 C16       -3.1653   -11.0801    10.2329 C.1        2 BB2          0.0000
    47 C17       -4.2268   -10.5825    10.2955 C.1        2 BB2          0.0000
    48 H18        0.0778   -13.7917    11.1441 H          2 BB2          0.0000
    49 H19       -0.1423   -14.8487     7.0201 H          2 BB2          0.0000
    50 H20       -0.5331   -17.1996     7.6236 H          2 BB2          0.0000
    51 H21       -1.3110   -10.7072     8.3179 H          2 BB2          0.0000
    52 H22       -2.0750   -12.2997     8.0981 H          2 BB2          0.0000
    53 H23       -1.8885   -12.7242    10.5348 H          2 BB2          0.0000
    54 H24       -1.1279   -11.1298    10.7535 H          2 BB2          0.0000
    55 H25       -5.1762   -10.1374    10.3514 H          2 BB2          0.0000
@<TRIPOS>BOND
     1      1      2 1
     2      1      9 1
     3      1     16 1
     4      1     17 1
     5      2      3 1
     6      2     10 1
     7      2     18 1
     8      3      4 1
     9      4      5 1
    10      4      9 1
    11      4     19 1
    12      5      6 1
    13      5     20 1
    14      5     21 1
    15      6      7 1
    16      6     22 1
    17      6     23 1
    18      7      8 1
    19      7     24 1
    20      7     25 1
    21      8      9 1
    22      9     26 1
    23     10     11 ar
    24     10     15 ar
    25     11     12 ar
    26     11     27 1
    27     12     13 ar
    28     12     28 1
    29     13     14 ar
    30     13     29 1
    31     14     15 ar
    32     14     30 1
    33     15     31 1
    34     32     33 2
    35     32     34 1
    36     34     35 ar
    37     34     39 ar
    38     35     36 ar
    39     35     48 1
    40     36     37 ar
    41     36     41 1
    42     37     38 ar
    43     37     49 1
    44     38     39 ar
    45     38     50 1
    46     39     40 1
    47     41     42 2
    48     41     43 2
    49     41     44 1
    50     44     45 1
    51     44     51 1
    52     44     52 1
    53     45     46 1
    54     45     53 1
    55     45     54 1
    56     46     47 3
    57     47     55 1
    58      8     32 am
@<TRIPOS>SUBSTRUCTURE
     1 BB1           8
     2 BB2          32
@<TRIPOS>MOLECULE
EN300-266730_i001_EN300-4287209_i001_10_6_1
  46   49   2   0   0
SMALL
USER_CHARGES
@<TRIPOS>ATOM
     1 C1        -0.5858   -19.4386    11.8574 C.3        1 BB1          0.0000
     2 C2         0.7143   -20.2641    11.9403 C.3        1 BB1          0.0000
     3 O3         1.7035   -19.4419    12.5905 O.3        1 BB1          0.0000
     4 C4         1.3212   -18.0827    12.3396 C.3        1 BB1          0.0000
     5 C5         2.0202   -17.0981    13.2509 C.3        1 BB1          0.0000
     6 C6         1.5466   -17.2612    14.6968 C.3        1 BB1          0.0000
     7 C7         0.0218   -17.1034    14.7188 C.3        1 BB1          0.0000
     8 N8        -0.5728   -18.1861    13.9328 N.am       1 BB1          0.0000
     9 C9        -0.2093   -18.0786    12.5147 C.3        1 BB1          0.0000
    10 C10        0.4766   -21.5145    12.7472 C.ar       1 BB1          0.0000
    11 C11       -0.5789   -22.3498    12.4327 C.ar       1 BB1          0.0000
    12 C12       -0.7970   -23.4968    13.1728 C.ar       1 BB1          0.0000
    13 C13        0.0408   -23.8087    14.2273 C.ar       1 BB1          0.0000
    14 C14        1.0969   -22.9738    14.5411 C.ar       1 BB1          0.0000
    15 C15        1.3175   -21.8290    13.7983 C.ar       1 BB1          0.0000
    16 H16       -0.8801   -19.2925    10.8181 H          1 BB1          0.0000
    17 H17       -1.3842   -19.9257    12.4171 H          1 BB1          0.0000
    18 H18        1.0513   -20.5262    10.9374 H          1 BB1          0.0000
    19 H19        1.5495   -17.8340    11.3032 H          1 BB1          0.0000
    20 H20        3.0957   -17.2685    13.2049 H          1 BB1          0.0000
    21 H21        1.8042   -16.0838    12.9155 H          1 BB1          0.0000
    22 H22        1.8195   -18.2504    15.0642 H          1 BB1          0.0000
    23 H23        2.0050   -16.4958    15.3229 H          1 BB1          0.0000
    24 H24       -0.3368   -17.1582    15.7467 H          1 BB1          0.0000
    25 H25       -0.2527   -16.1423    14.2840 H          1 BB1          0.0000
    26 H26       -0.6910   -17.2306    12.0279 H          1 BB1          0.0000
    27 H27       -1.2335   -22.1062    11.6089 H          1 BB1          0.0000
    28 H28       -1.6220   -24.1491    12.9275 H          1 BB1          0.0000
    29 H29       -0.1299   -24.7043    14.8059 H          1 BB1          0.0000
    30 H30        1.7512   -23.2172    15.3652 H          1 BB1          0.0000
    31 H31        2.1426   -21.1768    14.0435 H          1 BB1          0.0000
    32 O1        -0.7080   -17.4711    12.5580 O.2        2 BB2          0.0000
    33 C2        -0.1536   -16.4857    12.0918 C.2        2 BB2          0.0000
    34 C4        -0.1204   -16.2800    10.6318 C.ar       2 BB2          0.0000
    35 C5         0.2132   -15.0305    10.1087 C.ar       2 BB2          0.0000
    36 C6         0.2425   -14.8456     8.7290 C.ar       2 BB2          0.0000
    37 C7         0.5845   -13.5663     8.1842 C.1        2 BB2          0.0000
    38 C8         0.8649   -12.5175     7.7374 C.1        2 BB2          0.0000
    39 C9        -0.0616   -15.9100     7.8771 C.ar       2 BB2          0.0000
    40 C10       -0.3916   -17.1448     8.3989 C.ar       2 BB2          0.0000
    41 C11       -0.4177   -17.3393     9.7667 C.ar       2 BB2          0.0000
    42 Cl12      -0.8340   -18.8957    10.4133 Cl         2 BB2          0.0000
    43 H13        0.4473   -14.2101    10.7709 H          2 BB2          0.0000
    44 H14        1.1157   -11.5794     7.3378 H          2 BB2          0.0000
    45 H15       -0.0387   -15.7663     6.8069 H          2 BB2          0.0000
    46 H16       -0.6261   -17.9636     7.7348 H          2 BB2          0.0000
@<TRIPOS>BOND
     1      1      2 1
     2      1      9 1
     3      1     16 1
     4      1     17 1
     5      2      3 1
     6      2     10 1
     7      2     18 1
     8      3      4 1
     9      4      5 1
    10      4      9 1
    11      4     19 1
    12      5      6 1
    13      5     20 1
    14      5     21 1
    15      6      7 1
    16      6     22 1
    17      6     23 1
    18      7      8 1
    19      7     24 1
    20      7     25 1
    21      8      9 1
    22      9     26 1
    23     10     11 ar
    24     10     15 ar
    25     11     12 ar
    26     11     27 1
    27     12     13 ar
    28     12     28 1
    29     13     14 ar
    30     13     29 1
    31     14     15 ar
    32     14     30 1
    33     15     31 1
    34     32     33 2
    35     33     34 1
    36     34     35 ar
    37     34     41 ar
    38     35     36 ar
    39     35     43 1
    40     36     37 1
    41     36     39 ar
    42     37     38 3
    43     38     44 1
    44     39     40 ar
    45     39     45 1
    46     40     41 ar
    47     40     46 1
    48     41     42 1
    49      8     33 am
@<TRIPOS>SUBSTRUCTURE
     1 BB1           8
     2 BB2          33
@<TRIPOS>MOLECULE
EN300-266730_i001_EN300-1165841_i001_10_9_1
  59   62   2   0   0
SMALL
USER_CHARGES
@<TRIPOS>ATOM
     1 C1        -0.5858   -19.4386    11.8574 C.3        1 BB1          0.0000
     2 C2         0.7143   -20.2641    11.9403 C.3        1 BB1          0.0000
     3 O3         1.7035   -19.4419    12.5905 O.3        1 BB1          0.0000
     4 C4         1.3212   -18.0827    12.3396 C.3        1 BB1          0.0000
     5 C5         2.0202   -17.0981    13.2509 C.3        1 BB1          0.0000
     6 C6         1.5466   -17.2612    14.6968 C.3        1 BB1          0.0000
     7 C7         0.0218   -17.1034    14.7188 C.3        1 BB1          0.0000
     8 N8        -0.5728   -18.1861    13.9328 N.am       1 BB1          0.0000
     9 C9        -0.2093   -18.0786    12.5147 C.3        1 BB1          0.0000
    10 C10        0.4766   -21.5145    12.7472 C.ar       1 BB1          0.0000
    11 C11       -0.5789   -22.3498    12.4327 C.ar       1 BB1          0.0000
    12 C12       -0.7970   -23.4968    13.1728 C.ar       1 BB1          0.0000
    13 C13        0.0408   -23.8087    14.2273 C.ar       1 BB1          0.0000
    14 C14        1.0969   -22.9738    14.5411 C.ar       1 BB1          0.0000
    15 C15        1.3175   -21.8290    13.7983 C.ar       1 BB1          0.0000
    16 H16       -0.8801   -19.2925    10.8181 H          1 BB1          0.0000
    17 H17       -1.3842   -19.9257    12.4171 H          1 BB1          0.0000
    18 H18        1.0513   -20.5262    10.9374 H          1 BB1          0.0000
    19 H19        1.5495   -17.8340    11.3032 H          1 BB1          0.0000
    20 H20        3.0957   -17.2685    13.2049 H          1 BB1          0.0000
    21 H21        1.8042   -16.0838    12.9155 H          1 BB1          0.0000
    22 H22        1.8195   -18.2504    15.0642 H          1 BB1          0.0000
    23 H23        2.0050   -16.4958    15.3229 H          1 BB1          0.0000
    24 H24       -0.3368   -17.1582    15.7467 H          1 BB1          0.0000
    25 H25       -0.2527   -16.1423    14.2840 H          1 BB1          0.0000
    26 H26       -0.6910   -17.2306    12.0279 H          1 BB1          0.0000
    27 H27       -1.2335   -22.1062    11.6089 H          1 BB1          0.0000
    28 H28       -1.6220   -24.1491    12.9275 H          1 BB1          0.0000
    29 H29       -0.1299   -24.7043    14.8059 H          1 BB1          0.0000
    30 H30        1.7512   -23.2172    15.3652 H          1 BB1          0.0000
    31 H31        2.1426   -21.1768    14.0435 H          1 BB1          0.0000
    32 C1        -0.4775   -18.1700    10.2903 C.3        2 BB2          0.0000
    33 C2        -0.3453   -16.7630    10.8767 C.3        2 BB2          0.0000
    34 N3         0.3038   -15.8828     9.8960 N.4        2 BB2          1.0000
    35 C4         0.2669   -14.4986    10.3832 C.3        2 BB2          0.0000
    36 C5         1.0128   -13.5892     9.4043 C.3        2 BB2          0.0000
    37 C6         0.3403   -13.6667     8.0306 C.3        2 BB2          0.0000
    38 O7        -0.9980   -13.1748     8.1253 O.3        2 BB2          0.0000
    39 C8         0.3180   -15.1256     7.5655 C.3        2 BB2          0.0000
    40 C9        -0.4021   -15.9780     8.6126 C.3        2 BB2          0.0000
    41 C10        1.0969   -12.8523     7.0656 C.1        2 BB2          0.0000
    42 C11        1.7003   -12.2027     6.2959 C.1        2 BB2          0.0000
    43 C12        0.4877   -16.8178    12.1313 C.2        2 BB2          0.0000
    44 O13        0.9510   -17.8803    12.5095 O.2        2 BB2          0.0000
    45 H15        0.5126   -18.5589    10.0524 H          2 BB2          0.0000
    46 H16       -0.9591   -18.8231    11.0180 H          2 BB2          0.0000
    47 H17       -1.0800   -18.1303     9.3829 H          2 BB2          0.0000
    48 H18       -1.3354   -16.3740    11.1147 H          2 BB2          0.0000
    49 H19       -0.7692   -14.1705    10.4658 H          2 BB2          0.0000
    50 H20        0.7430   -14.4457    11.3623 H          2 BB2          0.0000
    51 H21        0.9827   -12.5618     9.7668 H          2 BB2          0.0000
    52 H22        2.0492   -13.9164     9.3211 H          2 BB2          0.0000
    53 H23       -0.2086   -15.1963     6.6138 H          2 BB2          0.0000
    54 H24        1.3401   -15.4846     7.4442 H          2 BB2          0.0000
    55 H25       -0.4200   -17.0173     8.2846 H          2 BB2          0.0000
    56 H26       -1.4240   -15.6184     8.7329 H          2 BB2          0.0000
    57 H27        2.2399   -11.6219     5.6077 H          2 BB2          0.0000
    58 H28       -1.1530   -12.6008     8.8879 H          2 BB2          0.0000
    59 H29        1.2633   -16.1691     9.7718 H          2 BB2          0.0000
@<TRIPOS>BOND
     1      1      2 1
     2      1      9 1
     3      1     16 1
     4      1     17 1
     5      2      3 1
     6      2     10 1
     7      2     18 1
     8      3      4 1
     9      4      5 1
    10      4      9 1
    11      4     19 1
    12      5      6 1
    13      5     20 1
    14      5     21 1
    15      6      7 1
    16      6     22 1
    17      6     23 1
    18      7      8 1
    19      7     24 1
    20      7     25 1
    21      8      9 1
    22      9     26 1
    23     10     11 ar
    24     10     15 ar
    25     11     12 ar
    26     11     27 1
    27     12     13 ar
    28     12     28 1
    29     13     14 ar
    30     13     29 1
    31     14     15 ar
    32     14     30 1
    33     15     31 1
    34     32     33 1
    35     32     45 1
    36     32     46 1
    37     32     47 1
    38     33     34 1
    39     33     43 1
    40     33     48 1
    41     34     35 1
    42     34     40 1
    43     34     59 1
    44     35     36 1
    45     35     49 1
    46     35     50 1
    47     36     37 1
    48     36     51 1
    49     36     52 1
    50     37     38 1
    51     37     39 1
    52     37     41 1
    53     38     58 1
    54     39     40 1
    55     39     53 1
    56     39     54 1
    57     40     55 1
    58     40     56 1
    59     41     42 3
    60     42     57 1
    61     43     44 2
    62      8     43 am
@<TRIPOS>SUBSTRUCTURE
     1 BB1           8
     2 BB2          43
@<TRIPOS>MOLECULE
EN300-266730_i001_EN300-315786_i001_10_20_1
  59   63   2   0   0
SMALL
USER_CHARGES
@<TRIPOS>ATOM
     1 C1        -0.5858   -19.4386    11.8574 C.3        1 BB1          0.0000
     2 C2         0.7143   -20.2641    11.9403 C.3        1 BB1          0.0000
     3 O3         1.7035   -19.4419    12.5905 O.3        1 BB1          0.0000
     4 C4         1.3212   -18.0827    12.3396 C.3        1 BB1          0.0000
     5 C5         2.0202   -17.0981    13.2509 C.3        1 BB1          0.0000
     6 C6         1.5466   -17.2612    14.6968 C.3        1 BB1          0.0000
     7 C7         0.0218   -17.1034    14.7188 C.3        1 BB1          0.0000
     8 N8        -0.5728   -18.1861    13.9328 N.am       1 BB1          0.0000
     9 C9        -0.2093   -18.0786    12.5147 C.3        1 BB1          0.0000
    10 C10        0.4766   -21.5145    12.7472 C.ar       1 BB1          0.0000
    11 C11       -0.5789   -22.3498    12.4327 C.ar       1 BB1          0.0000
    12 C12       -0.7970   -23.4968    13.1728 C.ar       1 BB1          0.0000
    13 C13        0.0408   -23.8087    14.2273 C.ar       1 BB1          0.0000
    14 C14        1.0969   -22.9738    14.5411 C.ar       1 BB1          0.0000
    15 C15        1.3175   -21.8290    13.7983 C.ar       1 BB1          0.0000
    16 H16       -0.8801   -19.2925    10.8181 H          1 BB1          0.0000
    17 H17       -1.3842   -19.9257    12.4171 H          1 BB1          0.0000
    18 H18        1.0513   -20.5262    10.9374 H          1 BB1          0.0000
    19 H19        1.5495   -17.8340    11.3032 H          1 BB1          0.0000
    20 H20        3.0957   -17.2685    13.2049 H          1 BB1          0.0000
    21 H21        1.8042   -16.0838    12.9155 H          1 BB1          0.0000
    22 H22        1.8195   -18.2504    15.0642 H          1 BB1          0.0000
    23 H23        2.0050   -16.4958    15.3229 H          1 BB1          0.0000
    24 H24       -0.3368   -17.1582    15.7467 H          1 BB1          0.0000
    25 H25       -0.2527   -16.1423    14.2840 H          1 BB1          0.0000
    26 H26       -0.6910   -17.2306    12.0279 H          1 BB1          0.0000
    27 H27       -1.2335   -22.1062    11.6089 H          1 BB1          0.0000
    28 H28       -1.6220   -24.1491    12.9275 H          1 BB1          0.0000
    29 H29       -0.1299   -24.7043    14.8059 H          1 BB1          0.0000
    30 H30        1.7512   -23.2172    15.3652 H          1 BB1          0.0000
    31 H31        2.1426   -21.1768    14.0435 H          1 BB1          0.0000
    32 O1        -0.8711   -18.2096    12.3323 O.2        2 BB2          0.0000
    33 C2        -0.5377   -17.8247    11.2208 C.2        2 BB2          0.0000
    34 C4        -0.4243   -16.3776    10.9432 C.ar       2 BB2          0.0000
    35 C5        -0.2026   -15.9318     9.6383 C.ar       2 BB2          0.0000
    36 C6        -0.0970   -14.5821     9.3802 C.ar       2 BB2          0.0000
    37 C7        -0.2115   -13.6610    10.4221 C.ar       2 BB2          0.0000
    38 C8        -0.4330   -14.1058    11.7261 C.ar       2 BB2          0.0000
    39 C9        -0.5446   -15.4549    11.9848 C.ar       2 BB2          0.0000
    40 C10       -0.0973   -12.2109    10.1440 C.2        2 BB2          0.0000
    41 O11        0.9278   -11.7619     9.6706 O.2        2 BB2          0.0000
    42 N12       -1.1304   -11.3892    10.4159 N.am       2 BB2          0.0000
    43 C13       -1.0720    -9.9596    10.0720 C.3        2 BB2          0.0000
    44 C14       -2.3448    -9.5960     9.2988 C.3        2 BB2          0.0000
    45 O15       -3.4870   -10.0234    10.0447 O.3        2 BB2          0.0000
    46 C16       -3.5607   -11.4373    10.2434 C.3        2 BB2          0.0000
    47 C17       -2.3525   -11.8963    11.0600 C.3        2 BB2          0.0000
    48 H18       -0.1136   -16.6445     8.8319 H          2 BB2          0.0000
    49 H19        0.0749   -14.2372     8.3712 H          2 BB2          0.0000
    50 H20       -0.5212   -13.3924    12.5321 H          2 BB2          0.0000
    51 H21       -0.7164   -15.7990    12.9940 H          2 BB2          0.0000
    52 H22       -1.0137    -9.3648    10.9836 H          2 BB2          0.0000
    53 H23       -0.1974    -9.7669     9.4509 H          2 BB2          0.0000
    54 H24       -2.3873    -8.5164     9.1546 H          2 BB2          0.0000
    55 H25       -2.3362   -10.0935     8.3290 H          2 BB2          0.0000
    56 H26       -4.4778   -11.6824    10.7789 H          2 BB2          0.0000
    57 H27       -3.5565   -11.9414     9.2771 H          2 BB2          0.0000
    58 H28       -2.3256   -12.9854    11.0954 H          2 BB2          0.0000
    59 H29       -2.4202   -11.4971    12.0720 H          2 BB2          0.0000
@<TRIPOS>BOND
     1      1      2 1
     2      1      9 1
     3      1     16 1
     4      1     17 1
     5      2      3 1
     6      2     10 1
     7      2     18 1
     8      3      4 1
     9      4      5 1
    10      4      9 1
    11      4     19 1
    12      5      6 1
    13      5     20 1
    14      5     21 1
    15      6      7 1
    16      6     22 1
    17      6     23 1
    18      7      8 1
    19      7     24 1
    20      7     25 1
    21      8      9 1
    22      9     26 1
    23     10     11 ar
    24     10     15 ar
    25     11     12 ar
    26     11     27 1
    27     12     13 ar
    28     12     28 1
    29     13     14 ar
    30     13     29 1
    31     14     15 ar
    32     14     30 1
    33     15     31 1
    34     32     33 2
    35     33     34 1
    36     34     35 ar
    37     34     39 ar
    38     35     36 ar
    39     35     48 1
    40     36     37 ar
    41     36     49 1
    42     37     38 ar
    43     37     40 1
    44     38     39 ar
    45     38     50 1
    46     39     51 1
    47     40     41 2
    48     40     42 am
    49     42     43 1
    50     42     47 1
    51     43     44 1
    52     43     52 1
    53     43     53 1
    54     44     45 1
    55     44     54 1
    56     44     55 1
    57     45     46 1
    58     46     47 1
    59     46     56 1
    60     46     57 1
    61     47     58 1
    62     47     59 1
    63      8     33 am
@<TRIPOS>SUBSTRUCTURE
     1 BB1           8
     2 BB2          33
@<TRIPOS>MOLECULE
EN300-266730_i001_EN300-43851_i001_10_5_1
  53   57   2   0   0
SMALL
USER_CHARGES
@<TRIPOS>ATOM
     1 C1        -0.5858   -19.4386    11.8574 C.3        1 BB1          0.0000
     2 C2         0.7143   -20.2641    11.9403 C.3        1 BB1          0.0000
     3 O3         1.7035   -19.4419    12.5905 O.3        1 BB1          0.0000
     4 C4         1.3212   -18.0827    12.3396 C.3        1 BB1          0.0000
     5 C5         2.0202   -17.0981    13.2509 C.3        1 BB1          0.0000
     6 C6         1.5466   -17.2612    14.6968 C.3        1 BB1          0.0000
     7 C7         0.0218   -17.1034    14.7188 C.3        1 BB1          0.0000
     8 N8        -0.5728   -18.1861    13.9328 N.am       1 BB1          0.0000
     9 C9        -0.2093   -18.0786    12.5147 C.3        1 BB1          0.0000
    10 C10        0.4766   -21.5145    12.7472 C.ar       1 BB1          0.0000
    11 C11       -0.5789   -22.3498    12.4327 C.ar       1 BB1          0.0000
    12 C12       -0.7970   -23.4968    13.1728 C.ar       1 BB1          0.0000
    13 C13        0.0408   -23.8087    14.2273 C.ar       1 BB1          0.0000
    14 C14        1.0969   -22.9738    14.5411 C.ar       1 BB1          0.0000
    15 C15        1.3175   -21.8290    13.7983 C.ar       1 BB1          0.0000
    16 H16       -0.8801   -19.2925    10.8181 H          1 BB1          0.0000
    17 H17       -1.3842   -19.9257    12.4171 H          1 BB1          0.0000
    18 H18        1.0513   -20.5262    10.9374 H          1 BB1          0.0000
    19 H19        1.5495   -17.8340    11.3032 H          1 BB1          0.0000
    20 H20        3.0957   -17.2685    13.2049 H          1 BB1          0.0000
    21 H21        1.8042   -16.0838    12.9155 H          1 BB1          0.0000
    22 H22        1.8195   -18.2504    15.0642 H          1 BB1          0.0000
    23 H23        2.0050   -16.4958    15.3229 H          1 BB1          0.0000
    24 H24       -0.3368   -17.1582    15.7467 H          1 BB1          0.0000
    25 H25       -0.2527   -16.1423    14.2840 H          1 BB1          0.0000
    26 H26       -0.6910   -17.2306    12.0279 H          1 BB1          0.0000
    27 H27       -1.2335   -22.1062    11.6089 H          1 BB1          0.0000
    28 H28       -1.6220   -24.1491    12.9275 H          1 BB1          0.0000
    29 H29       -0.1299   -24.7043    14.8059 H          1 BB1          0.0000
    30 H30        1.7512   -23.2172    15.3652 H          1 BB1          0.0000
    31 H31        2.1426   -21.1768    14.0435 H          1 BB1          0.0000
    32 C1        -0.4310   -15.6953    13.9759 C.3        2 BB2          0.0000
    33 C2        -0.1974   -15.7006    12.4871 C.2        2 BB2          0.0000
    34 N3         0.0545   -14.6594    11.7295 N.2        2 BB2          0.0000
    35 N4         0.2015   -15.1272    10.4170 N.pl3      2 BB2          0.0000
    36 N5         0.0399   -16.4041    10.4091 N.2        2 BB2          0.0000
    37 C6        -0.2010   -16.8237    11.6395 C.2        2 BB2          0.0000
    38 C7        -0.4407   -18.2195    12.0491 C.2        2 BB2          0.0000
    39 O9        -0.7110   -18.4771    13.2138 O.2        2 BB2          0.0000
    40 C10        0.4790   -14.3340     9.2955 C.ar       2 BB2          0.0000
    41 C11        0.7135   -12.9737     9.4469 C.ar       2 BB2          0.0000
    42 C12        0.9867   -12.1938     8.3407 C.ar       2 BB2          0.0000
    43 C13        1.0269   -12.7673     7.0807 C.ar       2 BB2          0.0000
    44 F14        1.2947   -12.0027     5.9996 F          2 BB2          0.0000
    45 C15        0.7931   -14.1239     6.9275 C.ar       2 BB2          0.0000
    46 C16        0.5253   -14.9083     8.0321 C.ar       2 BB2          0.0000
    47 H17       -1.4945   -15.5661    14.1763 H          2 BB2          0.0000
    48 H18       -0.0937   -16.6411    14.3999 H          2 BB2          0.0000
    49 H19        0.1263   -14.8750    14.4282 H          2 BB2          0.0000
    50 H20        0.6819   -12.5259    10.4293 H          2 BB2          0.0000
    51 H21        1.1688   -11.1358     8.4580 H          2 BB2          0.0000
    52 H22        0.8249   -14.5694     5.9442 H          2 BB2          0.0000
    53 H23        0.3435   -15.9661     7.9122 H          2 BB2          0.0000
@<TRIPOS>BOND
     1      1      2 1
     2      1      9 1
     3      1     16 1
     4      1     17 1
     5      2      3 1
     6      2     10 1
     7      2     18 1
     8      3      4 1
     9      4      5 1
    10      4      9 1
    11      4     19 1
    12      5      6 1
    13      5     20 1
    14      5     21 1
    15      6      7 1
    16      6     22 1
    17      6     23 1
    18      7      8 1
    19      7     24 1
    20      7     25 1
    21      8      9 1
    22      9     26 1
    23     10     11 ar
    24     10     15 ar
    25     11     12 ar
    26     11     27 1
    27     12     13 ar
    28     12     28 1
    29     13     14 ar
    30     13     29 1
    31     14     15 ar
    32     14     30 1
    33     15     31 1
    34     32     33 1
    35     32     47 1
    36     32     48 1
    37     32     49 1
    38     33     34 2
    39     33     37 1
    40     34     35 1
    41     35     36 1
    42     35     40 1
    43     36     37 2
    44     37     38 1
    45     38     39 2
    46     40     41 ar
    47     40     46 ar
    48     41     42 ar
    49     41     50 1
    50     42     43 ar
    51     42     51 1
    52     43     44 1
    53     43     45 ar
    54     45     46 ar
    55     45     52 1
    56     46     53 1
    57      8     38 am
@<TRIPOS>SUBSTRUCTURE
     1 BB1           8
     2 BB2          38
@<TRIPOS>MOLECULE
EN300-266730_i001_EN300-206926_i001_10_13_1
  46   48   2   0   0
SMALL
USER_CHARGES
@<TRIPOS>ATOM
     1 C1        -0.5858   -19.4386    11.8574 C.3        1 BB1          0.0000
     2 C2         0.7143   -20.2641    11.9403 C.3        1 BB1          0.0000
     3 O3         1.7035   -19.4419    12.5905 O.3        1 BB1          0.0000
     4 C4         1.3212   -18.0827    12.3396 C.3        1 BB1          0.0000
     5 C5         2.0202   -17.0981    13.2509 C.3        1 BB1          0.0000
     6 C6         1.5466   -17.2612    14.6968 C.3        1 BB1          0.0000
     7 C7         0.0218   -17.1034    14.7188 C.3        1 BB1          0.0000
     8 N8        -0.5728   -18.1861    13.9328 N.am       1 BB1          0.0000
     9 C9        -0.2093   -18.0786    12.5147 C.3        1 BB1          0.0000
    10 C10        0.4766   -21.5145    12.7472 C.ar       1 BB1          0.0000
    11 C11       -0.5789   -22.3498    12.4327 C.ar       1 BB1          0.0000
    12 C12       -0.7970   -23.4968    13.1728 C.ar       1 BB1          0.0000
    13 C13        0.0408   -23.8087    14.2273 C.ar       1 BB1          0.0000
    14 C14        1.0969   -22.9738    14.5411 C.ar       1 BB1          0.0000
    15 C15        1.3175   -21.8290    13.7983 C.ar       1 BB1          0.0000
    16 H16       -0.8801   -19.2925    10.8181 H          1 BB1          0.0000
    17 H17       -1.3842   -19.9257    12.4171 H          1 BB1          0.0000
    18 H18        1.0513   -20.5262    10.9374 H          1 BB1          0.0000
    19 H19        1.5495   -17.8340    11.3032 H          1 BB1          0.0000
    20 H20        3.0957   -17.2685    13.2049 H          1 BB1          0.0000
    21 H21        1.8042   -16.0838    12.9155 H          1 BB1          0.0000
    22 H22        1.8195   -18.2504    15.0642 H          1 BB1          0.0000
    23 H23        2.0050   -16.4958    15.3229 H          1 BB1          0.0000
    24 H24       -0.3368   -17.1582    15.7467 H          1 BB1          0.0000
    25 H25       -0.2527   -16.1423    14.2840 H          1 BB1          0.0000
    26 H26       -0.6910   -17.2306    12.0279 H          1 BB1          0.0000
    27 H27       -1.2335   -22.1062    11.6089 H          1 BB1          0.0000
    28 H28       -1.6220   -24.1491    12.9275 H          1 BB1          0.0000
    29 H29       -0.1299   -24.7043    14.8059 H          1 BB1          0.0000
    30 H30        1.7512   -23.2172    15.3652 H          1 BB1          0.0000
    31 H31        2.1426   -21.1768    14.0435 H          1 BB1          0.0000
    32 C1        -0.9824   -11.6960    10.6006 C.3        2 BB2          0.0000
    33 C2         0.1278   -12.0724     9.6537 C.2        2 BB2          0.0000
    34 O3         0.5421   -11.2618     8.8517 O.2        2 BB2          0.0000
    35 S4         0.8045   -13.6441     9.7096 S.3        2 BB2          0.0000
    36 C5        -0.1426   -14.3454    11.0834 C.3        2 BB2          0.0000
    37 C6         0.7480   -15.2992    11.8823 C.3        2 BB2          0.0000
    38 C7        -0.0391   -15.8792    13.0292 C.2        2 BB2          0.0000
    39 O8        -0.9987   -16.5980    12.8082 O.2        2 BB2          0.0000
    40 H10       -1.9443   -11.9285    10.1436 H          2 BB2          0.0000
    41 H11       -0.8754   -12.2586    11.5281 H          2 BB2          0.0000
    42 H12       -0.9306   -10.6285    10.8151 H          2 BB2          0.0000
    43 H13       -0.4892   -13.5419    11.7333 H          2 BB2          0.0000
    44 H14       -1.0005   -14.8917    10.6917 H          2 BB2          0.0000
    45 H15        1.0916   -16.1047    11.2334 H          2 BB2          0.0000
    46 H16        1.6079   -14.7537    12.2708 H          2 BB2          0.0000
@<TRIPOS>BOND
     1      1      2 1
     2      1      9 1
     3      1     16 1
     4      1     17 1
     5      2      3 1
     6      2     10 1
     7      2     18 1
     8      3      4 1
     9      4      5 1
    10      4      9 1
    11      4     19 1
    12      5      6 1
    13      5     20 1
    14      5     21 1
    15      6      7 1
    16      6     22 1
    17      6     23 1
    18      7      8 1
    19      7     24 1
    20      7     25 1
    21      8      9 1
    22      9     26 1
    23     10     11 ar
    24     10     15 ar
    25     11     12 ar
    26     11     27 1
    27     12     13 ar
    28     12     28 1
    29     13     14 ar
    30     13     29 1
    31     14     15 ar
    32     14     30 1
    33     15     31 1
    34     32     33 1
    35     32     40 1
    36     32     41 1
    37     32     42 1
    38     33     34 2
    39     33     35 1
    40     35     36 1
    41     36     37 1
    42     36     43 1
    43     36     44 1
    44     37     38 1
    45     37     45 1
    46     37     46 1
    47     38     39 2
    48      8     38 am
@<TRIPOS>SUBSTRUCTURE
     1 BB1           8
     2 BB2          38
@<TRIPOS>MOLECULE
EN300-266730_i001_EN300-1165841_i001_13_20_1
  59   62   2   0   0
SMALL
USER_CHARGES
@<TRIPOS>ATOM
     1 C1        -0.6779   -13.5056    10.5811 C.3        1 BB1          0.0000
     2 C2        -0.4493   -12.0002    10.3368 C.3        1 BB1          0.0000
     3 O3         0.3531   -11.8760     9.1459 O.3        1 BB1          0.0000
     4 C4         1.0989   -13.0961     9.0373 C.3        1 BB1          0.0000
     5 C5         1.7007   -13.2964     7.6640 C.3        1 BB1          0.0000
     6 C6         0.6091   -13.5401     6.6197 C.3        1 BB1          0.0000
     7 C7        -0.2271   -14.7410     7.0767 C.3        1 BB1          0.0000
     8 N8        -0.8882   -14.3991     8.3375 N.am       1 BB1          0.0000
     9 C9         0.0881   -14.1957     9.4146 C.3        1 BB1          0.0000
    10 C10       -1.7724   -11.3067    10.1378 C.ar       1 BB1          0.0000
    11 C11       -2.9483   -12.0308    10.1989 C.ar       1 BB1          0.0000
    12 C12       -4.1620   -11.3948    10.0163 C.ar       1 BB1          0.0000
    13 C13       -4.1998   -10.0345     9.7730 C.ar       1 BB1          0.0000
    14 C14       -3.0238    -9.3103     9.7127 C.ar       1 BB1          0.0000
    15 C15       -1.8104    -9.9456     9.8996 C.ar       1 BB1          0.0000
    16 H16       -0.2601   -13.8046    11.5424 H          1 BB1          0.0000
    17 H17       -1.7405   -13.7435    10.5343 H          1 BB1          0.0000
    18 H18        0.0767   -11.5627    11.1853 H          1 BB1          0.0000
    19 H19        1.8968   -13.0931     9.7799 H          1 BB1          0.0000
    20 H20        2.2682   -12.4077     7.3884 H          1 BB1          0.0000
    21 H21        2.3712   -14.1554     7.6884 H          1 BB1          0.0000
    22 H22       -0.0265   -12.6584     6.5390 H          1 BB1          0.0000
    23 H23        1.0654   -13.7555     5.6536 H          1 BB1          0.0000
    24 H24       -0.9779   -14.9726     6.3211 H          1 BB1          0.0000
    25 H25        0.4225   -15.6033     7.2265 H          1 BB1          0.0000
    26 H26        0.5660   -15.1264     9.7201 H          1 BB1          0.0000
    27 H27       -2.9188   -13.0936    10.3890 H          1 BB1          0.0000
    28 H28       -5.0807   -11.9606    10.0634 H          1 BB1          0.0000
    29 H29       -5.1478    -9.5377     9.6296 H          1 BB1          0.0000
    30 H30       -3.0533    -8.2476     9.5223 H          1 BB1          0.0000
    31 H31       -0.8917    -9.3797     9.8526 H          1 BB1          0.0000
    32 C1         2.5764   -14.3098    10.1170 C.3        2 BB2          0.0000
    33 C2         1.1323   -14.6517    10.4890 C.3        2 BB2          0.0000
    34 N3         1.1179   -15.8348    11.3597 N.4        2 BB2          1.0000
    35 C4        -0.2523   -16.0819    11.8244 C.3        2 BB2          0.0000
    36 C5        -0.2871   -17.3595    12.6659 C.3        2 BB2          0.0000
    37 C6         0.6411   -17.1947    13.8728 C.3        2 BB2          0.0000
    38 O7         0.1639   -16.1325    14.7010 O.3        2 BB2          0.0000
    39 C8         2.0521   -16.8639    13.3779 C.3        2 BB2          0.0000
    40 C9         2.0000   -15.6046    12.5101 C.3        2 BB2          0.0000
    41 C10        0.6699   -18.4469    14.6460 C.1        2 BB2          0.0000
    42 C11        0.6930   -19.4456    15.2629 C.1        2 BB2          0.0000
    43 C12        0.3457   -14.9402     9.2365 C.2        2 BB2          0.0000
    44 O13        0.1574   -14.0566     8.4177 O.2        2 BB2          0.0000
    45 H15        3.0257   -15.1528     9.5919 H          2 BB2          0.0000
    46 H16        2.5871   -13.4320     9.4709 H          2 BB2          0.0000
    47 H17        3.1454   -14.1011    11.0230 H          2 BB2          0.0000
    48 H18        0.6830   -13.8087    11.0141 H          2 BB2          0.0000
    49 H19       -0.5877   -15.2396    12.4295 H          2 BB2          0.0000
    50 H20       -0.9122   -16.1958    10.9644 H          2 BB2          0.0000
    51 H21       -1.3049   -17.5402    13.0114 H          2 BB2          0.0000
    52 H22        0.0479   -18.2025    12.0615 H          2 BB2          0.0000
    53 H23        2.7061   -16.6903    14.2323 H          2 BB2          0.0000
    54 H24        2.4355   -17.6966    12.7883 H          2 BB2          0.0000
    55 H25        3.0030   -15.3661    12.1562 H          2 BB2          0.0000
    56 H26        1.6167   -14.7725    13.1006 H          2 BB2          0.0000
    57 H27        0.7136   -20.3388    15.8144 H          2 BB2          0.0000
    58 H28       -0.7927   -16.1435    14.8426 H          2 BB2          0.0000
    59 H29        1.4460   -16.6362    10.8419 H          2 BB2          0.0000
@<TRIPOS>BOND
     1      1      2 1
     2      1      9 1
     3      1     16 1
     4      1     17 1
     5      2      3 1
     6      2     10 1
     7      2     18 1
     8      3      4 1
     9      4      5 1
    10      4      9 1
    11      4     19 1
    12      5      6 1
    13      5     20 1
    14      5     21 1
    15      6      7 1
    16      6     22 1
    17      6     23 1
    18      7      8 1
    19      7     24 1
    20      7     25 1
    21      8      9 1
    22      9     26 1
    23     10     11 ar
    24     10     15 ar
    25     11     12 ar
    26     11     27 1
    27     12     13 ar
    28     12     28 1
    29     13     14 ar
    30     13     29 1
    31     14     15 ar
    32     14     30 1
    33     15     31 1
    34     32     33 1
    35     32     45 1
    36     32     46 1
    37     32     47 1
    38     33     34 1
    39     33     43 1
    40     33     48 1
    41     34     35 1
    42     34     40 1
    43     34     59 1
    44     35     36 1
    45     35     49 1
    46     35     50 1
    47     36     37 1
    48     36     51 1
    49     36     52 1
    50     37     38 1
    51     37     39 1
    52     37     41 1
    53     38     58 1
    54     39     40 1
    55     39     53 1
    56     39     54 1
    57     40     55 1
    58     40     56 1
    59     41     42 3
    60     42     57 1
    61     43     44 2
    62      8     43 am
@<TRIPOS>SUBSTRUCTURE
     1 BB1           8
     2 BB2          43
@<TRIPOS>MOLECULE
EN300-266730_i001_EN300-223795_i001_18_11_1
  44   47   2   0   0
SMALL
USER_CHARGES
@<TRIPOS>ATOM
     1 C1        -0.6927   -15.7259    12.8522 C.3        1 BB1          0.0000
     2 C2         0.4167   -15.8803    11.7922 C.3        1 BB1          0.0000
     3 O3         1.5372   -16.5203    12.4343 O.3        1 BB1          0.0000
     4 C4         1.4358   -16.1995    13.8284 C.3        1 BB1          0.0000
     5 C5         2.2991   -17.0853    14.6993 C.3        1 BB1          0.0000
     6 C6         1.7768   -18.5235    14.7027 C.3        1 BB1          0.0000
     7 C7         0.3132   -18.4972    15.1583 C.3        1 BB1          0.0000
     8 N8        -0.4695   -17.7437    14.1769 N.am       1 BB1          0.0000
     9 C9        -0.0666   -16.3327    14.1419 C.3        1 BB1          0.0000
    10 C10       -0.0779   -16.7346    10.6536 C.ar       1 BB1          0.0000
    11 C11       -0.1048   -16.2256     9.3687 C.ar       1 BB1          0.0000
    12 C12       -0.5586   -17.0092     8.3242 C.ar       1 BB1          0.0000
    13 C13       -0.9850   -18.3021     8.5646 C.ar       1 BB1          0.0000
    14 C14       -0.9572   -18.8113     9.8494 C.ar       1 BB1          0.0000
    15 C15       -0.4994   -18.0291    10.8932 C.ar       1 BB1          0.0000
    16 H16       -0.9337   -14.6736    13.0029 H          1 BB1          0.0000
    17 H17       -1.5816   -16.2846    12.5594 H          1 BB1          0.0000
    18 H18        0.7133   -14.8994    11.4206 H          1 BB1          0.0000
    19 H19        1.7272   -15.1597    13.9768 H          1 BB1          0.0000
    20 H20        3.3204   -17.0760    14.3187 H          1 BB1          0.0000
    21 H21        2.2941   -16.6999    15.7188 H          1 BB1          0.0000
    22 H22        1.8421   -18.9414    13.6982 H          1 BB1          0.0000
    23 H23        2.3662   -19.1276    15.3925 H          1 BB1          0.0000
    24 H24       -0.0675   -19.5164    15.2250 H          1 BB1          0.0000
    25 H25        0.2419   -18.0132    16.1323 H          1 BB1          0.0000
    26 H26       -0.3623   -15.7962    15.0435 H          1 BB1          0.0000
    27 H27        0.2283   -15.2156     9.1808 H          1 BB1          0.0000
    28 H28       -0.5802   -16.6114     7.3203 H          1 BB1          0.0000
    29 H29       -1.3401   -18.9140     7.7487 H          1 BB1          0.0000
    30 H30       -1.2907   -19.8212    10.0373 H          1 BB1          0.0000
    31 H31       -0.4777   -18.4270    11.8970 H          1 BB1          0.0000
    32 O1        -0.9197   -19.0954    14.7126 O.2        2 BB2          0.0000
    33 C2        -1.0077   -20.3139    14.6369 C.2        2 BB2          0.0000
    34 C4        -0.8831   -21.1350    15.8465 C.2        2 BB2          0.0000
    35 C5        -1.0226   -20.6092    17.1857 C.2        2 BB2          0.0000
    36 C6        -0.8707   -21.5327    18.1260 C.2        2 BB2          0.0000
    37 S7        -0.5474   -23.1006    17.4071 S.3        2 BB2          0.0000
    38 C8        -0.6297   -22.4741    15.8241 C.2        2 BB2          0.0000
    39 C9        -0.4397   -23.2885    14.5703 C.3        2 BB2          0.0000
    40 F10       -0.0984   -24.6009    14.9140 F          2 BB2          0.0000
    41 F11       -1.6286   -23.2936    13.8330 F          2 BB2          0.0000
    42 F12        0.5843   -22.7267    13.8002 F          2 BB2          0.0000
    43 H13       -1.2289   -19.5708    17.3990 H          2 BB2          0.0000
    44 H14       -0.9368   -21.3454    19.1875 H          2 BB2          0.0000
@<TRIPOS>BOND
     1      1      2 1
     2      1      9 1
     3      1     16 1
     4      1     17 1
     5      2      3 1
     6      2     10 1
     7      2     18 1
     8      3      4 1
     9      4      5 1
    10      4      9 1
    11      4     19 1
    12      5      6 1
    13      5     20 1
    14      5     21 1
    15      6      7 1
    16      6     22 1
    17      6     23 1
    18      7      8 1
    19      7     24 1
    20      7     25 1
    21      8      9 1
    22      9     26 1
    23     10     11 ar
    24     10     15 ar
    25     11     12 ar
    26     11     27 1
    27     12     13 ar
    28     12     28 1
    29     13     14 ar
    30     13     29 1
    31     14     15 ar
    32     14     30 1
    33     15     31 1
    34     32     33 2
    35     33     34 1
    36     34     35 1
    37     34     38 2
    38     35     36 2
    39     35     43 1
    40     36     37 1
    41     36     44 1
    42     37     38 1
    43     38     39 1
    44     39     40 1
    45     39     41 1
    46     39     42 1
    47      8     33 am
@<TRIPOS>SUBSTRUCTURE
     1 BB1           8
     2 BB2          33
@<TRIPOS>MOLECULE
EN300-266730_i001_EN300-34862_i002_20_10_1
  43   46   2   0   0
SMALL
USER_CHARGES
@<TRIPOS>ATOM
     1 C1        -0.9099   -16.5902    12.1684 C.3        1 BB1          0.0000
     2 C2        -0.3583   -15.1646    12.3726 C.3        1 BB1          0.0000
     3 O3         0.8804   -15.2842    13.0998 O.3        1 BB1          0.0000
     4 C4         0.7902   -16.5063    13.8448 C.3        1 BB1          0.0000
     5 C5         2.1307   -16.9789    14.3626 C.3        1 BB1          0.0000
     6 C6         3.0371   -17.4179    13.2106 C.3        1 BB1          0.0000
     7 C7         2.3007   -18.4990    12.4110 C.3        1 BB1          0.0000
     8 N8         1.0947   -17.9096    11.8263 N.am       1 BB1          0.0000
     9 C9         0.1412   -17.5028    12.8655 C.3        1 BB1          0.0000
    10 C10       -0.1070   -14.5161    11.0357 C.ar       1 BB1          0.0000
    11 C11        0.6889   -15.1488    10.0993 C.ar       1 BB1          0.0000
    12 C12        0.9194   -14.5539     8.8730 C.ar       1 BB1          0.0000
    13 C13        0.3537   -13.3264     8.5830 C.ar       1 BB1          0.0000
    14 C14       -0.4429   -12.6941     9.5192 C.ar       1 BB1          0.0000
    15 C15       -0.6770   -13.2910    10.7438 C.ar       1 BB1          0.0000
    16 H16       -1.8840   -16.6952    12.6460 H          1 BB1          0.0000
    17 H17       -0.9763   -16.8259    11.1063 H          1 BB1          0.0000
    18 H18       -1.0694   -14.5709    12.9470 H          1 BB1          0.0000
    19 H19        0.1133   -16.3611    14.6867 H          1 BB1          0.0000
    20 H20        2.6114   -16.1661    14.9068 H          1 BB1          0.0000
    21 H21        1.9774   -17.8202    15.0384 H          1 BB1          0.0000
    22 H22        3.2521   -16.5657    12.5660 H          1 BB1          0.0000
    23 H23        3.9674   -17.8236    13.6081 H          1 BB1          0.0000
    24 H24        2.9479   -18.8711    11.6167 H          1 BB1          0.0000
    25 H25        2.0229   -19.3186    13.0737 H          1 BB1          0.0000
    26 H26       -0.3130   -18.3575    13.3668 H          1 BB1          0.0000
    27 H27        1.1309   -16.1079    10.3258 H          1 BB1          0.0000
    28 H28        1.5418   -15.0480     8.1415 H          1 BB1          0.0000
    29 H29        0.5343   -12.8613     7.6252 H          1 BB1          0.0000
    30 H30       -0.8846   -11.7349     9.2928 H          1 BB1          0.0000
    31 H31       -1.2994   -12.7969    11.4752 H          1 BB1          0.0000
    32 C2        -0.3489   -19.7996    11.8809 C.2        2 BB2          0.0000
    33 O3         0.1780   -19.5632    10.8072 O.2        2 BB2          0.0000
    34 C4        -0.1440   -21.1381    12.5424 C.3        2 BB2          0.0000
    35 C5        -0.9105   -21.1624    13.8712 C.3        2 BB2          0.0000
    36 S6        -2.0718   -22.5518    13.6823 S.3        2 BB2          0.0000
    37 C7        -1.5627   -22.9965    12.0496 C.2        2 BB2          0.0000
    38 O8        -2.0284   -23.9088    11.3941 O.2        2 BB2          0.0000
    39 N9        -0.5927   -22.1803    11.6470 N.am       2 BB2          0.0000
    40 H10        0.9186   -21.2765    12.7422 H          2 BB2          0.0000
    41 H11       -0.2290   -21.3438    14.7024 H          2 BB2          0.0000
    42 H12       -1.4526   -20.2281    14.0170 H          2 BB2          0.0000
    43 H13       -0.1942   -22.2823    10.7686 H          2 BB2          0.0000
@<TRIPOS>BOND
     1      1      2 1
     2      1      9 1
     3      1     16 1
     4      1     17 1
     5      2      3 1
     6      2     10 1
     7      2     18 1
     8      3      4 1
     9      4      5 1
    10      4      9 1
    11      4     19 1
    12      5      6 1
    13      5     20 1
    14      5     21 1
    15      6      7 1
    16      6     22 1
    17      6     23 1
    18      7      8 1
    19      7     24 1
    20      7     25 1
    21      8      9 1
    22      9     26 1
    23     10     11 ar
    24     10     15 ar
    25     11     12 ar
    26     11     27 1
    27     12     13 ar
    28     12     28 1
    29     13     14 ar
    30     13     29 1
    31     14     15 ar
    32     14     30 1
    33     15     31 1
    34     32     33 2
    35     32     34 1
    36     34     35 1
    37     34     39 1
    38     34     40 1
    39     35     36 1
    40     35     41 1
    41     35     42 1
    42     36     37 1
    43     37     38 2
    44     37     39 am
    45     39     43 1
    46      8     32 am
@<TRIPOS>SUBSTRUCTURE
     1 BB1           8
     2 BB2          32
@<TRIPOS>MOLECULE
EN300-266730_i001_EN300-107901_i001_20_14_1
  57   61   2   0   0
SMALL
USER_CHARGES
@<TRIPOS>ATOM
     1 C1        -0.9099   -16.5902    12.1684 C.3        1 BB1          0.0000
     2 C2        -0.3583   -15.1646    12.3726 C.3        1 BB1          0.0000
     3 O3         0.8804   -15.2842    13.0998 O.3        1 BB1          0.0000
     4 C4         0.7902   -16.5063    13.8448 C.3        1 BB1          0.0000
     5 C5         2.1307   -16.9789    14.3626 C.3        1 BB1          0.0000
     6 C6         3.0371   -17.4179    13.2106 C.3        1 BB1          0.0000
     7 C7         2.3007   -18.4990    12.4110 C.3        1 BB1          0.0000
     8 N8         1.0947   -17.9096    11.8263 N.am       1 BB1          0.0000
     9 C9         0.1412   -17.5028    12.8655 C.3        1 BB1          0.0000
    10 C10       -0.1070   -14.5161    11.0357 C.ar       1 BB1          0.0000
    11 C11        0.6889   -15.1488    10.0993 C.ar       1 BB1          0.0000
    12 C12        0.9194   -14.5539     8.8730 C.ar       1 BB1          0.0000
    13 C13        0.3537   -13.3264     8.5830 C.ar       1 BB1          0.0000
    14 C14       -0.4429   -12.6941     9.5192 C.ar       1 BB1          0.0000
    15 C15       -0.6770   -13.2910    10.7438 C.ar       1 BB1          0.0000
    16 H16       -1.8840   -16.6952    12.6460 H          1 BB1          0.0000
    17 H17       -0.9763   -16.8259    11.1063 H          1 BB1          0.0000
    18 H18       -1.0694   -14.5709    12.9470 H          1 BB1          0.0000
    19 H19        0.1133   -16.3611    14.6867 H          1 BB1          0.0000
    20 H20        2.6114   -16.1661    14.9068 H          1 BB1          0.0000
    21 H21        1.9774   -17.8202    15.0384 H          1 BB1          0.0000
    22 H22        3.2521   -16.5657    12.5660 H          1 BB1          0.0000
    23 H23        3.9674   -17.8236    13.6081 H          1 BB1          0.0000
    24 H24        2.9479   -18.8711    11.6167 H          1 BB1          0.0000
    25 H25        2.0229   -19.3186    13.0737 H          1 BB1          0.0000
    26 H26       -0.3130   -18.3575    13.3668 H          1 BB1          0.0000
    27 H27        1.1309   -16.1079    10.3258 H          1 BB1          0.0000
    28 H28        1.5418   -15.0480     8.1415 H          1 BB1          0.0000
    29 H29        0.5343   -12.8613     7.6252 H          1 BB1          0.0000
    30 H30       -0.8846   -11.7349     9.2928 H          1 BB1          0.0000
    31 H31       -1.2994   -12.7969    11.4752 H          1 BB1          0.0000
    32 O1        -1.1044   -18.9616    12.9522 O.2        2 BB2          0.0000
    33 C2        -0.2112   -19.3730    13.6728 C.2        2 BB2          0.0000
    34 C4         0.9797   -20.0451    13.0754 C.3        2 BB2          0.0000
    35 C5         0.7789   -21.1029    12.0033 C.3        2 BB2          0.0000
    36 C6        -0.6011   -21.4491    11.5202 C.3        2 BB2          0.0000
    37 C7        -1.0687   -22.8022    12.1671 C.3        2 BB2          0.0000
    38 C8        -2.1119   -22.2542    13.2046 C.3        2 BB2          0.0000
    39 C9        -1.6431   -21.8882    14.5934 C.3        2 BB2          0.0000
    40 C10       -0.2703   -21.9777    15.1628 C.3        2 BB2          0.0000
    41 C11        0.7467   -22.5237    14.1819 C.3        2 BB2          0.0000
    42 C12        1.4004   -21.4658    13.3283 C.3        2 BB2          0.0000
    43 H13        1.8063   -19.3226    12.8705 H          2 BB2          0.0000
    44 H14        1.4998   -21.0308    11.1347 H          2 BB2          0.0000
    45 H15       -1.3314   -20.6776    11.7382 H          2 BB2          0.0000
    46 H16       -0.5859   -21.6033    10.4298 H          2 BB2          0.0000
    47 H17       -1.6564   -23.3338    11.3862 H          2 BB2          0.0000
    48 H18       -0.3114   -23.4212    12.4973 H          2 BB2          0.0000
    49 H19       -2.5982   -21.3894    12.7428 H          2 BB2          0.0000
    50 H20       -2.8869   -23.0314    13.2890 H          2 BB2          0.0000
    51 H21       -2.0404   -20.8695    14.8077 H          2 BB2          0.0000
    52 H22       -2.2938   -22.4998    15.2815 H          2 BB2          0.0000
    53 H23        0.0623   -21.0182    15.5960 H          2 BB2          0.0000
    54 H24       -0.2987   -22.6555    16.0572 H          2 BB2          0.0000
    55 H25        1.5953   -22.9279    14.8520 H          2 BB2          0.0000
    56 H26        0.4807   -23.4678    13.7322 H          2 BB2          0.0000
    57 H27        2.5427   -21.6098    13.3168 H          2 BB2          0.0000
@<TRIPOS>BOND
     1      1      2 1
     2      1      9 1
     3      1     16 1
     4      1     17 1
     5      2      3 1
     6      2     10 1
     7      2     18 1
     8      3      4 1
     9      4      5 1
    10      4      9 1
    11      4     19 1
    12      5      6 1
    13      5     20 1
    14      5     21 1
    15      6      7 1
    16      6     22 1
    17      6     23 1
    18      7      8 1
    19      7     24 1
    20      7     25 1
    21      8      9 1
    22      9     26 1
    23     10     11 ar
    24     10     15 ar
    25     11     12 ar
    26     11     27 1
    27     12     13 ar
    28     12     28 1
    29     13     14 ar
    30     13     29 1
    31     14     15 ar
    32     14     30 1
    33     15     31 1
    34     32     33 2
    35     33     34 1
    36     34     35 1
    37     34     42 1
    38     34     43 1
    39     35     36 1
    40     35     42 1
    41     35     44 1
    42     36     37 1
    43     36     45 1
    44     36     46 1
    45     37     38 1
    46     37     47 1
    47     37     48 1
    48     38     39 1
    49     38     49 1
    50     38     50 1
    51     39     40 1
    52     39     51 1
    53     39     52 1
    54     40     41 1
    55     40     53 1
    56     40     54 1
    57     41     42 1
    58     41     55 1
    59     41     56 1
    60     42     57 1
    61      8     33 am
@<TRIPOS>SUBSTRUCTURE
     1 BB1           8
     2 BB2          33
@<TRIPOS>MOLECULE
EN300-266730_i001_EN300-34862_i002_4_10_1
  43   46   2   0   0
SMALL
USER_CHARGES
@<TRIPOS>ATOM
     1 C1        -0.8260   -16.5190    11.6370 C.3        1 BB1          0.0000
     2 C2        -0.1130   -15.1661    11.4381 C.3        1 BB1          0.0000
     3 O3         1.0520   -15.1665    12.2866 O.3        1 BB1          0.0000
     4 C4         0.7613   -16.0669    13.3644 C.3        1 BB1          0.0000
     5 C5         1.9959   -16.4773    14.1362 C.3        1 BB1          0.0000
     6 C6         2.9109   -17.3527    13.2772 C.3        1 BB1          0.0000
     7 C7         2.0962   -18.5555    12.7874 C.3        1 BB1          0.0000
     8 N8         1.0138   -18.0702    11.9293 N.am       1 BB1          0.0000
     9 C9         0.0552   -17.2568    12.6871 C.3        1 BB1          0.0000
    10 C10        0.3024   -15.0128     9.9976 C.ar       1 BB1          0.0000
    11 C11        1.1113   -13.9573     9.6201 C.ar       1 BB1          0.0000
    12 C12        1.4923   -13.8166     8.2988 C.ar       1 BB1          0.0000
    13 C13        1.0647   -14.7317     7.3549 C.ar       1 BB1          0.0000
    14 C14        0.2565   -15.7876     7.7326 C.ar       1 BB1          0.0000
    15 C15       -0.1210   -15.9307     9.0547 C.ar       1 BB1          0.0000
    16 H16       -1.8339   -16.3668    12.0230 H          1 BB1          0.0000
    17 H17       -0.8541   -17.0775    10.7014 H          1 BB1          0.0000
    18 H18       -0.7785   -14.3512    11.7227 H          1 BB1          0.0000
    19 H19        0.0561   -15.5910    14.0457 H          1 BB1          0.0000
    20 H20        2.5398   -15.5841    14.4434 H          1 BB1          0.0000
    21 H21        1.6952   -17.0354    15.0228 H          1 BB1          0.0000
    22 H22        3.2722   -16.7804    12.4229 H          1 BB1          0.0000
    23 H23        3.7555   -17.6983    13.8733 H          1 BB1          0.0000
    24 H24        2.7404   -19.2267    12.2192 H          1 BB1          0.0000
    25 H25        1.6758   -19.0851    13.6423 H          1 BB1          0.0000
    26 H26       -0.5341   -17.8541    13.3829 H          1 BB1          0.0000
    27 H27        1.4454   -13.2424    10.3575 H          1 BB1          0.0000
    28 H28        2.1238   -12.9916     8.0038 H          1 BB1          0.0000
    29 H29        1.3618   -14.6213     6.3226 H          1 BB1          0.0000
    30 H30       -0.0779   -16.5023     6.9952 H          1 BB1          0.0000
    31 H31       -0.7524   -16.7558     9.3497 H          1 BB1          0.0000
    32 C2        -0.3489   -19.7996    11.8809 C.2        2 BB2          0.0000
    33 O3         0.1780   -19.5632    10.8072 O.2        2 BB2          0.0000
    34 C4        -0.1440   -21.1381    12.5424 C.3        2 BB2          0.0000
    35 C5        -0.9105   -21.1624    13.8712 C.3        2 BB2          0.0000
    36 S6        -2.0718   -22.5518    13.6823 S.3        2 BB2          0.0000
    37 C7        -1.5627   -22.9965    12.0496 C.2        2 BB2          0.0000
    38 O8        -2.0284   -23.9088    11.3941 O.2        2 BB2          0.0000
    39 N9        -0.5927   -22.1803    11.6470 N.am       2 BB2          0.0000
    40 H10        0.9186   -21.2765    12.7422 H          2 BB2          0.0000
    41 H11       -0.2290   -21.3438    14.7024 H          2 BB2          0.0000
    42 H12       -1.4526   -20.2281    14.0170 H          2 BB2          0.0000
    43 H13       -0.1942   -22.2823    10.7686 H          2 BB2          0.0000
@<TRIPOS>BOND
     1      1      2 1
     2      1      9 1
     3      1     16 1
     4      1     17 1
     5      2      3 1
     6      2     10 1
     7      2     18 1
     8      3      4 1
     9      4      5 1
    10      4      9 1
    11      4     19 1
    12      5      6 1
    13      5     20 1
    14      5     21 1
    15      6      7 1
    16      6     22 1
    17      6     23 1
    18      7      8 1
    19      7     24 1
    20      7     25 1
    21      8      9 1
    22      9     26 1
    23     10     11 ar
    24     10     15 ar
    25     11     12 ar
    26     11     27 1
    27     12     13 ar
    28     12     28 1
    29     13     14 ar
    30     13     29 1
    31     14     15 ar
    32     14     30 1
    33     15     31 1
    34     32     33 2
    35     32     34 1
    36     34     35 1
    37     34     39 1
    38     34     40 1
    39     35     36 1
    40     35     41 1
    41     35     42 1
    42     36     37 1
    43     37     38 2
    44     37     39 am
    45     39     43 1
    46      8     32 am
@<TRIPOS>SUBSTRUCTURE
     1 BB1           8
     2 BB2          32
@<TRIPOS>MOLECULE
EN300-266730_i001_EN300-1165841_i001_6_18_1
  59   62   2   0   0
SMALL
USER_CHARGES
@<TRIPOS>ATOM
     1 C1        -0.4046   -12.4579    10.4669 C.3        1 BB1          0.0000
     2 C2        -0.7614   -11.0479     9.9543 C.3        1 BB1          0.0000
     3 O3        -0.1668   -10.9028     8.6494 O.3        1 BB1          0.0000
     4 C4         0.9590   -11.7908     8.6220 C.3        1 BB1          0.0000
     5 C5         1.4695   -12.0491     7.2216 C.3        1 BB1          0.0000
     6 C6         0.4542   -12.8569     6.4106 C.3        1 BB1          0.0000
     7 C7         0.1553   -14.1512     7.1761 C.3        1 BB1          0.0000
     8 N8        -0.4715   -13.8061     8.4534 N.am       1 BB1          0.0000
     9 C9         0.4544   -13.0677     9.3206 C.3        1 BB1          0.0000
    10 C10       -2.2580   -10.9025     9.8545 C.ar       1 BB1          0.0000
    11 C11       -2.8205    -9.6528     9.6741 C.ar       1 BB1          0.0000
    12 C12       -4.1934    -9.5194     9.5827 C.ar       1 BB1          0.0000
    13 C13       -5.0037   -10.6359     9.6711 C.ar       1 BB1          0.0000
    14 C14       -4.4411   -11.8857     9.8506 C.ar       1 BB1          0.0000
    15 C15       -3.0680   -12.0196     9.9378 C.ar       1 BB1          0.0000
    16 H16        0.1759   -12.3945    11.3873 H          1 BB1          0.0000
    17 H17       -1.3077   -13.0478    10.6231 H          1 BB1          0.0000
    18 H18       -0.3582   -10.2946    10.6311 H          1 BB1          0.0000
    19 H19        1.7630   -11.3652     9.2224 H          1 BB1          0.0000
    20 H20        1.6485   -11.0960     6.7241 H          1 BB1          0.0000
    21 H21        2.4058   -12.6042     7.2783 H          1 BB1          0.0000
    22 H22       -0.4630   -12.2805     6.2901 H          1 BB1          0.0000
    23 H23        0.8709   -13.0958     5.4322 H          1 BB1          0.0000
    24 H24       -0.5230   -14.7733     6.5920 H          1 BB1          0.0000
    25 H25        1.0845   -14.6910     7.3587 H          1 BB1          0.0000
    26 H26        1.2629   -13.6972     9.6925 H          1 BB1          0.0000
    27 H27       -2.1875    -8.7805     9.6050 H          1 BB1          0.0000
    28 H28       -4.6330    -8.5429     9.4424 H          1 BB1          0.0000
    29 H29       -6.0763   -10.5317     9.6003 H          1 BB1          0.0000
    30 H30       -5.0742   -12.7580     9.9201 H          1 BB1          0.0000
    31 H31       -2.6284   -12.9961    10.0779 H          1 BB1          0.0000
    32 C1         1.3966   -14.2800     9.9920 C.3        2 BB2          0.0000
    33 C2         0.2518   -15.2819    10.1545 C.3        2 BB2          0.0000
    34 N3         0.6693   -16.3598    11.0610 N.4        2 BB2          1.0000
    35 C4        -0.4874   -17.2057    11.3786 C.3        2 BB2          0.0000
    36 C5        -0.0421   -18.3766    12.2572 C.3        2 BB2          0.0000
    37 C6         0.5657   -17.8327    13.5534 C.3        2 BB2          0.0000
    38 O7        -0.4306   -17.1141    14.2835 O.3        2 BB2          0.0000
    39 C8         1.7244   -16.8931    13.2074 C.3        2 BB2          0.0000
    40 C9         1.2135   -15.7772    12.2935 C.3        2 BB2          0.0000
    41 C10        1.0639   -18.9511    14.3706 C.1        2 BB2          0.0000
    42 C11        1.4612   -19.8431    15.0224 C.1        2 BB2          0.0000
    43 C12       -0.1007   -15.8644     8.8102 C.2        2 BB2          0.0000
    44 O13       -0.3651   -15.1264     7.8763 O.2        2 BB2          0.0000
    45 H15        2.2672   -14.7875     9.5764 H          2 BB2          0.0000
    46 H16        1.0868   -13.4802     9.3193 H          2 BB2          0.0000
    47 H17        1.6516   -13.8587    10.9644 H          2 BB2          0.0000
    48 H18       -0.6189   -14.7745    10.5701 H          2 BB2          0.0000
    49 H19       -1.2333   -16.6156    11.9110 H          2 BB2          0.0000
    50 H20       -0.9208   -17.5894    10.4549 H          2 BB2          0.0000
    51 H21       -0.9027   -19.0025    12.4933 H          2 BB2          0.0000
    52 H22        0.7037   -18.9676    11.7255 H          2 BB2          0.0000
    53 H23        2.1265   -16.4587    14.1226 H          2 BB2          0.0000
    54 H24        2.5068   -17.4534    12.6954 H          2 BB2          0.0000
    55 H25        2.0359   -15.1063    12.0454 H          2 BB2          0.0000
    56 H26        0.4315   -15.2175    12.8066 H          2 BB2          0.0000
    57 H27        1.8166   -20.6408    15.6053 H          2 BB2          0.0000
    58 H28       -1.2926   -17.5517    14.3077 H          2 BB2          0.0000
    59 H29        1.3802   -16.9182    10.6130 H          2 BB2          0.0000
@<TRIPOS>BOND
     1      1      2 1
     2      1      9 1
     3      1     16 1
     4      1     17 1
     5      2      3 1
     6      2     10 1
     7      2     18 1
     8      3      4 1
     9      4      5 1
    10      4      9 1
    11      4     19 1
    12      5      6 1
    13      5     20 1
    14      5     21 1
    15      6      7 1
    16      6     22 1
    17      6     23 1
    18      7      8 1
    19      7     24 1
    20      7     25 1
    21      8      9 1
    22      9     26 1
    23     10     11 ar
    24     10     15 ar
    25     11     12 ar
    26     11     27 1
    27     12     13 ar
    28     12     28 1
    29     13     14 ar
    30     13     29 1
    31     14     15 ar
    32     14     30 1
    33     15     31 1
    34     32     33 1
    35     32     45 1
    36     32     46 1
    37     32     47 1
    38     33     34 1
    39     33     43 1
    40     33     48 1
    41     34     35 1
    42     34     40 1
    43     34     59 1
    44     35     36 1
    45     35     49 1
    46     35     50 1
    47     36     37 1
    48     36     51 1
    49     36     52 1
    50     37     38 1
    51     37     39 1
    52     37     41 1
    53     38     58 1
    54     39     40 1
    55     39     53 1
    56     39     54 1
    57     40     55 1
    58     40     56 1
    59     41     42 3
    60     42     57 1
    61     43     44 2
    62      8     43 am
@<TRIPOS>SUBSTRUCTURE
     1 BB1           8
     2 BB2          43
@<TRIPOS>MOLECULE
EN300-266730_i001_EN300-1165841_i001_6_20_1
  59   62   2   0   0
SMALL
USER_CHARGES
@<TRIPOS>ATOM
     1 C1        -0.4046   -12.4579    10.4669 C.3        1 BB1          0.0000
     2 C2        -0.7614   -11.0479     9.9543 C.3        1 BB1          0.0000
     3 O3        -0.1668   -10.9028     8.6494 O.3        1 BB1          0.0000
     4 C4         0.9590   -11.7908     8.6220 C.3        1 BB1          0.0000
     5 C5         1.4695   -12.0491     7.2216 C.3        1 BB1          0.0000
     6 C6         0.4542   -12.8569     6.4106 C.3        1 BB1          0.0000
     7 C7         0.1553   -14.1512     7.1761 C.3        1 BB1          0.0000
     8 N8        -0.4715   -13.8061     8.4534 N.am       1 BB1          0.0000
     9 C9         0.4544   -13.0677     9.3206 C.3        1 BB1          0.0000
    10 C10       -2.2580   -10.9025     9.8545 C.ar       1 BB1          0.0000
    11 C11       -2.8205    -9.6528     9.6741 C.ar       1 BB1          0.0000
    12 C12       -4.1934    -9.5194     9.5827 C.ar       1 BB1          0.0000
    13 C13       -5.0037   -10.6359     9.6711 C.ar       1 BB1          0.0000
    14 C14       -4.4411   -11.8857     9.8506 C.ar       1 BB1          0.0000
    15 C15       -3.0680   -12.0196     9.9378 C.ar       1 BB1          0.0000
    16 H16        0.1759   -12.3945    11.3873 H          1 BB1          0.0000
    17 H17       -1.3077   -13.0478    10.6231 H          1 BB1          0.0000
    18 H18       -0.3582   -10.2946    10.6311 H          1 BB1          0.0000
    19 H19        1.7630   -11.3652     9.2224 H          1 BB1          0.0000
    20 H20        1.6485   -11.0960     6.7241 H          1 BB1          0.0000
    21 H21        2.4058   -12.6042     7.2783 H          1 BB1          0.0000
    22 H22       -0.4630   -12.2805     6.2901 H          1 BB1          0.0000
    23 H23        0.8709   -13.0958     5.4322 H          1 BB1          0.0000
    24 H24       -0.5230   -14.7733     6.5920 H          1 BB1          0.0000
    25 H25        1.0845   -14.6910     7.3587 H          1 BB1          0.0000
    26 H26        1.2629   -13.6972     9.6925 H          1 BB1          0.0000
    27 H27       -2.1875    -8.7805     9.6050 H          1 BB1          0.0000
    28 H28       -4.6330    -8.5429     9.4424 H          1 BB1          0.0000
    29 H29       -6.0763   -10.5317     9.6003 H          1 BB1          0.0000
    30 H30       -5.0742   -12.7580     9.9201 H          1 BB1          0.0000
    31 H31       -2.6284   -12.9961    10.0779 H          1 BB1          0.0000
    32 C1         2.5764   -14.3098    10.1170 C.3        2 BB2          0.0000
    33 C2         1.1323   -14.6517    10.4890 C.3        2 BB2          0.0000
    34 N3         1.1179   -15.8348    11.3597 N.4        2 BB2          1.0000
    35 C4        -0.2523   -16.0819    11.8244 C.3        2 BB2          0.0000
    36 C5        -0.2871   -17.3595    12.6659 C.3        2 BB2          0.0000
    37 C6         0.6411   -17.1947    13.8728 C.3        2 BB2          0.0000
    38 O7         0.1639   -16.1325    14.7010 O.3        2 BB2          0.0000
    39 C8         2.0521   -16.8639    13.3779 C.3        2 BB2          0.0000
    40 C9         2.0000   -15.6046    12.5101 C.3        2 BB2          0.0000
    41 C10        0.6699   -18.4469    14.6460 C.1        2 BB2          0.0000
    42 C11        0.6930   -19.4456    15.2629 C.1        2 BB2          0.0000
    43 C12        0.3457   -14.9402     9.2365 C.2        2 BB2          0.0000
    44 O13        0.1574   -14.0566     8.4177 O.2        2 BB2          0.0000
    45 H15        3.0257   -15.1528     9.5919 H          2 BB2          0.0000
    46 H16        2.5871   -13.4320     9.4709 H          2 BB2          0.0000
    47 H17        3.1454   -14.1011    11.0230 H          2 BB2          0.0000
    48 H18        0.6830   -13.8087    11.0141 H          2 BB2          0.0000
    49 H19       -0.5877   -15.2396    12.4295 H          2 BB2          0.0000
    50 H20       -0.9122   -16.1958    10.9644 H          2 BB2          0.0000
    51 H21       -1.3049   -17.5402    13.0114 H          2 BB2          0.0000
    52 H22        0.0479   -18.2025    12.0615 H          2 BB2          0.0000
    53 H23        2.7061   -16.6903    14.2323 H          2 BB2          0.0000
    54 H24        2.4355   -17.6966    12.7883 H          2 BB2          0.0000
    55 H25        3.0030   -15.3661    12.1562 H          2 BB2          0.0000
    56 H26        1.6167   -14.7725    13.1006 H          2 BB2          0.0000
    57 H27        0.7136   -20.3388    15.8144 H          2 BB2          0.0000
    58 H28       -0.7927   -16.1435    14.8426 H          2 BB2          0.0000
    59 H29        1.4460   -16.6362    10.8419 H          2 BB2          0.0000
@<TRIPOS>BOND
     1      1      2 1
     2      1      9 1
     3      1     16 1
     4      1     17 1
     5      2      3 1
     6      2     10 1
     7      2     18 1
     8      3      4 1
     9      4      5 1
    10      4      9 1
    11      4     19 1
    12      5      6 1
    13      5     20 1
    14      5     21 1
    15      6      7 1
    16      6     22 1
    17      6     23 1
    18      7      8 1
    19      7     24 1
    20      7     25 1
    21      8      9 1
    22      9     26 1
    23     10     11 ar
    24     10     15 ar
    25     11     12 ar
    26     11     27 1
    27     12     13 ar
    28     12     28 1
    29     13     14 ar
    30     13     29 1
    31     14     15 ar
    32     14     30 1
    33     15     31 1
    34     32     33 1
    35     32     45 1
    36     32     46 1
    37     32     47 1
    38     33     34 1
    39     33     43 1
    40     33     48 1
    41     34     35 1
    42     34     40 1
    43     34     59 1
    44     35     36 1
    45     35     49 1
    46     35     50 1
    47     36     37 1
    48     36     51 1
    49     36     52 1
    50     37     38 1
    51     37     39 1
    52     37     41 1
    53     38     58 1
    54     39     40 1
    55     39     53 1
    56     39     54 1
    57     40     55 1
    58     40     56 1
    59     41     42 3
    60     42     57 1
    61     43     44 2
    62      8     43 am
@<TRIPOS>SUBSTRUCTURE
     1 BB1           8
     2 BB2          43
@<TRIPOS>MOLECULE
EN300-266730_i001_EN300-1198129_i001_9_17_1
  55   58   2   0   0
SMALL
USER_CHARGES
@<TRIPOS>ATOM
     1 C1         1.6696   -18.3188    14.9877 C.3        1 BB1          0.0000
     2 C2         0.2179   -18.7681    14.7253 C.3        1 BB1          0.0000
     3 O3        -0.4489   -17.6875    14.0435 O.3        1 BB1          0.0000
     4 C4         0.2410   -16.4889    14.4233 C.3        1 BB1          0.0000
     5 C5        -0.0766   -15.3172    13.5208 C.3        1 BB1          0.0000
     6 C6         0.4939   -15.5378    12.1183 C.3        1 BB1          0.0000
     7 C7         2.0008   -15.7867    12.2512 C.3        1 BB1          0.0000
     8 N8         2.2067   -17.0201    13.0125 N.am       1 BB1          0.0000
     9 C9         1.7305   -16.8810    14.3941 C.3        1 BB1          0.0000
    10 C10        0.2119   -20.0015    13.8594 C.ar       1 BB1          0.0000
    11 C11        0.8364   -21.1551    14.2953 C.ar       1 BB1          0.0000
    12 C12        0.8310   -22.2864    13.5011 C.ar       1 BB1          0.0000
    13 C13        0.2005   -22.2644    12.2710 C.ar       1 BB1          0.0000
    14 C14       -0.4248   -21.1110    11.8355 C.ar       1 BB1          0.0000
    15 C15       -0.4230   -19.9810    12.6316 C.ar       1 BB1          0.0000
    16 H16        1.8764   -18.2997    16.0577 H          1 BB1          0.0000
    17 H17        2.3718   -18.9749    14.4733 H          1 BB1          0.0000
    18 H18       -0.2828   -18.9745    15.6712 H          1 BB1          0.0000
    19 H19       -0.0272   -16.2332    15.4484 H          1 BB1          0.0000
    20 H20       -1.1581   -15.1999    13.4533 H          1 BB1          0.0000
    21 H21        0.3555   -14.4108    13.9449 H          1 BB1          0.0000
    22 H22        0.0170   -16.4035    11.6588 H          1 BB1          0.0000
    23 H23        0.3195   -14.6527    11.5065 H          1 BB1          0.0000
    24 H24        2.4432   -15.8903    11.2603 H          1 BB1          0.0000
    25 H25        2.4646   -14.9513    12.7758 H          1 BB1          0.0000
    26 H26        2.3584   -16.2114    14.9819 H          1 BB1          0.0000
    27 H27        1.3290   -21.1724    15.2563 H          1 BB1          0.0000
    28 H28        1.3195   -23.1875    13.8413 H          1 BB1          0.0000
    29 H29        0.1968   -23.1480    11.6502 H          1 BB1          0.0000
    30 H30       -0.9170   -21.0937    10.8743 H          1 BB1          0.0000
    31 H31       -0.9116   -19.0799    12.2914 H          1 BB1          0.0000
    32 O1        -0.1424   -16.0682    13.2759 O.2        2 BB2          0.0000
    33 C2        -0.3911   -17.0613    12.6065 C.2        2 BB2          0.0000
    34 C4        -0.3958   -16.9760    11.1355 C.ar       2 BB2          0.0000
    35 C5        -0.0908   -15.7687    10.5005 C.ar       2 BB2          0.0000
    36 C6        -0.0971   -15.6964     9.1240 C.ar       2 BB2          0.0000
    37 C7        -0.4049   -16.8151     8.3684 C.ar       2 BB2          0.0000
    38 C8        -0.7081   -18.0142     8.9862 C.ar       2 BB2          0.0000
    39 C9        -0.7001   -18.1055    10.3659 C.ar       2 BB2          0.0000
    40 F10       -0.9964   -19.2773    10.9694 F          2 BB2          0.0000
    41 S11        0.2873   -14.1747     8.3232 S.o2       2 BB2          0.0000
    42 O12        1.6993   -14.0649     8.4386 O.2        2 BB2          0.0000
    43 O13       -0.3379   -14.2803     7.0515 O.2        2 BB2          0.0000
    44 C14       -0.5340   -12.9116     9.3333 C.3        2 BB2          0.0000
    45 C15       -0.3919   -11.5463     8.6574 C.3        2 BB2          0.0000
    46 C16       -1.3236   -10.5914     9.2795 C.1        2 BB2          0.0000
    47 C17       -2.0667    -9.8299     9.7757 C.1        2 BB2          0.0000
    48 H18        0.1491   -14.8943    11.0872 H          2 BB2          0.0000
    49 H19       -0.4086   -16.7505     7.2903 H          2 BB2          0.0000
    50 H20       -0.9471   -18.8823     8.3900 H          2 BB2          0.0000
    51 H21       -1.5909   -13.1582     9.4350 H          2 BB2          0.0000
    52 H22       -0.0721   -12.8783    10.3200 H          2 BB2          0.0000
    53 H23        0.6301   -11.1866     8.7764 H          2 BB2          0.0000
    54 H24       -0.6229   -11.6403     7.5963 H          2 BB2          0.0000
    55 H25       -2.7313    -9.1488    10.2194 H          2 BB2          0.0000
@<TRIPOS>BOND
     1      1      2 1
     2      1      9 1
     3      1     16 1
     4      1     17 1
     5      2      3 1
     6      2     10 1
     7      2     18 1
     8      3      4 1
     9      4      5 1
    10      4      9 1
    11      4     19 1
    12      5      6 1
    13      5     20 1
    14      5     21 1
    15      6      7 1
    16      6     22 1
    17      6     23 1
    18      7      8 1
    19      7     24 1
    20      7     25 1
    21      8      9 1
    22      9     26 1
    23     10     11 ar
    24     10     15 ar
    25     11     12 ar
    26     11     27 1
    27     12     13 ar
    28     12     28 1
    29     13     14 ar
    30     13     29 1
    31     14     15 ar
    32     14     30 1
    33     15     31 1
    34     32     33 2
    35     33     34 1
    36     34     35 ar
    37     34     39 ar
    38     35     36 ar
    39     35     48 1
    40     36     37 ar
    41     36     41 1
    42     37     38 ar
    43     37     49 1
    44     38     39 ar
    45     38     50 1
    46     39     40 1
    47     41     42 2
    48     41     43 2
    49     41     44 1
    50     44     45 1
    51     44     51 1
    52     44     52 1
    53     45     46 1
    54     45     53 1
    55     45     54 1
    56     46     47 3
    57     47     55 1
    58      8     33 am
@<TRIPOS>SUBSTRUCTURE
     1 BB1           8
     2 BB2          33
@<TRIPOS>MOLECULE
EN300-266730_i001_EN300-1198129_i001_9_20_1
  55   58   2   0   0
SMALL
USER_CHARGES
@<TRIPOS>ATOM
     1 C1         1.6696   -18.3188    14.9877 C.3        1 BB1          0.0000
     2 C2         0.2179   -18.7681    14.7253 C.3        1 BB1          0.0000
     3 O3        -0.4489   -17.6875    14.0435 O.3        1 BB1          0.0000
     4 C4         0.2410   -16.4889    14.4233 C.3        1 BB1          0.0000
     5 C5        -0.0766   -15.3172    13.5208 C.3        1 BB1          0.0000
     6 C6         0.4939   -15.5378    12.1183 C.3        1 BB1          0.0000
     7 C7         2.0008   -15.7867    12.2512 C.3        1 BB1          0.0000
     8 N8         2.2067   -17.0201    13.0125 N.am       1 BB1          0.0000
     9 C9         1.7305   -16.8810    14.3941 C.3        1 BB1          0.0000
    10 C10        0.2119   -20.0015    13.8594 C.ar       1 BB1          0.0000
    11 C11        0.8364   -21.1551    14.2953 C.ar       1 BB1          0.0000
    12 C12        0.8310   -22.2864    13.5011 C.ar       1 BB1          0.0000
    13 C13        0.2005   -22.2644    12.2710 C.ar       1 BB1          0.0000
    14 C14       -0.4248   -21.1110    11.8355 C.ar       1 BB1          0.0000
    15 C15       -0.4230   -19.9810    12.6316 C.ar       1 BB1          0.0000
    16 H16        1.8764   -18.2997    16.0577 H          1 BB1          0.0000
    17 H17        2.3718   -18.9749    14.4733 H          1 BB1          0.0000
    18 H18       -0.2828   -18.9745    15.6712 H          1 BB1          0.0000
    19 H19       -0.0272   -16.2332    15.4484 H          1 BB1          0.0000
    20 H20       -1.1581   -15.1999    13.4533 H          1 BB1          0.0000
    21 H21        0.3555   -14.4108    13.9449 H          1 BB1          0.0000
    22 H22        0.0170   -16.4035    11.6588 H          1 BB1          0.0000
    23 H23        0.3195   -14.6527    11.5065 H          1 BB1          0.0000
    24 H24        2.4432   -15.8903    11.2603 H          1 BB1          0.0000
    25 H25        2.4646   -14.9513    12.7758 H          1 BB1          0.0000
    26 H26        2.3584   -16.2114    14.9819 H          1 BB1          0.0000
    27 H27        1.3290   -21.1724    15.2563 H          1 BB1          0.0000
    28 H28        1.3195   -23.1875    13.8413 H          1 BB1          0.0000
    29 H29        0.1968   -23.1480    11.6502 H          1 BB1          0.0000
    30 H30       -0.9170   -21.0937    10.8743 H          1 BB1          0.0000
    31 H31       -0.9116   -19.0799    12.2914 H          1 BB1          0.0000
    32 C2        -0.1937   -16.6148    12.6241 C.2        2 BB2          0.0000
    33 O3         0.2683   -15.5959    13.1188 O.2        2 BB2          0.0000
    34 C4        -0.2826   -16.7479    11.1594 C.ar       2 BB2          0.0000
    35 C5        -0.0167   -15.6498    10.3364 C.ar       2 BB2          0.0000
    36 C6        -0.1019   -15.7818     8.9670 C.ar       2 BB2          0.0000
    37 C7        -0.4502   -16.9979     8.4040 C.ar       2 BB2          0.0000
    38 C8        -0.7154   -18.0904     9.2087 C.ar       2 BB2          0.0000
    39 C9        -0.6283   -17.9768    10.5840 C.ar       2 BB2          0.0000
    40 F10       -0.8874   -19.0445    11.3701 F          2 BB2          0.0000
    41 S11        0.2332   -14.3978     7.9292 S.o2       2 BB2          0.0000
    42 O12        1.5821   -14.5831     7.5228 O.2        2 BB2          0.0000
    43 O13       -0.8253   -14.4062     6.9813 O.2        2 BB2          0.0000
    44 C14        0.0912   -12.9624     9.0292 C.3        2 BB2          0.0000
    45 C15        0.0804   -11.6798     8.1950 C.3        2 BB2          0.0000
    46 C16        0.9386   -11.8565     7.0122 C.1        2 BB2          0.0000
    47 C17        1.6231   -11.9973     6.0689 C.1        2 BB2          0.0000
    48 H18        0.2546   -14.6998    10.7727 H          2 BB2          0.0000
    49 H19       -0.5157   -17.0934     7.3302 H          2 BB2          0.0000
    50 H20       -0.9864   -19.0355     8.7621 H          2 BB2          0.0000
    51 H21       -0.8347   -13.0323     9.6001 H          2 BB2          0.0000
    52 H22        0.9394   -12.9436     9.7135 H          2 BB2          0.0000
    53 H23       -0.9389   -11.4631     7.8752 H          2 BB2          0.0000
    54 H24        0.4563   -10.8521     8.7964 H          2 BB2          0.0000
    55 H25        2.2353   -12.1232     5.2251 H          2 BB2          0.0000
@<TRIPOS>BOND
     1      1      2 1
     2      1      9 1
     3      1     16 1
     4      1     17 1
     5      2      3 1
     6      2     10 1
     7      2     18 1
     8      3      4 1
     9      4      5 1
    10      4      9 1
    11      4     19 1
    12      5      6 1
    13      5     20 1
    14      5     21 1
    15      6      7 1
    16      6     22 1
    17      6     23 1
    18      7      8 1
    19      7     24 1
    20      7     25 1
    21      8      9 1
    22      9     26 1
    23     10     11 ar
    24     10     15 ar
    25     11     12 ar
    26     11     27 1
    27     12     13 ar
    28     12     28 1
    29     13     14 ar
    30     13     29 1
    31     14     15 ar
    32     14     30 1
    33     15     31 1
    34     32     33 2
    35     32     34 1
    36     34     35 ar
    37     34     39 ar
    38     35     36 ar
    39     35     48 1
    40     36     37 ar
    41     36     41 1
    42     37     38 ar
    43     37     49 1
    44     38     39 ar
    45     38     50 1
    46     39     40 1
    47     41     42 2
    48     41     43 2
    49     41     44 1
    50     44     45 1
    51     44     51 1
    52     44     52 1
    53     45     46 1
    54     45     53 1
    55     45     54 1
    56     46     47 3
    57     47     55 1
    58      8     32 am
@<TRIPOS>SUBSTRUCTURE
     1 BB1           8
     2 BB2          32
@<TRIPOS>MOLECULE
EN300-266730_i001_EN300-1198129_i001_9_9_1
  55   58   2   0   0
SMALL
USER_CHARGES
@<TRIPOS>ATOM
     1 C1         1.6696   -18.3188    14.9877 C.3        1 BB1          0.0000
     2 C2         0.2179   -18.7681    14.7253 C.3        1 BB1          0.0000
     3 O3        -0.4489   -17.6875    14.0435 O.3        1 BB1          0.0000
     4 C4         0.2410   -16.4889    14.4233 C.3        1 BB1          0.0000
     5 C5        -0.0766   -15.3172    13.5208 C.3        1 BB1          0.0000
     6 C6         0.4939   -15.5378    12.1183 C.3        1 BB1          0.0000
     7 C7         2.0008   -15.7867    12.2512 C.3        1 BB1          0.0000
     8 N8         2.2067   -17.0201    13.0125 N.am       1 BB1          0.0000
     9 C9         1.7305   -16.8810    14.3941 C.3        1 BB1          0.0000
    10 C10        0.2119   -20.0015    13.8594 C.ar       1 BB1          0.0000
    11 C11        0.8364   -21.1551    14.2953 C.ar       1 BB1          0.0000
    12 C12        0.8310   -22.2864    13.5011 C.ar       1 BB1          0.0000
    13 C13        0.2005   -22.2644    12.2710 C.ar       1 BB1          0.0000
    14 C14       -0.4248   -21.1110    11.8355 C.ar       1 BB1          0.0000
    15 C15       -0.4230   -19.9810    12.6316 C.ar       1 BB1          0.0000
    16 H16        1.8764   -18.2997    16.0577 H          1 BB1          0.0000
    17 H17        2.3718   -18.9749    14.4733 H          1 BB1          0.0000
    18 H18       -0.2828   -18.9745    15.6712 H          1 BB1          0.0000
    19 H19       -0.0272   -16.2332    15.4484 H          1 BB1          0.0000
    20 H20       -1.1581   -15.1999    13.4533 H          1 BB1          0.0000
    21 H21        0.3555   -14.4108    13.9449 H          1 BB1          0.0000
    22 H22        0.0170   -16.4035    11.6588 H          1 BB1          0.0000
    23 H23        0.3195   -14.6527    11.5065 H          1 BB1          0.0000
    24 H24        2.4432   -15.8903    11.2603 H          1 BB1          0.0000
    25 H25        2.4646   -14.9513    12.7758 H          1 BB1          0.0000
    26 H26        2.3584   -16.2114    14.9819 H          1 BB1          0.0000
    27 H27        1.3290   -21.1724    15.2563 H          1 BB1          0.0000
    28 H28        1.3195   -23.1875    13.8413 H          1 BB1          0.0000
    29 H29        0.1968   -23.1480    11.6502 H          1 BB1          0.0000
    30 H30       -0.9170   -21.0937    10.8743 H          1 BB1          0.0000
    31 H31       -0.9116   -19.0799    12.2914 H          1 BB1          0.0000
    32 O1         0.0714   -15.4953    13.0118 O.2        2 BB2          0.0000
    33 C2        -0.3298   -16.2651    12.1501 C.2        2 BB2          0.0000
    34 C4        -0.2777   -15.8739    10.7304 C.ar       2 BB2          0.0000
    35 C5        -0.0559   -14.5399    10.3768 C.ar       2 BB2          0.0000
    36 C6        -0.0084   -14.1812     9.0467 C.ar       2 BB2          0.0000
    37 C7        -0.1800   -15.1375     8.0601 C.ar       2 BB2          0.0000
    38 C8        -0.4001   -16.4597     8.3988 C.ar       2 BB2          0.0000
    39 C9        -0.4444   -16.8374     9.7282 C.ar       2 BB2          0.0000
    40 F10       -0.6594   -18.1295    10.0590 F          2 BB2          0.0000
    41 S11        0.2712   -12.4998     8.6004 S.o2       2 BB2          0.0000
    42 O12        1.1192   -12.0014     9.6259 O.2        2 BB2          0.0000
    43 O13        0.7129   -12.5641     7.2513 O.2        2 BB2          0.0000
    44 C14       -1.3671   -11.7273     8.6976 C.3        2 BB2          0.0000
    45 C15       -1.8344   -11.7042    10.1543 C.3        2 BB2          0.0000
    46 C16       -3.1653   -11.0801    10.2329 C.1        2 BB2          0.0000
    47 C17       -4.2268   -10.5825    10.2955 C.1        2 BB2          0.0000
    48 H18        0.0778   -13.7917    11.1441 H          2 BB2          0.0000
    49 H19       -0.1423   -14.8487     7.0201 H          2 BB2          0.0000
    50 H20       -0.5331   -17.1996     7.6236 H          2 BB2          0.0000
    51 H21       -1.3110   -10.7072     8.3179 H          2 BB2          0.0000
    52 H22       -2.0750   -12.2997     8.0981 H          2 BB2          0.0000
    53 H23       -1.8885   -12.7242    10.5348 H          2 BB2          0.0000
    54 H24       -1.1279   -11.1298    10.7535 H          2 BB2          0.0000
    55 H25       -5.1762   -10.1374    10.3514 H          2 BB2          0.0000
@<TRIPOS>BOND
     1      1      2 1
     2      1      9 1
     3      1     16 1
     4      1     17 1
     5      2      3 1
     6      2     10 1
     7      2     18 1
     8      3      4 1
     9      4      5 1
    10      4      9 1
    11      4     19 1
    12      5      6 1
    13      5     20 1
    14      5     21 1
    15      6      7 1
    16      6     22 1
    17      6     23 1
    18      7      8 1
    19      7     24 1
    20      7     25 1
    21      8      9 1
    22      9     26 1
    23     10     11 ar
    24     10     15 ar
    25     11     12 ar
    26     11     27 1
    27     12     13 ar
    28     12     28 1
    29     13     14 ar
    30     13     29 1
    31     14     15 ar
    32     14     30 1
    33     15     31 1
    34     32     33 2
    35     33     34 1
    36     34     35 ar
    37     34     39 ar
    38     35     36 ar
    39     35     48 1
    40     36     37 ar
    41     36     41 1
    42     37     38 ar
    43     37     49 1
    44     38     39 ar
    45     38     50 1
    46     39     40 1
    47     41     42 2
    48     41     43 2
    49     41     44 1
    50     44     45 1
    51     44     51 1
    52     44     52 1
    53     45     46 1
    54     45     53 1
    55     45     54 1
    56     46     47 3
    57     47     55 1
    58      8     33 am
@<TRIPOS>SUBSTRUCTURE
     1 BB1           8
     2 BB2          33
@<TRIPOS>MOLECULE
EN300-266730_i001_EN300-1165841_i001_9_9_1
  59   62   2   0   0
SMALL
USER_CHARGES
@<TRIPOS>ATOM
     1 C1         1.6696   -18.3188    14.9877 C.3        1 BB1          0.0000
     2 C2         0.2179   -18.7681    14.7253 C.3        1 BB1          0.0000
     3 O3        -0.4489   -17.6875    14.0435 O.3        1 BB1          0.0000
     4 C4         0.2410   -16.4889    14.4233 C.3        1 BB1          0.0000
     5 C5        -0.0766   -15.3172    13.5208 C.3        1 BB1          0.0000
     6 C6         0.4939   -15.5378    12.1183 C.3        1 BB1          0.0000
     7 C7         2.0008   -15.7867    12.2512 C.3        1 BB1          0.0000
     8 N8         2.2067   -17.0201    13.0125 N.am       1 BB1          0.0000
     9 C9         1.7305   -16.8810    14.3941 C.3        1 BB1          0.0000
    10 C10        0.2119   -20.0015    13.8594 C.ar       1 BB1          0.0000
    11 C11        0.8364   -21.1551    14.2953 C.ar       1 BB1          0.0000
    12 C12        0.8310   -22.2864    13.5011 C.ar       1 BB1          0.0000
    13 C13        0.2005   -22.2644    12.2710 C.ar       1 BB1          0.0000
    14 C14       -0.4248   -21.1110    11.8355 C.ar       1 BB1          0.0000
    15 C15       -0.4230   -19.9810    12.6316 C.ar       1 BB1          0.0000
    16 H16        1.8764   -18.2997    16.0577 H          1 BB1          0.0000
    17 H17        2.3718   -18.9749    14.4733 H          1 BB1          0.0000
    18 H18       -0.2828   -18.9745    15.6712 H          1 BB1          0.0000
    19 H19       -0.0272   -16.2332    15.4484 H          1 BB1          0.0000
    20 H20       -1.1581   -15.1999    13.4533 H          1 BB1          0.0000
    21 H21        0.3555   -14.4108    13.9449 H          1 BB1          0.0000
    22 H22        0.0170   -16.4035    11.6588 H          1 BB1          0.0000
    23 H23        0.3195   -14.6527    11.5065 H          1 BB1          0.0000
    24 H24        2.4432   -15.8903    11.2603 H          1 BB1          0.0000
    25 H25        2.4646   -14.9513    12.7758 H          1 BB1          0.0000
    26 H26        2.3584   -16.2114    14.9819 H          1 BB1          0.0000
    27 H27        1.3290   -21.1724    15.2563 H          1 BB1          0.0000
    28 H28        1.3195   -23.1875    13.8413 H          1 BB1          0.0000
    29 H29        0.1968   -23.1480    11.6502 H          1 BB1          0.0000
    30 H30       -0.9170   -21.0937    10.8743 H          1 BB1          0.0000
    31 H31       -0.9116   -19.0799    12.2914 H          1 BB1          0.0000
    32 C1        -0.4775   -18.1700    10.2903 C.3        2 BB2          0.0000
    33 C2        -0.3453   -16.7630    10.8767 C.3        2 BB2          0.0000
    34 N3         0.3038   -15.8828     9.8960 N.4        2 BB2          1.0000
    35 C4         0.2669   -14.4986    10.3832 C.3        2 BB2          0.0000
    36 C5         1.0128   -13.5892     9.4043 C.3        2 BB2          0.0000
    37 C6         0.3403   -13.6667     8.0306 C.3        2 BB2          0.0000
    38 O7        -0.9980   -13.1748     8.1253 O.3        2 BB2          0.0000
    39 C8         0.3180   -15.1256     7.5655 C.3        2 BB2          0.0000
    40 C9        -0.4021   -15.9780     8.6126 C.3        2 BB2          0.0000
    41 C10        1.0969   -12.8523     7.0656 C.1        2 BB2          0.0000
    42 C11        1.7003   -12.2027     6.2959 C.1        2 BB2          0.0000
    43 C12        0.4877   -16.8178    12.1313 C.2        2 BB2          0.0000
    44 O13        0.9510   -17.8803    12.5095 O.2        2 BB2          0.0000
    45 H15        0.5126   -18.5589    10.0524 H          2 BB2          0.0000
    46 H16       -0.9591   -18.8231    11.0180 H          2 BB2          0.0000
    47 H17       -1.0800   -18.1303     9.3829 H          2 BB2          0.0000
    48 H18       -1.3354   -16.3740    11.1147 H          2 BB2          0.0000
    49 H19       -0.7692   -14.1705    10.4658 H          2 BB2          0.0000
    50 H20        0.7430   -14.4457    11.3623 H          2 BB2          0.0000
    51 H21        0.9827   -12.5618     9.7668 H          2 BB2          0.0000
    52 H22        2.0492   -13.9164     9.3211 H          2 BB2          0.0000
    53 H23       -0.2086   -15.1963     6.6138 H          2 BB2          0.0000
    54 H24        1.3401   -15.4846     7.4442 H          2 BB2          0.0000
    55 H25       -0.4200   -17.0173     8.2846 H          2 BB2          0.0000
    56 H26       -1.4240   -15.6184     8.7329 H          2 BB2          0.0000
    57 H27        2.2399   -11.6219     5.6077 H          2 BB2          0.0000
    58 H28       -1.1530   -12.6008     8.8879 H          2 BB2          0.0000
    59 H29        1.2633   -16.1691     9.7718 H          2 BB2          0.0000
@<TRIPOS>BOND
     1      1      2 1
     2      1      9 1
     3      1     16 1
     4      1     17 1
     5      2      3 1
     6      2     10 1
     7      2     18 1
     8      3      4 1
     9      4      5 1
    10      4      9 1
    11      4     19 1
    12      5      6 1
    13      5     20 1
    14      5     21 1
    15      6      7 1
    16      6     22 1
    17      6     23 1
    18      7      8 1
    19      7     24 1
    20      7     25 1
    21      8      9 1
    22      9     26 1
    23     10     11 ar
    24     10     15 ar
    25     11     12 ar
    26     11     27 1
    27     12     13 ar
    28     12     28 1
    29     13     14 ar
    30     13     29 1
    31     14     15 ar
    32     14     30 1
    33     15     31 1
    34     32     33 1
    35     32     45 1
    36     32     46 1
    37     32     47 1
    38     33     34 1
    39     33     43 1
    40     33     48 1
    41     34     35 1
    42     34     40 1
    43     34     59 1
    44     35     36 1
    45     35     49 1
    46     35     50 1
    47     36     37 1
    48     36     51 1
    49     36     52 1
    50     37     38 1
    51     37     39 1
    52     37     41 1
    53     38     58 1
    54     39     40 1
    55     39     53 1
    56     39     54 1
    57     40     55 1
    58     40     56 1
    59     41     42 3
    60     42     57 1
    61     43     44 2
    62      8     43 am
@<TRIPOS>SUBSTRUCTURE
     1 BB1           8
     2 BB2          43
@<TRIPOS>MOLECULE
EN300-366294_i001_EN300-223795_i001_1_11_1
  41   43   2   0   0
SMALL
USER_CHARGES
@<TRIPOS>ATOM
     1 Cl1       -0.9143   -11.7679     8.9841 Cl         1 BB1          0.0000
     2 C2        -0.1567   -13.2253     9.5459 C.2        1 BB1          0.0000
     3 C3        -0.3271   -13.8089    10.8047 C.2        1 BB1          0.0000
     4 C4         0.4515   -14.9473    10.8336 C.2        1 BB1          0.0000
     5 N5         1.0823   -15.0506     9.6127 N.pl3      1 BB1          0.0000
     6 C6         0.7016   -14.0034     8.8388 C.2        1 BB1          0.0000
     7 Cl7        1.2330   -13.7025     7.2138 Cl         1 BB1          0.0000
     8 C8         0.5841   -15.8775    11.9583 C.2        1 BB1          0.0000
     9 O9        -0.1142   -15.7417    12.9458 O.2        1 BB1          0.0000
    10 N10        1.4793   -16.8833    11.8989 N.am       1 BB1          0.0000
    11 C11        1.6119   -17.8131    13.0232 C.3        1 BB1          0.0000
    12 C12        1.5238   -19.2513    12.5087 C.3        1 BB1          0.0000
    13 C13        0.2304   -19.4520    11.6900 C.3        1 BB1          0.0000
    14 C14       -0.2477   -20.8765    12.0388 C.3        1 BB1          0.0000
    15 C15        0.7969   -21.4167    13.0388 C.3        1 BB1          0.0000
    16 N16        1.3993   -20.2011    13.6442 N.am       1 BB1          0.0000
    17 H17       -0.9509   -13.4379    11.6045 H          1 BB1          0.0000
    18 H18        2.5751   -17.6597    13.5100 H          1 BB1          0.0000
    19 H19        0.8101   -17.6337    13.7395 H          1 BB1          0.0000
    20 H20        2.3979   -19.4920    11.9036 H          1 BB1          0.0000
    21 H21       -0.5206   -18.7183    11.9828 H          1 BB1          0.0000
    22 H22        0.4415   -19.3740    10.6235 H          1 BB1          0.0000
    23 H23       -1.2335   -20.8421    12.5027 H          1 BB1          0.0000
    24 H24       -0.2713   -21.4978    11.1435 H          1 BB1          0.0000
    25 H25        0.3125   -22.0226    13.8046 H          1 BB1          0.0000
    26 H26        1.5573   -21.9983    12.5173 H          1 BB1          0.0000
    27 H27        1.6941   -15.7559     9.3496 H          1 BB1          0.0000
    28 H28        2.0359   -16.9915    11.1118 H          1 BB1          0.0000
    29 C2        -1.0077   -20.3139    14.6369 C.2        2 BB2          0.0000
    30 O3        -1.1945   -20.8477    13.5514 O.2        2 BB2          0.0000
    31 C4        -0.8831   -21.1350    15.8465 C.2        2 BB2          0.0000
    32 C5        -1.0226   -20.6092    17.1857 C.2        2 BB2          0.0000
    33 C6        -0.8707   -21.5327    18.1260 C.2        2 BB2          0.0000
    34 S7        -0.5474   -23.1006    17.4071 S.3        2 BB2          0.0000
    35 C8        -0.6297   -22.4741    15.8241 C.2        2 BB2          0.0000
    36 C9        -0.4397   -23.2885    14.5703 C.3        2 BB2          0.0000
    37 F10       -0.0984   -24.6009    14.9140 F          2 BB2          0.0000
    38 F11       -1.6286   -23.2936    13.8330 F          2 BB2          0.0000
    39 F12        0.5843   -22.7267    13.8002 F          2 BB2          0.0000
    40 H13       -1.2289   -19.5708    17.3990 H          2 BB2          0.0000
    41 H14       -0.9368   -21.3454    19.1875 H          2 BB2          0.0000
@<TRIPOS>BOND
     1      1      2 1
     2      2      3 1
     3      2      6 2
     4      3      4 2
     5      3     17 1
     6      4      5 1
     7      4      8 1
     8      5      6 1
     9      5     27 1
    10      6      7 1
    11      8      9 2
    12      8     10 am
    13     10     11 1
    14     10     28 1
    15     11     12 1
    16     11     18 1
    17     11     19 1
    18     12     13 1
    19     12     16 1
    20     12     20 1
    21     13     14 1
    22     13     21 1
    23     13     22 1
    24     14     15 1
    25     14     23 1
    26     14     24 1
    27     15     16 1
    28     15     25 1
    29     15     26 1
    30     29     30 2
    31     29     31 1
    32     31     32 1
    33     31     35 2
    34     32     33 2
    35     32     40 1
    36     33     34 1
    37     33     41 1
    38     34     35 1
    39     35     36 1
    40     36     37 1
    41     36     38 1
    42     36     39 1
    43     16     29 am
@<TRIPOS>SUBSTRUCTURE
     1 BB1          16
     2 BB2          29
@<TRIPOS>MOLECULE
EN300-366294_i001_EN300-223795_i001_11_11_1
  41   43   2   0   0
SMALL
USER_CHARGES
@<TRIPOS>ATOM
     1 Cl1       -1.0003   -12.0967     8.7009 Cl         1 BB1          0.0000
     2 C2        -0.1219   -13.4396     9.3631 C.2        1 BB1          0.0000
     3 C3        -0.0162   -13.7660    10.7183 C.2        1 BB1          0.0000
     4 C4         0.7665   -14.8988    10.8037 C.2        1 BB1          0.0000
     5 N5         1.1280   -15.2518     9.5215 N.pl3      1 BB1          0.0000
     6 C6         0.5792   -14.3623     8.6566 C.2        1 BB1          0.0000
     7 Cl7        0.7532   -14.3936     6.9297 Cl         1 BB1          0.0000
     8 C8         1.1449   -15.5993    12.0340 C.2        1 BB1          0.0000
     9 O9         0.5658   -15.3548    13.0762 O.2        1 BB1          0.0000
    10 N10        2.1342   -16.5142    12.0114 N.am       1 BB1          0.0000
    11 C11        2.5126   -17.2145    13.2413 C.3        1 BB1          0.0000
    12 C12        1.2999   -17.9661    13.7939 C.3        1 BB1          0.0000
    13 C13        1.7111   -18.8395    14.9988 C.3        1 BB1          0.0000
    14 C14        0.8721   -20.1271    14.8652 C.3        1 BB1          0.0000
    15 C15        0.0247   -19.9234    13.5910 C.3        1 BB1          0.0000
    16 N16        0.7872   -18.9324    12.7887 N.am       1 BB1          0.0000
    17 H17       -0.4630   -13.2313    11.5436 H          1 BB1          0.0000
    18 H18        3.3117   -17.9235    13.0246 H          1 BB1          0.0000
    19 H19        2.8589   -16.4910    13.9794 H          1 BB1          0.0000
    20 H20        0.5177   -17.2642    14.0826 H          1 BB1          0.0000
    21 H21        2.7745   -19.0739    14.9510 H          1 BB1          0.0000
    22 H22        1.4765   -18.3300    15.9332 H          1 BB1          0.0000
    23 H23        1.5237   -20.9936    14.7520 H          1 BB1          0.0000
    24 H24        0.2256   -20.2496    15.7342 H          1 BB1          0.0000
    25 H25       -0.0717   -20.8616    13.0445 H          1 BB1          0.0000
    26 H26       -0.9587   -19.5291    13.8474 H          1 BB1          0.0000
    27 H27        1.6803   -16.0111     9.2779 H          1 BB1          0.0000
    28 H28        2.5959   -16.7091    11.1807 H          1 BB1          0.0000
    29 O1        -0.9197   -19.0954    14.7126 O.2        2 BB2          0.0000
    30 C2        -1.0077   -20.3139    14.6369 C.2        2 BB2          0.0000
    31 C4        -0.8831   -21.1350    15.8465 C.2        2 BB2          0.0000
    32 C5        -1.0226   -20.6092    17.1857 C.2        2 BB2          0.0000
    33 C6        -0.8707   -21.5327    18.1260 C.2        2 BB2          0.0000
    34 S7        -0.5474   -23.1006    17.4071 S.3        2 BB2          0.0000
    35 C8        -0.6297   -22.4741    15.8241 C.2        2 BB2          0.0000
    36 C9        -0.4397   -23.2885    14.5703 C.3        2 BB2          0.0000
    37 F10       -0.0984   -24.6009    14.9140 F          2 BB2          0.0000
    38 F11       -1.6286   -23.2936    13.8330 F          2 BB2          0.0000
    39 F12        0.5843   -22.7267    13.8002 F          2 BB2          0.0000
    40 H13       -1.2289   -19.5708    17.3990 H          2 BB2          0.0000
    41 H14       -0.9368   -21.3454    19.1875 H          2 BB2          0.0000
@<TRIPOS>BOND
     1      1      2 1
     2      2      3 1
     3      2      6 2
     4      3      4 2
     5      3     17 1
     6      4      5 1
     7      4      8 1
     8      5      6 1
     9      5     27 1
    10      6      7 1
    11      8      9 2
    12      8     10 am
    13     10     11 1
    14     10     28 1
    15     11     12 1
    16     11     18 1
    17     11     19 1
    18     12     13 1
    19     12     16 1
    20     12     20 1
    21     13     14 1
    22     13     21 1
    23     13     22 1
    24     14     15 1
    25     14     23 1
    26     14     24 1
    27     15     16 1
    28     15     25 1
    29     15     26 1
    30     29     30 2
    31     30     31 1
    32     31     32 1
    33     31     35 2
    34     32     33 2
    35     32     40 1
    36     33     34 1
    37     33     41 1
    38     34     35 1
    39     35     36 1
    40     36     37 1
    41     36     38 1
    42     36     39 1
    43     16     30 am
@<TRIPOS>SUBSTRUCTURE
     1 BB1          16
     2 BB2          30
@<TRIPOS>MOLECULE
EN300-366294_i001_EN300-223795_i001_15_11_1
  41   43   2   0   0
SMALL
USER_CHARGES
@<TRIPOS>ATOM
     1 Cl1       -1.4363   -12.1734    10.0801 Cl         1 BB1          0.0000
     2 C2        -0.3981   -13.4998    10.5000 C.2        1 BB1          0.0000
     3 C3        -0.2979   -14.0999    11.7587 C.2        1 BB1          0.0000
     4 C4         0.6371   -15.1089    11.6545 C.2        1 BB1          0.0000
     5 N5         1.0946   -15.1190    10.3546 N.pl3      1 BB1          0.0000
     6 C6         0.4558   -14.1421     9.6632 C.2        1 BB1          0.0000
     7 Cl7        0.6982   -13.7683     7.9854 Cl         1 BB1          0.0000
     8 C8         1.0661   -16.0065    12.7306 C.2        1 BB1          0.0000
     9 O9         0.8184   -15.7291    13.8895 O.2        1 BB1          0.0000
    10 N10        1.7348   -17.1391    12.4368 N.am       1 BB1          0.0000
    11 C11        2.1637   -18.0364    13.5125 C.3        1 BB1          0.0000
    12 C12        1.1264   -19.1462    13.6950 C.3        1 BB1          0.0000
    13 C13        1.3925   -20.3000    12.7043 C.3        1 BB1          0.0000
    14 C14       -0.0057   -20.7867    12.2710 C.3        1 BB1          0.0000
    15 C15       -0.9989   -19.8861    13.0363 C.3        1 BB1          0.0000
    16 N16       -0.2287   -18.6523    13.3392 N.am       1 BB1          0.0000
    17 H17       -0.8487   -13.8248    12.6461 H          1 BB1          0.0000
    18 H18        3.1266   -18.4778    13.2553 H          1 BB1          0.0000
    19 H19        2.2589   -17.4720    14.4402 H          1 BB1          0.0000
    20 H20        1.1415   -19.5147    14.7206 H          1 BB1          0.0000
    21 H21        1.9511   -19.9370    11.8417 H          1 BB1          0.0000
    22 H22        1.9373   -21.1047    13.1979 H          1 BB1          0.0000
    23 H23       -0.1333   -20.6627    11.1956 H          1 BB1          0.0000
    24 H24       -0.1472   -21.8303    12.5520 H          1 BB1          0.0000
    25 H25       -1.8603   -19.6524    12.4104 H          1 BB1          0.0000
    26 H26       -1.3186   -20.3708    13.9589 H          1 BB1          0.0000
    27 H27        1.7602   -15.7253     9.9935 H          1 BB1          0.0000
    28 H28        1.9323   -17.3602    11.5132 H          1 BB1          0.0000
    29 O1        -0.9197   -19.0954    14.7126 O.2        2 BB2          0.0000
    30 C2        -1.0077   -20.3139    14.6369 C.2        2 BB2          0.0000
    31 C4        -0.8831   -21.1350    15.8465 C.2        2 BB2          0.0000
    32 C5        -1.0226   -20.6092    17.1857 C.2        2 BB2          0.0000
    33 C6        -0.8707   -21.5327    18.1260 C.2        2 BB2          0.0000
    34 S7        -0.5474   -23.1006    17.4071 S.3        2 BB2          0.0000
    35 C8        -0.6297   -22.4741    15.8241 C.2        2 BB2          0.0000
    36 C9        -0.4397   -23.2885    14.5703 C.3        2 BB2          0.0000
    37 F10       -0.0984   -24.6009    14.9140 F          2 BB2          0.0000
    38 F11       -1.6286   -23.2936    13.8330 F          2 BB2          0.0000
    39 F12        0.5843   -22.7267    13.8002 F          2 BB2          0.0000
    40 H13       -1.2289   -19.5708    17.3990 H          2 BB2          0.0000
    41 H14       -0.9368   -21.3454    19.1875 H          2 BB2          0.0000
@<TRIPOS>BOND
     1      1      2 1
     2      2      3 1
     3      2      6 2
     4      3      4 2
     5      3     17 1
     6      4      5 1
     7      4      8 1
     8      5      6 1
     9      5     27 1
    10      6      7 1
    11      8      9 2
    12      8     10 am
    13     10     11 1
    14     10     28 1
    15     11     12 1
    16     11     18 1
    17     11     19 1
    18     12     13 1
    19     12     16 1
    20     12     20 1
    21     13     14 1
    22     13     21 1
    23     13     22 1
    24     14     15 1
    25     14     23 1
    26     14     24 1
    27     15     16 1
    28     15     25 1
    29     15     26 1
    30     29     30 2
    31     30     31 1
    32     31     32 1
    33     31     35 2
    34     32     33 2
    35     32     40 1
    36     33     34 1
    37     33     41 1
    38     34     35 1
    39     35     36 1
    40     36     37 1
    41     36     38 1
    42     36     39 1
    43     16     30 am
@<TRIPOS>SUBSTRUCTURE
     1 BB1          16
     2 BB2          30
@<TRIPOS>MOLECULE
EN300-366294_i001_EN300-1231025_i001_17_3_1
  43   44   2   0   0
SMALL
USER_CHARGES
@<TRIPOS>ATOM
     1 Cl1        1.6903   -21.5322    14.0554 Cl         1 BB1          0.0000
     2 C2         0.7923   -20.0474    14.0036 C.2        1 BB1          0.0000
     3 C3         1.2585   -18.8201    13.5234 C.2        1 BB1          0.0000
     4 C4         0.2300   -17.9115    13.6642 C.2        1 BB1          0.0000
     5 N5        -0.8403   -18.5782    14.2202 N.pl3      1 BB1          0.0000
     6 C6        -0.4887   -19.8737    14.4168 C.2        1 BB1          0.0000
     7 Cl7       -1.5073   -21.1050    15.0948 Cl         1 BB1          0.0000
     8 C8         0.2687   -16.4950    13.2908 C.2        1 BB1          0.0000
     9 O9         0.6551   -15.6647    14.0924 O.2        1 BB1          0.0000
    10 N10       -0.1233   -16.1117    12.0596 N.am       1 BB1          0.0000
    11 C11       -0.0846   -14.6956    11.6863 C.3        1 BB1          0.0000
    12 C12        0.7704   -14.5227    10.4293 C.3        1 BB1          0.0000
    13 C13        0.4276   -13.1929     9.7237 C.3        1 BB1          0.0000
    14 C14        0.5094   -13.5067     8.2156 C.3        1 BB1          0.0000
    15 C15        0.8947   -14.9996     8.1368 C.3        1 BB1          0.0000
    16 N16        0.4413   -15.5720     9.4305 N.am       1 BB1          0.0000
    17 H17        2.2398   -18.6206    13.1185 H          1 BB1          0.0000
    18 H18       -1.0973   -14.3442    11.4881 H          1 BB1          0.0000
    19 H19        0.3477   -14.1164    12.5023 H          1 BB1          0.0000
    20 H20        1.8297   -14.5561    10.6834 H          1 BB1          0.0000
    21 H21       -0.5796   -12.8720     9.9895 H          1 BB1          0.0000
    22 H22        1.1534   -12.4248     9.9906 H          1 BB1          0.0000
    23 H23       -0.4576   -13.3397     7.7411 H          1 BB1          0.0000
    24 H24        1.2754   -12.8926     7.7422 H          1 BB1          0.0000
    25 H25        0.3794   -15.4819     7.3062 H          1 BB1          0.0000
    26 H26        1.9741   -15.1085     8.0304 H          1 BB1          0.0000
    27 H27       -1.7021   -18.1871    14.4329 H          1 BB1          0.0000
    28 H28       -0.4312   -16.7734    11.4206 H          1 BB1          0.0000
    29 O1         0.7014   -10.8759     9.2299 O.3        2 BB2          0.0000
    30 C2        -0.2704   -11.6359     8.5090 C.3        2 BB2          0.0000
    31 C3        -1.5543   -11.7366     9.3350 C.3        2 BB2          0.0000
    32 C4        -2.1014   -10.3326     9.6005 C.3        2 BB2          0.0000
    33 C5        -3.5041   -10.4270    10.0366 C.1        2 BB2          0.0000
    34 C6        -4.6229   -10.5023    10.3844 C.1        2 BB2          0.0000
    35 C7         0.2676   -13.0189     8.2461 C.2        2 BB2          0.0000
    36 O8         0.5418   -13.7539     9.1794 O.2        2 BB2          0.0000
    37 H10       -0.4862   -11.1437     7.5606 H          2 BB2          0.0000
    38 H11       -2.2952   -12.3174     8.7856 H          2 BB2          0.0000
    39 H12       -1.3383   -12.2278    10.2838 H          2 BB2          0.0000
    40 H13       -1.5098    -9.8538    10.3807 H          2 BB2          0.0000
    41 H14       -2.0440    -9.7415     8.6865 H          2 BB2          0.0000
    42 H15       -5.6235   -10.5697    10.6955 H          2 BB2          0.0000
    43 H16        0.8701    -9.9993     8.8580 H          2 BB2          0.0000
@<TRIPOS>BOND
     1      1      2 1
     2      2      3 1
     3      2      6 2
     4      3      4 2
     5      3     17 1
     6      4      5 1
     7      4      8 1
     8      5      6 1
     9      5     27 1
    10      6      7 1
    11      8      9 2
    12      8     10 am
    13     10     11 1
    14     10     28 1
    15     11     12 1
    16     11     18 1
    17     11     19 1
    18     12     13 1
    19     12     16 1
    20     12     20 1
    21     13     14 1
    22     13     21 1
    23     13     22 1
    24     14     15 1
    25     14     23 1
    26     14     24 1
    27     15     16 1
    28     15     25 1
    29     15     26 1
    30     29     30 1
    31     29     43 1
    32     30     31 1
    33     30     35 1
    34     30     37 1
    35     31     32 1
    36     31     38 1
    37     31     39 1
    38     32     33 1
    39     32     40 1
    40     32     41 1
    41     33     34 3
    42     34     42 1
    43     35     36 2
    44     16     35 am
@<TRIPOS>SUBSTRUCTURE
     1 BB1          16
     2 BB2          35
@<TRIPOS>MOLECULE
EN300-366294_i001_EN300-1659128_i002_6_12_1
  66   68   2   0   0
SMALL
USER_CHARGES
@<TRIPOS>ATOM
     1 Cl1        1.1000   -12.5837     6.5964 Cl         1 BB1          0.0000
     2 C2         0.7385   -13.5867     7.9664 C.2        1 BB1          0.0000
     3 C3         0.3424   -13.1412     9.2308 C.2        1 BB1          0.0000
     4 C4         0.1589   -14.2599    10.0168 C.2        1 BB1          0.0000
     5 N5         0.4394   -15.3637     9.2408 N.pl3      1 BB1          0.0000
     6 C6         0.7848   -14.9428     7.9982 C.2        1 BB1          0.0000
     7 Cl7        1.2236   -15.9700     6.6693 Cl         1 BB1          0.0000
     8 C8        -0.2580   -14.2724    11.4217 C.2        1 BB1          0.0000
     9 O9        -1.0009   -13.4056    11.8437 O.2        1 BB1          0.0000
    10 N10        0.1812   -15.2438    12.2463 N.am       1 BB1          0.0000
    11 C11       -0.2355   -15.2563    13.6507 C.3        1 BB1          0.0000
    12 C12        0.1299   -16.6026    14.2792 C.3        1 BB1          0.0000
    13 C13        1.6607   -16.8026    14.2713 C.3        1 BB1          0.0000
    14 C14        1.8673   -18.3030    13.9785 C.3        1 BB1          0.0000
    15 C15        0.4441   -18.8833    13.8340 C.3        1 BB1          0.0000
    16 N16       -0.3979   -17.7197    13.4542 N.am       1 BB1          0.0000
    17 H17        0.2059   -12.1139     9.5352 H          1 BB1          0.0000
    18 H18        0.2723   -14.4550    14.1876 H          1 BB1          0.0000
    19 H19       -1.3137   -15.1078    13.7111 H          1 BB1          0.0000
    20 H20       -0.2562   -16.6636    15.2966 H          1 BB1          0.0000
    21 H21        2.1175   -16.1977    13.4881 H          1 BB1          0.0000
    22 H22        2.0811   -16.5452    15.2434 H          1 BB1          0.0000
    23 H23        2.4257   -18.4345    13.0516 H          1 BB1          0.0000
    24 H24        2.3892   -18.7821    14.8069 H          1 BB1          0.0000
    25 H25        0.4202   -19.6414    13.0513 H          1 BB1          0.0000
    26 H26        0.1068   -19.3033    14.7817 H          1 BB1          0.0000
    27 H27        0.3945   -16.2874     9.5333 H          1 BB1          0.0000
    28 H28        0.7733   -15.9346    11.9099 H          1 BB1          0.0000
    29 C1        -0.0973   -20.4626    19.6198 C.3        2 BB2          0.0000
    30 C2        -1.5734   -20.7388    19.3276 C.3        2 BB2          0.0000
    31 C3        -2.1857   -21.5219    20.4908 C.3        2 BB2          0.0000
    32 C4        -2.3168   -19.4124    19.1584 C.3        2 BB2          0.0000
    33 O5        -1.6878   -21.5170    18.1071 O.3        2 BB2          0.0000
    34 C6        -1.0905   -21.0205    17.0073 C.2        2 BB2          0.0000
    35 O7        -0.6865   -19.8745    17.0003 O.2        2 BB2          0.0000
    36 N8        -0.9408   -21.7945    15.9142 N.am       2 BB2          0.0000
    37 C9        -1.3095   -23.2163    15.9474 C.3        2 BB2          0.0000
    38 C10       -0.1118   -24.0475    15.4769 C.3        2 BB2          0.0000
    39 C11        0.3426   -23.5480    14.1036 C.3        2 BB2          0.0000
    40 C12        0.7814   -22.0857    14.2102 C.3        2 BB2          0.0000
    41 C13       -0.4114   -21.2311    14.6648 C.3        2 BB2          0.0000
    42 C14       -1.4958   -21.2486    13.5855 C.3        2 BB2          0.0000
    43 C15       -0.8790   -21.0315    12.2667 C.1        2 BB2          0.0000
    44 C16       -0.3870   -20.8584    11.2149 C.1        2 BB2          0.0000
    45 C17        0.0441   -19.8147    14.9044 C.2        2 BB2          0.0000
    46 O19       -0.7199   -18.8863    14.7022 O.2        2 BB2          0.0000
    47 H20        0.4323   -21.4076    19.7404 H          2 BB2          0.0000
    48 H21        0.3390   -19.9048    18.7912 H          2 BB2          0.0000
    49 H22       -0.0114   -19.8785    20.5361 H          2 BB2          0.0000
    50 H23       -2.0999   -20.9377    21.4071 H          2 BB2          0.0000
    51 H24       -3.2375   -21.7187    20.2826 H          2 BB2          0.0000
    52 H25       -1.6562   -22.4668    20.6114 H          2 BB2          0.0000
    53 H26       -1.8806   -18.8546    18.3296 H          2 BB2          0.0000
    54 H27       -3.3685   -19.6092    18.9501 H          2 BB2          0.0000
    55 H28       -2.2310   -18.8282    20.0747 H          2 BB2          0.0000
    56 H29       -1.5746   -23.5014    16.9656 H          2 BB2          0.0000
    57 H30       -2.1574   -23.3896    15.2849 H          2 BB2          0.0000
    58 H31        0.7056   -23.9440    16.1905 H          2 BB2          0.0000
    59 H32       -0.4021   -25.0957    15.4050 H          2 BB2          0.0000
    60 H33        1.1793   -24.1537    13.7554 H          2 BB2          0.0000
    61 H34       -0.4830   -23.6287    13.3964 H          2 BB2          0.0000
    62 H35        1.5904   -22.0008    14.9357 H          2 BB2          0.0000
    63 H36        1.1269   -21.7377    13.2367 H          2 BB2          0.0000
    64 H37       -2.0025   -22.2136    13.5952 H          2 BB2          0.0000
    65 H38       -2.2182   -20.4568    13.7835 H          2 BB2          0.0000
    66 H39        0.0530   -20.7036    10.2742 H          2 BB2          0.0000
@<TRIPOS>BOND
     1      1      2 1
     2      2      3 1
     3      2      6 2
     4      3      4 2
     5      3     17 1
     6      4      5 1
     7      4      8 1
     8      5      6 1
     9      5     27 1
    10      6      7 1
    11      8      9 2
    12      8     10 am
    13     10     11 1
    14     10     28 1
    15     11     12 1
    16     11     18 1
    17     11     19 1
    18     12     13 1
    19     12     16 1
    20     12     20 1
    21     13     14 1
    22     13     21 1
    23     13     22 1
    24     14     15 1
    25     14     23 1
    26     14     24 1
    27     15     16 1
    28     15     25 1
    29     15     26 1
    30     29     30 1
    31     29     47 1
    32     29     48 1
    33     29     49 1
    34     30     31 1
    35     30     32 1
    36     30     33 1
    37     31     50 1
    38     31     51 1
    39     31     52 1
    40     32     53 1
    41     32     54 1
    42     32     55 1
    43     33     34 1
    44     34     35 2
    45     34     36 am
    46     36     37 1
    47     36     41 1
    48     37     38 1
    49     37     56 1
    50     37     57 1
    51     38     39 1
    52     38     58 1
    53     38     59 1
    54     39     40 1
    55     39     60 1
    56     39     61 1
    57     40     41 1
    58     40     62 1
    59     40     63 1
    60     41     42 1
    61     41     45 1
    62     42     43 1
    63     42     64 1
    64     42     65 1
    65     43     44 3
    66     44     66 1
    67     45     46 2
    68     16     45 am
@<TRIPOS>SUBSTRUCTURE
     1 BB1          16
     2 BB2          45
@<TRIPOS>MOLECULE
EN300-366294_i001_EN300-107901_i001_6_14_1
  54   57   2   0   0
SMALL
USER_CHARGES
@<TRIPOS>ATOM
     1 Cl1        1.1000   -12.5837     6.5964 Cl         1 BB1          0.0000
     2 C2         0.7385   -13.5867     7.9664 C.2        1 BB1          0.0000
     3 C3         0.3424   -13.1412     9.2308 C.2        1 BB1          0.0000
     4 C4         0.1589   -14.2599    10.0168 C.2        1 BB1          0.0000
     5 N5         0.4394   -15.3637     9.2408 N.pl3      1 BB1          0.0000
     6 C6         0.7848   -14.9428     7.9982 C.2        1 BB1          0.0000
     7 Cl7        1.2236   -15.9700     6.6693 Cl         1 BB1          0.0000
     8 C8        -0.2580   -14.2724    11.4217 C.2        1 BB1          0.0000
     9 O9        -1.0009   -13.4056    11.8437 O.2        1 BB1          0.0000
    10 N10        0.1812   -15.2438    12.2463 N.am       1 BB1          0.0000
    11 C11       -0.2355   -15.2563    13.6507 C.3        1 BB1          0.0000
    12 C12        0.1299   -16.6026    14.2792 C.3        1 BB1          0.0000
    13 C13        1.6607   -16.8026    14.2713 C.3        1 BB1          0.0000
    14 C14        1.8673   -18.3030    13.9785 C.3        1 BB1          0.0000
    15 C15        0.4441   -18.8833    13.8340 C.3        1 BB1          0.0000
    16 N16       -0.3979   -17.7197    13.4542 N.am       1 BB1          0.0000
    17 H17        0.2059   -12.1139     9.5352 H          1 BB1          0.0000
    18 H18        0.2723   -14.4550    14.1876 H          1 BB1          0.0000
    19 H19       -1.3137   -15.1078    13.7111 H          1 BB1          0.0000
    20 H20       -0.2562   -16.6636    15.2966 H          1 BB1          0.0000
    21 H21        2.1175   -16.1977    13.4881 H          1 BB1          0.0000
    22 H22        2.0811   -16.5452    15.2434 H          1 BB1          0.0000
    23 H23        2.4257   -18.4345    13.0516 H          1 BB1          0.0000
    24 H24        2.3892   -18.7821    14.8069 H          1 BB1          0.0000
    25 H25        0.4202   -19.6414    13.0513 H          1 BB1          0.0000
    26 H26        0.1068   -19.3033    14.7817 H          1 BB1          0.0000
    27 H27        0.3945   -16.2874     9.5333 H          1 BB1          0.0000
    28 H28        0.7733   -15.9346    11.9099 H          1 BB1          0.0000
    29 O1        -1.1044   -18.9616    12.9522 O.2        2 BB2          0.0000
    30 C2        -0.2112   -19.3730    13.6728 C.2        2 BB2          0.0000
    31 C4         0.9797   -20.0451    13.0754 C.3        2 BB2          0.0000
    32 C5         0.7789   -21.1029    12.0033 C.3        2 BB2          0.0000
    33 C6        -0.6011   -21.4491    11.5202 C.3        2 BB2          0.0000
    34 C7        -1.0687   -22.8022    12.1671 C.3        2 BB2          0.0000
    35 C8        -2.1119   -22.2542    13.2046 C.3        2 BB2          0.0000
    36 C9        -1.6431   -21.8882    14.5934 C.3        2 BB2          0.0000
    37 C10       -0.2703   -21.9777    15.1628 C.3        2 BB2          0.0000
    38 C11        0.7467   -22.5237    14.1819 C.3        2 BB2          0.0000
    39 C12        1.4004   -21.4658    13.3283 C.3        2 BB2          0.0000
    40 H13        1.8063   -19.3226    12.8705 H          2 BB2          0.0000
    41 H14        1.4998   -21.0308    11.1347 H          2 BB2          0.0000
    42 H15       -1.3314   -20.6776    11.7382 H          2 BB2          0.0000
    43 H16       -0.5859   -21.6033    10.4298 H          2 BB2          0.0000
    44 H17       -1.6564   -23.3338    11.3862 H          2 BB2          0.0000
    45 H18       -0.3114   -23.4212    12.4973 H          2 BB2          0.0000
    46 H19       -2.5982   -21.3894    12.7428 H          2 BB2          0.0000
    47 H20       -2.8869   -23.0314    13.2890 H          2 BB2          0.0000
    48 H21       -2.0404   -20.8695    14.8077 H          2 BB2          0.0000
    49 H22       -2.2938   -22.4998    15.2815 H          2 BB2          0.0000
    50 H23        0.0623   -21.0182    15.5960 H          2 BB2          0.0000
    51 H24       -0.2987   -22.6555    16.0572 H          2 BB2          0.0000
    52 H25        1.5953   -22.9279    14.8520 H          2 BB2          0.0000
    53 H26        0.4807   -23.4678    13.7322 H          2 BB2          0.0000
    54 H27        2.5427   -21.6098    13.3168 H          2 BB2          0.0000
@<TRIPOS>BOND
     1      1      2 1
     2      2      3 1
     3      2      6 2
     4      3      4 2
     5      3     17 1
     6      4      5 1
     7      4      8 1
     8      5      6 1
     9      5     27 1
    10      6      7 1
    11      8      9 2
    12      8     10 am
    13     10     11 1
    14     10     28 1
    15     11     12 1
    16     11     18 1
    17     11     19 1
    18     12     13 1
    19     12     16 1
    20     12     20 1
    21     13     14 1
    22     13     21 1
    23     13     22 1
    24     14     15 1
    25     14     23 1
    26     14     24 1
    27     15     16 1
    28     15     25 1
    29     15     26 1
    30     29     30 2
    31     30     31 1
    32     31     32 1
    33     31     39 1
    34     31     40 1
    35     32     33 1
    36     32     39 1
    37     32     41 1
    38     33     34 1
    39     33     42 1
    40     33     43 1
    41     34     35 1
    42     34     44 1
    43     34     45 1
    44     35     36 1
    45     35     46 1
    46     35     47 1
    47     36     37 1
    48     36     48 1
    49     36     49 1
    50     37     38 1
    51     37     50 1
    52     37     51 1
    53     38     39 1
    54     38     52 1
    55     38     53 1
    56     39     54 1
    57     16     30 am
@<TRIPOS>SUBSTRUCTURE
     1 BB1          16
     2 BB2          30
@<TRIPOS>MOLECULE
EN300-366294_i001_EN300-107901_i001_6_19_1
  54   57   2   0   0
SMALL
USER_CHARGES
@<TRIPOS>ATOM
     1 Cl1        1.1000   -12.5837     6.5964 Cl         1 BB1          0.0000
     2 C2         0.7385   -13.5867     7.9664 C.2        1 BB1          0.0000
     3 C3         0.3424   -13.1412     9.2308 C.2        1 BB1          0.0000
     4 C4         0.1589   -14.2599    10.0168 C.2        1 BB1          0.0000
     5 N5         0.4394   -15.3637     9.2408 N.pl3      1 BB1          0.0000
     6 C6         0.7848   -14.9428     7.9982 C.2        1 BB1          0.0000
     7 Cl7        1.2236   -15.9700     6.6693 Cl         1 BB1          0.0000
     8 C8        -0.2580   -14.2724    11.4217 C.2        1 BB1          0.0000
     9 O9        -1.0009   -13.4056    11.8437 O.2        1 BB1          0.0000
    10 N10        0.1812   -15.2438    12.2463 N.am       1 BB1          0.0000
    11 C11       -0.2355   -15.2563    13.6507 C.3        1 BB1          0.0000
    12 C12        0.1299   -16.6026    14.2792 C.3        1 BB1          0.0000
    13 C13        1.6607   -16.8026    14.2713 C.3        1 BB1          0.0000
    14 C14        1.8673   -18.3030    13.9785 C.3        1 BB1          0.0000
    15 C15        0.4441   -18.8833    13.8340 C.3        1 BB1          0.0000
    16 N16       -0.3979   -17.7197    13.4542 N.am       1 BB1          0.0000
    17 H17        0.2059   -12.1139     9.5352 H          1 BB1          0.0000
    18 H18        0.2723   -14.4550    14.1876 H          1 BB1          0.0000
    19 H19       -1.3137   -15.1078    13.7111 H          1 BB1          0.0000
    20 H20       -0.2562   -16.6636    15.2966 H          1 BB1          0.0000
    21 H21        2.1175   -16.1977    13.4881 H          1 BB1          0.0000
    22 H22        2.0811   -16.5452    15.2434 H          1 BB1          0.0000
    23 H23        2.4257   -18.4345    13.0516 H          1 BB1          0.0000
    24 H24        2.3892   -18.7821    14.8069 H          1 BB1          0.0000
    25 H25        0.4202   -19.6414    13.0513 H          1 BB1          0.0000
    26 H26        0.1068   -19.3033    14.7817 H          1 BB1          0.0000
    27 H27        0.3945   -16.2874     9.5333 H          1 BB1          0.0000
    28 H28        0.7733   -15.9346    11.9099 H          1 BB1          0.0000
    29 O1        -1.1676   -19.0126    14.1046 O.2        2 BB2          0.0000
    30 C2        -0.1559   -19.4933    14.5861 C.2        2 BB2          0.0000
    31 C4         1.0999   -19.5483    13.7818 C.3        2 BB2          0.0000
    32 C5         1.0415   -20.0240    12.3400 C.3        2 BB2          0.0000
    33 C6        -0.2701   -20.4042    11.7132 C.3        2 BB2          0.0000
    34 C7        -0.4011   -21.9687    11.6579 C.3        2 BB2          0.0000
    35 C8        -1.4547   -22.1878    12.8011 C.3        2 BB2          0.0000
    36 C9        -0.9692   -22.3961    14.2165 C.3        2 BB2          0.0000
    37 C10        0.4310   -22.4336    14.7210 C.3        2 BB2          0.0000
    38 C11        1.4628   -22.2440    13.6284 C.3        2 BB2          0.0000
    39 C12        1.8206   -20.8016    13.3704 C.3        2 BB2          0.0000
    40 H13        1.7433   -18.6515    13.9527 H          2 BB2          0.0000
    41 H14        1.6659   -19.4138    11.6209 H          2 BB2          0.0000
    42 H15       -1.1249   -19.9924    12.2384 H          2 BB2          0.0000
    43 H16       -0.3045   -20.0425    10.6735 H          2 BB2          0.0000
    44 H17       -0.9234   -22.2038    10.7041 H          2 BB2          0.0000
    45 H18        0.4895   -22.4899    11.6906 H          2 BB2          0.0000
    46 H19       -2.1408   -21.3358    12.7711 H          2 BB2          0.0000
    47 H20       -2.0453   -23.0664    12.4995 H          2 BB2          0.0000
    48 H21       -1.5501   -21.6966    14.8607 H          2 BB2          0.0000
    49 H22       -1.4280   -23.3767    14.5310 H          2 BB2          0.0000
    50 H23        0.5909   -21.7263    15.5536 H          2 BB2          0.0000
    51 H24        0.6086   -23.4301    15.2064 H          2 BB2          0.0000
    52 H25        2.4235   -22.7128    14.0640 H          2 BB2          0.0000
    53 H26        1.3636   -22.9161    12.7901 H          2 BB2          0.0000
    54 H27        2.9640   -20.6740    13.3270 H          2 BB2          0.0000
@<TRIPOS>BOND
     1      1      2 1
     2      2      3 1
     3      2      6 2
     4      3      4 2
     5      3     17 1
     6      4      5 1
     7      4      8 1
     8      5      6 1
     9      5     27 1
    10      6      7 1
    11      8      9 2
    12      8     10 am
    13     10     11 1
    14     10     28 1
    15     11     12 1
    16     11     18 1
    17     11     19 1
    18     12     13 1
    19     12     16 1
    20     12     20 1
    21     13     14 1
    22     13     21 1
    23     13     22 1
    24     14     15 1
    25     14     23 1
    26     14     24 1
    27     15     16 1
    28     15     25 1
    29     15     26 1
    30     29     30 2
    31     30     31 1
    32     31     32 1
    33     31     39 1
    34     31     40 1
    35     32     33 1
    36     32     39 1
    37     32     41 1
    38     33     34 1
    39     33     42 1
    40     33     43 1
    41     34     35 1
    42     34     44 1
    43     34     45 1
    44     35     36 1
    45     35     46 1
    46     35     47 1
    47     36     37 1
    48     36     48 1
    49     36     49 1
    50     37     38 1
    51     37     50 1
    52     37     51 1
    53     38     39 1
    54     38     52 1
    55     38     53 1
    56     39     54 1
    57     16     30 am
@<TRIPOS>SUBSTRUCTURE
     1 BB1          16
     2 BB2          30
@<TRIPOS>MOLECULE
EN300-366294_i001_EN300-107901_i001_6_4_1
  54   57   2   0   0
SMALL
USER_CHARGES
@<TRIPOS>ATOM
     1 Cl1        1.1000   -12.5837     6.5964 Cl         1 BB1          0.0000
     2 C2         0.7385   -13.5867     7.9664 C.2        1 BB1          0.0000
     3 C3         0.3424   -13.1412     9.2308 C.2        1 BB1          0.0000
     4 C4         0.1589   -14.2599    10.0168 C.2        1 BB1          0.0000
     5 N5         0.4394   -15.3637     9.2408 N.pl3      1 BB1          0.0000
     6 C6         0.7848   -14.9428     7.9982 C.2        1 BB1          0.0000
     7 Cl7        1.2236   -15.9700     6.6693 Cl         1 BB1          0.0000
     8 C8        -0.2580   -14.2724    11.4217 C.2        1 BB1          0.0000
     9 O9        -1.0009   -13.4056    11.8437 O.2        1 BB1          0.0000
    10 N10        0.1812   -15.2438    12.2463 N.am       1 BB1          0.0000
    11 C11       -0.2355   -15.2563    13.6507 C.3        1 BB1          0.0000
    12 C12        0.1299   -16.6026    14.2792 C.3        1 BB1          0.0000
    13 C13        1.6607   -16.8026    14.2713 C.3        1 BB1          0.0000
    14 C14        1.8673   -18.3030    13.9785 C.3        1 BB1          0.0000
    15 C15        0.4441   -18.8833    13.8340 C.3        1 BB1          0.0000
    16 N16       -0.3979   -17.7197    13.4542 N.am       1 BB1          0.0000
    17 H17        0.2059   -12.1139     9.5352 H          1 BB1          0.0000
    18 H18        0.2723   -14.4550    14.1876 H          1 BB1          0.0000
    19 H19       -1.3137   -15.1078    13.7111 H          1 BB1          0.0000
    20 H20       -0.2562   -16.6636    15.2966 H          1 BB1          0.0000
    21 H21        2.1175   -16.1977    13.4881 H          1 BB1          0.0000
    22 H22        2.0811   -16.5452    15.2434 H          1 BB1          0.0000
    23 H23        2.4257   -18.4345    13.0516 H          1 BB1          0.0000
    24 H24        2.3892   -18.7821    14.8069 H          1 BB1          0.0000
    25 H25        0.4202   -19.6414    13.0513 H          1 BB1          0.0000
    26 H26        0.1068   -19.3033    14.7817 H          1 BB1          0.0000
    27 H27        0.3945   -16.2874     9.5333 H          1 BB1          0.0000
    28 H28        0.7733   -15.9346    11.9099 H          1 BB1          0.0000
    29 C2        -0.1757   -20.1825    14.8338 C.2        2 BB2          0.0000
    30 O3        -1.0162   -19.5014    14.2715 O.2        2 BB2          0.0000
    31 C4         1.0432   -20.6241    14.0949 C.3        2 BB2          0.0000
    32 C5         0.8990   -21.2030    12.6975 C.3        2 BB2          0.0000
    33 C6        -0.4517   -21.3010    12.0465 C.3        2 BB2          0.0000
    34 C7        -0.9722   -22.7814    12.1185 C.3        2 BB2          0.0000
    35 C8        -2.0724   -22.6227    13.2273 C.3        2 BB2          0.0000
    36 C9        -1.6873   -22.8119    14.6758 C.3        2 BB2          0.0000
    37 C10       -0.3536   -23.1502    15.2446 C.3        2 BB2          0.0000
    38 C11        0.7170   -23.3272    14.1877 C.3        2 BB2          0.0000
    39 C12        1.4331   -22.0503    13.8246 C.3        2 BB2          0.0000
    40 H13        1.8882   -19.9042    14.2180 H          2 BB2          0.0000
    41 H14        1.6733   -20.8380    11.9582 H          2 BB2          0.0000
    42 H15       -1.1863   -20.6416    12.4956 H          2 BB2          0.0000
    43 H16       -0.3701   -21.0412    10.9794 H          2 BB2          0.0000
    44 H17       -1.5153   -22.9670    11.1655 H          2 BB2          0.0000
    45 H18       -0.2431   -23.5029    12.2358 H          2 BB2          0.0000
    46 H19       -2.5203   -21.6331    13.0939 H          2 BB2          0.0000
    47 H20       -2.8589   -23.3504    12.9750 H          2 BB2          0.0000
    48 H21       -2.0870   -21.9325    15.2312 H          2 BB2          0.0000
    49 H22       -2.3857   -23.6132    15.0514 H          2 BB2          0.0000
    50 H23       -0.0390   -22.4303    16.0205 H          2 BB2          0.0000
    51 H24       -0.4444   -24.1095    15.8205 H          2 BB2          0.0000
    52 H25        1.5181   -23.9779    14.7047 H          2 BB2          0.0000
    53 H26        0.4701   -24.0288    13.4060 H          2 BB2          0.0000
    54 H27        2.5724   -22.2167    13.8223 H          2 BB2          0.0000
@<TRIPOS>BOND
     1      1      2 1
     2      2      3 1
     3      2      6 2
     4      3      4 2
     5      3     17 1
     6      4      5 1
     7      4      8 1
     8      5      6 1
     9      5     27 1
    10      6      7 1
    11      8      9 2
    12      8     10 am
    13     10     11 1
    14     10     28 1
    15     11     12 1
    16     11     18 1
    17     11     19 1
    18     12     13 1
    19     12     16 1
    20     12     20 1
    21     13     14 1
    22     13     21 1
    23     13     22 1
    24     14     15 1
    25     14     23 1
    26     14     24 1
    27     15     16 1
    28     15     25 1
    29     15     26 1
    30     29     30 2
    31     29     31 1
    32     31     32 1
    33     31     39 1
    34     31     40 1
    35     32     33 1
    36     32     39 1
    37     32     41 1
    38     33     34 1
    39     33     42 1
    40     33     43 1
    41     34     35 1
    42     34     44 1
    43     34     45 1
    44     35     36 1
    45     35     46 1
    46     35     47 1
    47     36     37 1
    48     36     48 1
    49     36     49 1
    50     37     38 1
    51     37     50 1
    52     37     51 1
    53     38     39 1
    54     38     52 1
    55     38     53 1
    56     39     54 1
    57     16     29 am
@<TRIPOS>SUBSTRUCTURE
     1 BB1          16
     2 BB2          29
@<TRIPOS>MOLECULE
EN300-366294_i001_EN300-701715_i002_6_16_1
  54   56   2   0   0
SMALL
USER_CHARGES
@<TRIPOS>ATOM
     1 Cl1        1.1000   -12.5837     6.5964 Cl         1 BB1          0.0000
     2 C2         0.7385   -13.5867     7.9664 C.2        1 BB1          0.0000
     3 C3         0.3424   -13.1412     9.2308 C.2        1 BB1          0.0000
     4 C4         0.1589   -14.2599    10.0168 C.2        1 BB1          0.0000
     5 N5         0.4394   -15.3637     9.2408 N.pl3      1 BB1          0.0000
     6 C6         0.7848   -14.9428     7.9982 C.2        1 BB1          0.0000
     7 Cl7        1.2236   -15.9700     6.6693 Cl         1 BB1          0.0000
     8 C8        -0.2580   -14.2724    11.4217 C.2        1 BB1          0.0000
     9 O9        -1.0009   -13.4056    11.8437 O.2        1 BB1          0.0000
    10 N10        0.1812   -15.2438    12.2463 N.am       1 BB1          0.0000
    11 C11       -0.2355   -15.2563    13.6507 C.3        1 BB1          0.0000
    12 C12        0.1299   -16.6026    14.2792 C.3        1 BB1          0.0000
    13 C13        1.6607   -16.8026    14.2713 C.3        1 BB1          0.0000
    14 C14        1.8673   -18.3030    13.9785 C.3        1 BB1          0.0000
    15 C15        0.4441   -18.8833    13.8340 C.3        1 BB1          0.0000
    16 N16       -0.3979   -17.7197    13.4542 N.am       1 BB1          0.0000
    17 H17        0.2059   -12.1139     9.5352 H          1 BB1          0.0000
    18 H18        0.2723   -14.4550    14.1876 H          1 BB1          0.0000
    19 H19       -1.3137   -15.1078    13.7111 H          1 BB1          0.0000
    20 H20       -0.2562   -16.6636    15.2966 H          1 BB1          0.0000
    21 H21        2.1175   -16.1977    13.4881 H          1 BB1          0.0000
    22 H22        2.0811   -16.5452    15.2434 H          1 BB1          0.0000
    23 H23        2.4257   -18.4345    13.0516 H          1 BB1          0.0000
    24 H24        2.3892   -18.7821    14.8069 H          1 BB1          0.0000
    25 H25        0.4202   -19.6414    13.0513 H          1 BB1          0.0000
    26 H26        0.1068   -19.3033    14.7817 H          1 BB1          0.0000
    27 H27        0.3945   -16.2874     9.5333 H          1 BB1          0.0000
    28 H28        0.7733   -15.9346    11.9099 H          1 BB1          0.0000
    29 C1         1.5656   -20.4102    12.1067 C.3        2 BB2          0.0000
    30 O2         0.3911   -21.1894    12.3422 O.3        2 BB2          0.0000
    31 C3        -0.0557   -21.1717    13.6994 C.3        2 BB2          0.0000
    32 C4         0.9539   -21.9124    14.5784 C.3        2 BB2          0.0000
    33 C5         1.0793   -23.3608    14.1016 C.3        2 BB2          0.0000
    34 C6        -0.2835   -24.0495    14.1988 C.3        2 BB2          0.0000
    35 C7        -1.2932   -23.3088    13.3198 C.3        2 BB2          0.0000
    36 C8        -2.6559   -23.9974    13.4171 C.3        2 BB2          0.0000
    37 C9        -1.4185   -21.8603    13.7966 C.3        2 BB2          0.0000
    38 C10       -0.1792   -19.7450    14.1690 C.2        2 BB2          0.0000
    39 O12       -0.9629   -18.9885    13.6211 O.2        2 BB2          0.0000
    40 H13        2.3829   -20.7907    12.7193 H          2 BB2          0.0000
    41 H14        1.8400   -20.4755    11.0538 H          2 BB2          0.0000
    42 H15        1.3699   -19.3701    12.3674 H          2 BB2          0.0000
    43 H16        1.9248   -21.4218    14.5091 H          2 BB2          0.0000
    44 H17        0.6131   -21.8989    15.6136 H          2 BB2          0.0000
    45 H18        1.4201   -23.3743    13.0663 H          2 BB2          0.0000
    46 H19        1.7986   -23.8885    14.7278 H          2 BB2          0.0000
    47 H20       -0.1942   -25.0813    13.8592 H          2 BB2          0.0000
    48 H21       -0.6243   -24.0360    15.2341 H          2 BB2          0.0000
    49 H22       -0.9523   -23.3222    12.2846 H          2 BB2          0.0000
    50 H23       -2.9968   -23.9840    14.4523 H          2 BB2          0.0000
    51 H24       -3.3753   -23.4697    12.7908 H          2 BB2          0.0000
    52 H25       -2.5666   -25.0294    13.0774 H          2 BB2          0.0000
    53 H26       -1.7594   -21.8469    14.8319 H          2 BB2          0.0000
    54 H27       -2.1379   -21.3326    13.1704 H          2 BB2          0.0000
@<TRIPOS>BOND
     1      1      2 1
     2      2      3 1
     3      2      6 2
     4      3      4 2
     5      3     17 1
     6      4      5 1
     7      4      8 1
     8      5      6 1
     9      5     27 1
    10      6      7 1
    11      8      9 2
    12      8     10 am
    13     10     11 1
    14     10     28 1
    15     11     12 1
    16     11     18 1
    17     11     19 1
    18     12     13 1
    19     12     16 1
    20     12     20 1
    21     13     14 1
    22     13     21 1
    23     13     22 1
    24     14     15 1
    25     14     23 1
    26     14     24 1
    27     15     16 1
    28     15     25 1
    29     15     26 1
    30     29     30 1
    31     29     40 1
    32     29     41 1
    33     29     42 1
    34     30     31 1
    35     31     32 1
    36     31     37 1
    37     31     38 1
    38     32     33 1
    39     32     43 1
    40     32     44 1
    41     33     34 1
    42     33     45 1
    43     33     46 1
    44     34     35 1
    45     34     47 1
    46     34     48 1
    47     35     36 1
    48     35     37 1
    49     35     49 1
    50     36     50 1
    51     36     51 1
    52     36     52 1
    53     37     53 1
    54     37     54 1
    55     38     39 2
    56     16     38 am
@<TRIPOS>SUBSTRUCTURE
     1 BB1          16
     2 BB2          38
@<TRIPOS>MOLECULE
EN300-05313_i001_EN300-34862_i002_17_10_1
  44   46   2   0   0
SMALL
USER_CHARGES
@<TRIPOS>ATOM
     1 C1         2.0526   -16.4942    14.4004 C.3        1 BB1          0.0000
     2 C2         0.6616   -16.9402    13.9453 C.3        1 BB1          0.0000
     3 C3        -0.4025   -16.2082    14.7654 C.3        1 BB1          0.0000
     4 O4         0.4918   -16.6311    12.5605 O.3        1 BB1          0.0000
     5 C5        -0.3641   -17.4045    11.8609 C.2        1 BB1          0.0000
     6 O6        -1.1133   -18.1648    12.4447 O.2        1 BB1          0.0000
     7 C7        -0.3913   -17.3290    10.4006 C.2        1 BB1          0.0000
     8 C8        -0.6970   -18.3948     9.5970 C.2        1 BB1          0.0000
     9 N9        -1.0139   -19.6587    10.0554 N.am       1 BB1          0.0000
    10 S10       -0.6333   -17.9479     7.9556 S.3        1 BB1          0.0000
    11 C11       -0.1870   -16.2927     8.3356 C.2        1 BB1          0.0000
    12 C12        0.0649   -15.2056     7.3082 C.3        1 BB1          0.0000
    13 C13        0.0147   -13.8451     8.0087 C.3        1 BB1          0.0000
    14 C14        0.9144   -13.8880     9.2475 C.3        1 BB1          0.0000
    15 C15        0.2719   -14.7896    10.3039 C.3        1 BB1          0.0000
    16 C16       -0.1027   -16.1139     9.6577 C.2        1 BB1          0.0000
    17 H17        2.1821   -16.7299    15.4567 H          1 BB1          0.0000
    18 H18        2.8107   -17.0157    13.8162 H          1 BB1          0.0000
    19 H19        2.1558   -15.4191    14.2528 H          1 BB1          0.0000
    20 H20        0.5583   -18.0152    14.0930 H          1 BB1          0.0000
    21 H21       -1.3934   -16.5260    14.4412 H          1 BB1          0.0000
    22 H22       -0.2729   -16.4440    15.8217 H          1 BB1          0.0000
    23 H23       -0.2992   -15.1332    14.6178 H          1 BB1          0.0000
    24 H24        1.0471   -15.3487     6.8578 H          1 BB1          0.0000
    25 H25       -0.7032   -15.2475     6.5359 H          1 BB1          0.0000
    26 H26        0.3685   -13.0710     7.3277 H          1 BB1          0.0000
    27 H27       -1.0100   -13.6274     8.3096 H          1 BB1          0.0000
    28 H28        1.8916   -14.2862     8.9743 H          1 BB1          0.0000
    29 H29        1.0296   -12.8813     9.6491 H          1 BB1          0.0000
    30 H30        0.9789   -14.9630    11.1152 H          1 BB1          0.0000
    31 H31       -0.6261   -14.3114    10.6952 H          1 BB1          0.0000
    32 H33       -1.2199   -20.3659     9.4243 H          1 BB1          0.0000
    33 O1        -1.0375   -18.9513    12.4219 O.2        2 BB2          0.0000
    34 C2        -0.3489   -19.7996    11.8809 C.2        2 BB2          0.0000
    35 C4        -0.1440   -21.1381    12.5424 C.3        2 BB2          0.0000
    36 C5        -0.9105   -21.1624    13.8712 C.3        2 BB2          0.0000
    37 S6        -2.0718   -22.5518    13.6823 S.3        2 BB2          0.0000
    38 C7        -1.5627   -22.9965    12.0496 C.2        2 BB2          0.0000
    39 O8        -2.0284   -23.9088    11.3941 O.2        2 BB2          0.0000
    40 N9        -0.5927   -22.1803    11.6470 N.am       2 BB2          0.0000
    41 H10        0.9186   -21.2765    12.7422 H          2 BB2          0.0000
    42 H11       -0.2290   -21.3438    14.7024 H          2 BB2          0.0000
    43 H12       -1.4526   -20.2281    14.0170 H          2 BB2          0.0000
    44 H13       -0.1942   -22.2823    10.7686 H          2 BB2          0.0000
@<TRIPOS>BOND
     1      1      2 1
     2      1     17 1
     3      1     18 1
     4      1     19 1
     5      2      3 1
     6      2      4 1
     7      2     20 1
     8      3     21 1
     9      3     22 1
    10      3     23 1
    11      4      5 1
    12      5      6 2
    13      5      7 1
    14      7      8 2
    15      7     16 1
    16      8      9 1
    17      8     10 1
    18      9     32 1
    19     10     11 1
    20     11     12 1
    21     11     16 2
    22     12     13 1
    23     12     24 1
    24     12     25 1
    25     13     14 1
    26     13     26 1
    27     13     27 1
    28     14     15 1
    29     14     28 1
    30     14     29 1
    31     15     16 1
    32     15     30 1
    33     15     31 1
    34     33     34 2
    35     34     35 1
    36     35     36 1
    37     35     40 1
    38     35     41 1
    39     36     37 1
    40     36     42 1
    41     36     43 1
    42     37     38 1
    43     38     39 2
    44     38     40 am
    45     40     44 1
    46      9     34 am
@<TRIPOS>SUBSTRUCTURE
     1 BB1           9
     2 BB2          34
@<TRIPOS>MOLECULE
EN300-05313_i001_EN300-35009_i001_3_10_1
  54   57   2   0   0
SMALL
USER_CHARGES
@<TRIPOS>ATOM
     1 C1         2.1331   -17.4686    14.6199 C.3        1 BB1          0.0000
     2 C2         0.7444   -17.0316    14.1496 C.3        1 BB1          0.0000
     3 C3         0.8369   -15.6485    13.5023 C.3        1 BB1          0.0000
     4 O4         0.2469   -17.9719    13.1953 O.3        1 BB1          0.0000
     5 C5        -0.3955   -19.0546    13.6799 C.2        1 BB1          0.0000
     6 O6        -0.9247   -19.0088    14.7746 O.2        1 BB1          0.0000
     7 C7        -0.4560   -20.2836    12.8895 C.2        1 BB1          0.0000
     8 C8         0.1806   -20.4377    11.6870 C.2        1 BB1          0.0000
     9 N9         0.9498   -19.4670    11.0754 N.am       1 BB1          0.0000
    10 S10       -0.1056   -21.9901    11.0498 S.3        1 BB1          0.0000
    11 C11       -1.1027   -22.4604    12.4166 C.2        1 BB1          0.0000
    12 C12       -1.7703   -23.8128    12.5774 C.3        1 BB1          0.0000
    13 C13       -2.1856   -23.9859    14.0408 C.3        1 BB1          0.0000
    14 C14       -2.9590   -22.7427    14.4906 C.3        1 BB1          0.0000
    15 C15       -1.9929   -21.5604    14.5941 C.3        1 BB1          0.0000
    16 C16       -1.1925   -21.4654    13.3049 C.2        1 BB1          0.0000
    17 H17        2.5125   -16.7514    15.3478 H          1 BB1          0.0000
    18 H18        2.0672   -18.4539    15.0812 H          1 BB1          0.0000
    19 H19        2.8091   -17.5116    13.7659 H          1 BB1          0.0000
    20 H20        0.0684   -16.9885    15.0036 H          1 BB1          0.0000
    21 H21       -0.1526   -15.3372    13.1672 H          1 BB1          0.0000
    22 H22        1.2162   -14.9313    14.2301 H          1 BB1          0.0000
    23 H23        1.5128   -15.6915    12.6482 H          1 BB1          0.0000
    24 H24       -2.6522   -23.8634    11.9388 H          1 BB1          0.0000
    25 H25       -1.0703   -24.6012    12.3004 H          1 BB1          0.0000
    26 H26       -2.8216   -24.8659    14.1377 H          1 BB1          0.0000
    27 H27       -1.2969   -24.1065    14.6603 H          1 BB1          0.0000
    28 H28       -3.7372   -22.5145    13.7623 H          1 BB1          0.0000
    29 H29       -3.4129   -22.9285    15.4640 H          1 BB1          0.0000
    30 H30       -2.5567   -20.6400    14.7459 H          1 BB1          0.0000
    31 H31       -1.3126   -21.7167    15.4313 H          1 BB1          0.0000
    32 H32        1.0685   -18.6031    11.5003 H          1 BB1          0.0000
    33 C1        -1.0730   -18.6694     8.6332 C.3        2 BB2          0.0000
    34 C2        -0.5428   -17.4424     9.3292 C.2        2 BB2          0.0000
    35 N3        -0.2278   -16.3581     8.6293 N.2        2 BB2          0.0000
    36 C4         0.2347   -15.2723     9.1919 C.2        2 BB2          0.0000
    37 N5         0.4282   -15.1660    10.5173 N.am       2 BB2          0.0000
    38 C6         0.1422   -16.2069    11.3306 C.2        2 BB2          0.0000
    39 O7         0.3110   -16.1296    12.5343 O.2        2 BB2          0.0000
    40 C8        -0.3838   -17.4327    10.7152 C.2        2 BB2          0.0000
    41 C9        -0.7192   -18.6071    11.5269 C.2        2 BB2          0.0000
    42 O11       -0.4162   -19.7273    11.1371 O.2        2 BB2          0.0000
    43 C12        0.5650   -14.0905     8.3170 C.3        2 BB2          0.0000
    44 C13       -0.5325   -13.5728     7.3852 C.3        2 BB2          0.0000
    45 C14       -0.1372   -12.7662     8.6238 C.3        2 BB2          0.0000
    46 H15       -1.1299   -18.4826     7.5608 H          2 BB2          0.0000
    47 H16       -0.4056   -19.5104     8.8207 H          2 BB2          0.0000
    48 H17       -2.0672   -18.9024     9.0146 H          2 BB2          0.0000
    49 H18        1.5932   -14.0440     7.9582 H          2 BB2          0.0000
    50 H19       -0.2263   -13.1853     6.4135 H          2 BB2          0.0000
    51 H20       -1.4935   -14.0868     7.4049 H          2 BB2          0.0000
    52 H21       -0.8379   -12.7497     9.4584 H          2 BB2          0.0000
    53 H22        0.4291   -11.8482     8.4670 H          2 BB2          0.0000
    54 H23        0.7742   -14.3406    10.8912 H          2 BB2          0.0000
@<TRIPOS>BOND
     1      1      2 1
     2      1     17 1
     3      1     18 1
     4      1     19 1
     5      2      3 1
     6      2      4 1
     7      2     20 1
     8      3     21 1
     9      3     22 1
    10      3     23 1
    11      4      5 1
    12      5      6 2
    13      5      7 1
    14      7      8 2
    15      7     16 1
    16      8      9 1
    17      8     10 1
    18      9     32 1
    19     10     11 1
    20     11     12 1
    21     11     16 2
    22     12     13 1
    23     12     24 1
    24     12     25 1
    25     13     14 1
    26     13     26 1
    27     13     27 1
    28     14     15 1
    29     14     28 1
    30     14     29 1
    31     15     16 1
    32     15     30 1
    33     15     31 1
    34     33     34 1
    35     33     46 1
    36     33     47 1
    37     33     48 1
    38     34     35 1
    39     34     40 2
    40     35     36 2
    41     36     37 1
    42     36     43 1
    43     37     38 am
    44     37     54 1
    45     38     39 2
    46     38     40 1
    47     40     41 1
    48     41     42 2
    49     43     44 1
    50     43     45 1
    51     43     49 1
    52     44     45 1
    53     44     50 1
    54     44     51 1
    55     45     52 1
    56     45     53 1
    57      9     41 am
@<TRIPOS>SUBSTRUCTURE
     1 BB1           9
     2 BB2          41
@<TRIPOS>MOLECULE
EN300-05313_i001_EN300-35009_i001_3_12_1
  54   57   2   0   0
SMALL
USER_CHARGES
@<TRIPOS>ATOM
     1 C1         2.1331   -17.4686    14.6199 C.3        1 BB1          0.0000
     2 C2         0.7444   -17.0316    14.1496 C.3        1 BB1          0.0000
     3 C3         0.8369   -15.6485    13.5023 C.3        1 BB1          0.0000
     4 O4         0.2469   -17.9719    13.1953 O.3        1 BB1          0.0000
     5 C5        -0.3955   -19.0546    13.6799 C.2        1 BB1          0.0000
     6 O6        -0.9247   -19.0088    14.7746 O.2        1 BB1          0.0000
     7 C7        -0.4560   -20.2836    12.8895 C.2        1 BB1          0.0000
     8 C8         0.1806   -20.4377    11.6870 C.2        1 BB1          0.0000
     9 N9         0.9498   -19.4670    11.0754 N.am       1 BB1          0.0000
    10 S10       -0.1056   -21.9901    11.0498 S.3        1 BB1          0.0000
    11 C11       -1.1027   -22.4604    12.4166 C.2        1 BB1          0.0000
    12 C12       -1.7703   -23.8128    12.5774 C.3        1 BB1          0.0000
    13 C13       -2.1856   -23.9859    14.0408 C.3        1 BB1          0.0000
    14 C14       -2.9590   -22.7427    14.4906 C.3        1 BB1          0.0000
    15 C15       -1.9929   -21.5604    14.5941 C.3        1 BB1          0.0000
    16 C16       -1.1925   -21.4654    13.3049 C.2        1 BB1          0.0000
    17 H17        2.5125   -16.7514    15.3478 H          1 BB1          0.0000
    18 H18        2.0672   -18.4539    15.0812 H          1 BB1          0.0000
    19 H19        2.8091   -17.5116    13.7659 H          1 BB1          0.0000
    20 H20        0.0684   -16.9885    15.0036 H          1 BB1          0.0000
    21 H21       -0.1526   -15.3372    13.1672 H          1 BB1          0.0000
    22 H22        1.2162   -14.9313    14.2301 H          1 BB1          0.0000
    23 H23        1.5128   -15.6915    12.6482 H          1 BB1          0.0000
    24 H24       -2.6522   -23.8634    11.9388 H          1 BB1          0.0000
    25 H25       -1.0703   -24.6012    12.3004 H          1 BB1          0.0000
    26 H26       -2.8216   -24.8659    14.1377 H          1 BB1          0.0000
    27 H27       -1.2969   -24.1065    14.6603 H          1 BB1          0.0000
    28 H28       -3.7372   -22.5145    13.7623 H          1 BB1          0.0000
    29 H29       -3.4129   -22.9285    15.4640 H          1 BB1          0.0000
    30 H30       -2.5567   -20.6400    14.7459 H          1 BB1          0.0000
    31 H31       -1.3126   -21.7167    15.4313 H          1 BB1          0.0000
    32 H33        1.3713   -19.6492    10.2210 H          1 BB1          0.0000
    33 C1         0.1120   -16.3360    12.6253 C.3        2 BB2          0.0000
    34 C2        -0.0421   -16.4337    11.1294 C.2        2 BB2          0.0000
    35 N3         0.0707   -15.3485    10.3716 N.2        2 BB2          0.0000
    36 C4        -0.0551   -15.3875     9.0708 C.2        2 BB2          0.0000
    37 N5        -0.3079   -16.5231     8.3986 N.am       2 BB2          0.0000
    38 C6        -0.4429   -17.6909     9.0654 C.2        2 BB2          0.0000
    39 O7        -0.6722   -18.7304     8.4737 O.2        2 BB2          0.0000
    40 C8        -0.2987   -17.6657    10.5272 C.2        2 BB2          0.0000
    41 C9        -0.4306   -18.8890    11.3252 C.2        2 BB2          0.0000
    42 O11       -1.0062   -18.8561    12.4050 O.2        2 BB2          0.0000
    43 C12        0.0890   -14.1049     8.2928 C.3        2 BB2          0.0000
    44 C13        1.2914   -13.9787     7.3552 C.3        2 BB2          0.0000
    45 C14       -0.1121   -14.1712     6.7775 C.3        2 BB2          0.0000
    46 H15        0.3117   -15.3011    12.9031 H          2 BB2          0.0000
    47 H16       -0.8061   -16.6711    13.1078 H          2 BB2          0.0000
    48 H17        0.9421   -16.9651    12.9470 H          2 BB2          0.0000
    49 H18       -0.2456   -13.2035     8.8062 H          2 BB2          0.0000
    50 H19        1.7477   -12.9942     7.2516 H          2 BB2          0.0000
    51 H20        1.9783   -14.8233     7.3010 H          2 BB2          0.0000
    52 H21       -0.3488   -15.1426     6.3433 H          2 BB2          0.0000
    53 H22       -0.5794   -13.3135     6.2938 H          2 BB2          0.0000
    54 H23       -0.3940   -16.5047     7.4326 H          2 BB2          0.0000
@<TRIPOS>BOND
     1      1      2 1
     2      1     17 1
     3      1     18 1
     4      1     19 1
     5      2      3 1
     6      2      4 1
     7      2     20 1
     8      3     21 1
     9      3     22 1
    10      3     23 1
    11      4      5 1
    12      5      6 2
    13      5      7 1
    14      7      8 2
    15      7     16 1
    16      8      9 1
    17      8     10 1
    18      9     32 1
    19     10     11 1
    20     11     12 1
    21     11     16 2
    22     12     13 1
    23     12     24 1
    24     12     25 1
    25     13     14 1
    26     13     26 1
    27     13     27 1
    28     14     15 1
    29     14     28 1
    30     14     29 1
    31     15     16 1
    32     15     30 1
    33     15     31 1
    34     33     34 1
    35     33     46 1
    36     33     47 1
    37     33     48 1
    38     34     35 1
    39     34     40 2
    40     35     36 2
    41     36     37 1
    42     36     43 1
    43     37     38 am
    44     37     54 1
    45     38     39 2
    46     38     40 1
    47     40     41 1
    48     41     42 2
    49     43     44 1
    50     43     45 1
    51     43     49 1
    52     44     45 1
    53     44     50 1
    54     44     51 1
    55     45     52 1
    56     45     53 1
    57      9     41 am
@<TRIPOS>SUBSTRUCTURE
     1 BB1           9
     2 BB2          41
@<TRIPOS>MOLECULE
EN300-05313_i001_EN300-1165841_i001_8_9_1
  60   62   2   0   0
SMALL
USER_CHARGES
@<TRIPOS>ATOM
     1 C1         1.2561   -16.1497    14.0904 C.3        1 BB1          0.0000
     2 C2        -0.0997   -16.3187    13.4019 C.3        1 BB1          0.0000
     3 C3        -0.2846   -15.2129    12.3609 C.3        1 BB1          0.0000
     4 O4        -0.1510   -17.5931    12.7572 O.3        1 BB1          0.0000
     5 C5        -0.4035   -18.6643    13.5374 C.2        1 BB1          0.0000
     6 O6        -0.6982   -18.5089    14.7075 O.2        1 BB1          0.0000
     7 C7        -0.3228   -20.0126    12.9766 C.2        1 BB1          0.0000
     8 C8         0.1048   -20.2739    11.7023 C.2        1 BB1          0.0000
     9 N9         0.5086   -19.3123    10.7966 N.am       1 BB1          0.0000
    10 S10        0.0710   -21.9466    11.3878 S.3        1 BB1          0.0000
    11 C11       -0.5292   -22.3229    12.9946 C.2        1 BB1          0.0000
    12 C12       -0.8299   -23.7203    13.5019 C.3        1 BB1          0.0000
    13 C13       -0.9239   -23.6798    15.0295 C.3        1 BB1          0.0000
    14 C14       -1.8669   -22.5454    15.4417 C.3        1 BB1          0.0000
    15 C15       -1.1943   -21.2022    15.1500 C.3        1 BB1          0.0000
    16 C16       -0.6826   -21.2094    13.7183 C.2        1 BB1          0.0000
    17 H17        1.2952   -15.1777    14.5820 H          1 BB1          0.0000
    18 H18        1.3877   -16.9375    14.8320 H          1 BB1          0.0000
    19 H19        2.0512   -16.2134    13.3475 H          1 BB1          0.0000
    20 H20       -0.8949   -16.2550    14.1447 H          1 BB1          0.0000
    21 H21       -1.2506   -15.3333    11.8704 H          1 BB1          0.0000
    22 H22       -0.2455   -14.2408    12.8526 H          1 BB1          0.0000
    23 H23        0.5106   -15.2765    11.6180 H          1 BB1          0.0000
    24 H24       -1.7771   -24.0642    13.0865 H          1 BB1          0.0000
    25 H25       -0.0299   -24.3977    13.2029 H          1 BB1          0.0000
    26 H26       -1.3138   -24.6294    15.3962 H          1 BB1          0.0000
    27 H27        0.0654   -23.5029    15.4513 H          1 BB1          0.0000
    28 H28       -2.7948   -22.6189    14.8744 H          1 BB1          0.0000
    29 H29       -2.0834   -22.6206    16.5072 H          1 BB1          0.0000
    30 H30       -1.9167   -20.3961    15.2785 H          1 BB1          0.0000
    31 H31       -0.3568   -21.0571    15.8325 H          1 BB1          0.0000
    32 H33        0.7995   -19.5738     9.9090 H          1 BB1          0.0000
    33 C1        -0.4775   -18.1700    10.2903 C.3        2 BB2          0.0000
    34 C2        -0.3453   -16.7630    10.8767 C.3        2 BB2          0.0000
    35 N3         0.3038   -15.8828     9.8960 N.4        2 BB2          1.0000
    36 C4         0.2669   -14.4986    10.3832 C.3        2 BB2          0.0000
    37 C5         1.0128   -13.5892     9.4043 C.3        2 BB2          0.0000
    38 C6         0.3403   -13.6667     8.0306 C.3        2 BB2          0.0000
    39 O7        -0.9980   -13.1748     8.1253 O.3        2 BB2          0.0000
    40 C8         0.3180   -15.1256     7.5655 C.3        2 BB2          0.0000
    41 C9        -0.4021   -15.9780     8.6126 C.3        2 BB2          0.0000
    42 C10        1.0969   -12.8523     7.0656 C.1        2 BB2          0.0000
    43 C11        1.7003   -12.2027     6.2959 C.1        2 BB2          0.0000
    44 C12        0.4877   -16.8178    12.1313 C.2        2 BB2          0.0000
    45 O13        0.9510   -17.8803    12.5095 O.2        2 BB2          0.0000
    46 H15        0.5126   -18.5589    10.0524 H          2 BB2          0.0000
    47 H16       -0.9591   -18.8231    11.0180 H          2 BB2          0.0000
    48 H17       -1.0800   -18.1303     9.3829 H          2 BB2          0.0000
    49 H18       -1.3354   -16.3740    11.1147 H          2 BB2          0.0000
    50 H19       -0.7692   -14.1705    10.4658 H          2 BB2          0.0000
    51 H20        0.7430   -14.4457    11.3623 H          2 BB2          0.0000
    52 H21        0.9827   -12.5618     9.7668 H          2 BB2          0.0000
    53 H22        2.0492   -13.9164     9.3211 H          2 BB2          0.0000
    54 H23       -0.2086   -15.1963     6.6138 H          2 BB2          0.0000
    55 H24        1.3401   -15.4846     7.4442 H          2 BB2          0.0000
    56 H25       -0.4200   -17.0173     8.2846 H          2 BB2          0.0000
    57 H26       -1.4240   -15.6184     8.7329 H          2 BB2          0.0000
    58 H27        2.2399   -11.6219     5.6077 H          2 BB2          0.0000
    59 H28       -1.1530   -12.6008     8.8879 H          2 BB2          0.0000
    60 H29        1.2633   -16.1691     9.7718 H          2 BB2          0.0000
@<TRIPOS>BOND
     1      1      2 1
     2      1     17 1
     3      1     18 1
     4      1     19 1
     5      2      3 1
     6      2      4 1
     7      2     20 1
     8      3     21 1
     9      3     22 1
    10      3     23 1
    11      4      5 1
    12      5      6 2
    13      5      7 1
    14      7      8 2
    15      7     16 1
    16      8      9 1
    17      8     10 1
    18      9     32 1
    19     10     11 1
    20     11     12 1
    21     11     16 2
    22     12     13 1
    23     12     24 1
    24     12     25 1
    25     13     14 1
    26     13     26 1
    27     13     27 1
    28     14     15 1
    29     14     28 1
    30     14     29 1
    31     15     16 1
    32     15     30 1
    33     15     31 1
    34     33     34 1
    35     33     46 1
    36     33     47 1
    37     33     48 1
    38     34     35 1
    39     34     44 1
    40     34     49 1
    41     35     36 1
    42     35     41 1
    43     35     60 1
    44     36     37 1
    45     36     50 1
    46     36     51 1
    47     37     38 1
    48     37     52 1
    49     37     53 1
    50     38     39 1
    51     38     40 1
    52     38     42 1
    53     39     59 1
    54     40     41 1
    55     40     54 1
    56     40     55 1
    57     41     56 1
    58     41     57 1
    59     42     43 3
    60     43     58 1
    61     44     45 2
    62      9     44 am
@<TRIPOS>SUBSTRUCTURE
     1 BB1           9
     2 BB2          44
@<TRIPOS>MOLECULE
EN300-05313_i001_EN300-315786_i001_8_12_1
  60   63   2   0   0
SMALL
USER_CHARGES
@<TRIPOS>ATOM
     1 C1         1.2561   -16.1497    14.0904 C.3        1 BB1          0.0000
     2 C2        -0.0997   -16.3187    13.4019 C.3        1 BB1          0.0000
     3 C3        -0.2846   -15.2129    12.3609 C.3        1 BB1          0.0000
     4 O4        -0.1510   -17.5931    12.7572 O.3        1 BB1          0.0000
     5 C5        -0.4035   -18.6643    13.5374 C.2        1 BB1          0.0000
     6 O6        -0.6982   -18.5089    14.7075 O.2        1 BB1          0.0000
     7 C7        -0.3228   -20.0126    12.9766 C.2        1 BB1          0.0000
     8 C8         0.1048   -20.2739    11.7023 C.2        1 BB1          0.0000
     9 N9         0.5086   -19.3123    10.7966 N.am       1 BB1          0.0000
    10 S10        0.0710   -21.9466    11.3878 S.3        1 BB1          0.0000
    11 C11       -0.5292   -22.3229    12.9946 C.2        1 BB1          0.0000
    12 C12       -0.8299   -23.7203    13.5019 C.3        1 BB1          0.0000
    13 C13       -0.9239   -23.6798    15.0295 C.3        1 BB1          0.0000
    14 C14       -1.8669   -22.5454    15.4417 C.3        1 BB1          0.0000
    15 C15       -1.1943   -21.2022    15.1500 C.3        1 BB1          0.0000
    16 C16       -0.6826   -21.2094    13.7183 C.2        1 BB1          0.0000
    17 H17        1.2952   -15.1777    14.5820 H          1 BB1          0.0000
    18 H18        1.3877   -16.9375    14.8320 H          1 BB1          0.0000
    19 H19        2.0512   -16.2134    13.3475 H          1 BB1          0.0000
    20 H20       -0.8949   -16.2550    14.1447 H          1 BB1          0.0000
    21 H21       -1.2506   -15.3333    11.8704 H          1 BB1          0.0000
    22 H22       -0.2455   -14.2408    12.8526 H          1 BB1          0.0000
    23 H23        0.5106   -15.2765    11.6180 H          1 BB1          0.0000
    24 H24       -1.7771   -24.0642    13.0865 H          1 BB1          0.0000
    25 H25       -0.0299   -24.3977    13.2029 H          1 BB1          0.0000
    26 H26       -1.3138   -24.6294    15.3962 H          1 BB1          0.0000
    27 H27        0.0654   -23.5029    15.4513 H          1 BB1          0.0000
    28 H28       -2.7948   -22.6189    14.8744 H          1 BB1          0.0000
    29 H29       -2.0834   -22.6206    16.5072 H          1 BB1          0.0000
    30 H30       -1.9167   -20.3961    15.2785 H          1 BB1          0.0000
    31 H31       -0.3568   -21.0571    15.8325 H          1 BB1          0.0000
    32 H32        0.5012   -18.3755    11.0481 H          1 BB1          0.0000
    33 O1        -1.3470   -18.6446     8.3431 O.2        2 BB2          0.0000
    34 C2        -0.6251   -18.1724     9.2095 C.2        2 BB2          0.0000
    35 C4        -0.4147   -16.7114     9.2806 C.ar       2 BB2          0.0000
    36 C5        -0.2275   -16.0918    10.5182 C.ar       2 BB2          0.0000
    37 C6        -0.0313   -14.7292    10.5836 C.ar       2 BB2          0.0000
    38 C7        -0.0197   -13.9686     9.4139 C.ar       2 BB2          0.0000
    39 C8        -0.2067   -14.5870     8.1770 C.ar       2 BB2          0.0000
    40 C9        -0.3973   -15.9503     8.1096 C.ar       2 BB2          0.0000
    41 C10        0.1906   -12.5044     9.4851 C.2        2 BB2          0.0000
    42 O11        1.1512   -12.0012     8.9367 O.2        2 BB2          0.0000
    43 N12       -0.6833   -11.7300    10.1581 N.am       2 BB2          0.0000
    44 C13       -0.5419   -10.2653    10.1734 C.3        2 BB2          0.0000
    45 C14       -1.8912    -9.6453     9.7929 C.3        2 BB2          0.0000
    46 O15       -2.9134   -10.1931    10.6287 O.3        2 BB2          0.0000
    47 C16       -3.0951   -11.6037    10.4829 C.3        2 BB2          0.0000
    48 C17       -1.8107   -12.3237    10.8942 C.3        2 BB2          0.0000
    49 H18       -0.2367   -16.6803    11.4237 H          2 BB2          0.0000
    50 H19        0.1132   -14.2499    11.5407 H          2 BB2          0.0000
    51 H20       -0.1981   -13.9976     7.2720 H          2 BB2          0.0000
    52 H21       -0.5417   -16.4288     7.1522 H          2 BB2          0.0000
    53 H22       -0.2543    -9.9348    11.1715 H          2 BB2          0.0000
    54 H23        0.2177    -9.9623     9.4528 H          2 BB2          0.0000
    55 H24       -1.8475    -8.5650     9.9317 H          2 BB2          0.0000
    56 H25       -2.1141    -9.8704     8.7499 H          2 BB2          0.0000
    57 H26       -3.9176   -11.9324    11.1182 H          2 BB2          0.0000
    58 H27       -3.3224   -11.8359     9.4425 H          2 BB2          0.0000
    59 H28       -1.8908   -13.3838    10.6533 H          2 BB2          0.0000
    60 H29       -1.6480   -12.2013    11.9650 H          2 BB2          0.0000
@<TRIPOS>BOND
     1      1      2 1
     2      1     17 1
     3      1     18 1
     4      1     19 1
     5      2      3 1
     6      2      4 1
     7      2     20 1
     8      3     21 1
     9      3     22 1
    10      3     23 1
    11      4      5 1
    12      5      6 2
    13      5      7 1
    14      7      8 2
    15      7     16 1
    16      8      9 1
    17      8     10 1
    18      9     32 1
    19     10     11 1
    20     11     12 1
    21     11     16 2
    22     12     13 1
    23     12     24 1
    24     12     25 1
    25     13     14 1
    26     13     26 1
    27     13     27 1
    28     14     15 1
    29     14     28 1
    30     14     29 1
    31     15     16 1
    32     15     30 1
    33     15     31 1
    34     33     34 2
    35     34     35 1
    36     35     36 ar
    37     35     40 ar
    38     36     37 ar
    39     36     49 1
    40     37     38 ar
    41     37     50 1
    42     38     39 ar
    43     38     41 1
    44     39     40 ar
    45     39     51 1
    46     40     52 1
    47     41     42 2
    48     41     43 am
    49     43     44 1
    50     43     48 1
    51     44     45 1
    52     44     53 1
    53     44     54 1
    54     45     46 1
    55     45     55 1
    56     45     56 1
    57     46     47 1
    58     47     48 1
    59     47     57 1
    60     47     58 1
    61     48     59 1
    62     48     60 1
    63      9     34 am
@<TRIPOS>SUBSTRUCTURE
     1 BB1           9
     2 BB2          34
@<TRIPOS>MOLECULE
EN300-05313_i001_EN300-1198129_i001_9_17_1
  56   58   2   0   0
SMALL
USER_CHARGES
@<TRIPOS>ATOM
     1 C1         2.0196   -16.9742    14.4002 C.3        1 BB1          0.0000
     2 C2         0.4921   -17.0585    14.3814 C.3        1 BB1          0.0000
     3 C3        -0.0813   -15.7863    13.7541 C.3        1 BB1          0.0000
     4 O4         0.0871   -18.1929    13.6124 O.3        1 BB1          0.0000
     5 C5         0.3758   -19.4100    14.1177 C.2        1 BB1          0.0000
     6 O6         0.9558   -19.5044    15.1831 O.2        1 BB1          0.0000
     7 C7        -0.0083   -20.6159    13.3849 C.2        1 BB1          0.0000
     8 C8        -0.2679   -20.6295    12.0405 C.2        1 BB1          0.0000
     9 N9        -0.2016   -19.5230    11.2164 N.am       1 BB1          0.0000
    10 S10       -0.6831   -22.1977    11.5242 S.3        1 BB1          0.0000
    11 C11       -0.5097   -22.8671    13.1383 C.2        1 BB1          0.0000
    12 C12       -0.7344   -24.3226    13.5014 C.3        1 BB1          0.0000
    13 C13       -0.0968   -24.5934    14.8667 C.3        1 BB1          0.0000
    14 C14       -0.5651   -23.5232    15.8574 C.3        1 BB1          0.0000
    15 C15        0.0772   -22.1836    15.4904 C.3        1 BB1          0.0000
    16 C16       -0.1464   -21.9207    14.0097 C.2        1 BB1          0.0000
    17 H17        2.3284   -16.1089    14.9867 H          1 BB1          0.0000
    18 H18        2.4281   -17.8805    14.8471 H          1 BB1          0.0000
    19 H19        2.3905   -16.8729    13.3802 H          1 BB1          0.0000
    20 H20        0.1211   -17.1597    15.4013 H          1 BB1          0.0000
    21 H21       -1.1696   -15.8464    13.7408 H          1 BB1          0.0000
    22 H22        0.2275   -14.9210    14.3407 H          1 BB1          0.0000
    23 H23        0.2895   -15.6850    12.7342 H          1 BB1          0.0000
    24 H24       -1.8041   -24.5261    13.5507 H          1 BB1          0.0000
    25 H25       -0.2728   -24.9624    12.7491 H          1 BB1          0.0000
    26 H26       -0.4012   -25.5778    15.2225 H          1 BB1          0.0000
    27 H27        0.9887   -24.5564    14.7761 H          1 BB1          0.0000
    28 H28       -1.6503   -23.4322    15.8092 H          1 BB1          0.0000
    29 H29       -0.2668   -23.8058    16.8669 H          1 BB1          0.0000
    30 H30       -0.3781   -21.3867    16.0785 H          1 BB1          0.0000
    31 H31        1.1475   -22.2239    15.6928 H          1 BB1          0.0000
    32 H33       -0.3999   -19.6098    10.2709 H          1 BB1          0.0000
    33 C2        -0.3911   -17.0613    12.6065 C.2        2 BB2          0.0000
    34 O3        -0.6410   -18.1239    13.1584 O.2        2 BB2          0.0000
    35 C4        -0.3958   -16.9760    11.1355 C.ar       2 BB2          0.0000
    36 C5        -0.0908   -15.7687    10.5005 C.ar       2 BB2          0.0000
    37 C6        -0.0971   -15.6964     9.1240 C.ar       2 BB2          0.0000
    38 C7        -0.4049   -16.8151     8.3684 C.ar       2 BB2          0.0000
    39 C8        -0.7081   -18.0142     8.9862 C.ar       2 BB2          0.0000
    40 C9        -0.7001   -18.1055    10.3659 C.ar       2 BB2          0.0000
    41 F10       -0.9964   -19.2773    10.9694 F          2 BB2          0.0000
    42 S11        0.2873   -14.1747     8.3232 S.o2       2 BB2          0.0000
    43 O12        1.6993   -14.0649     8.4386 O.2        2 BB2          0.0000
    44 O13       -0.3379   -14.2803     7.0515 O.2        2 BB2          0.0000
    45 C14       -0.5340   -12.9116     9.3333 C.3        2 BB2          0.0000
    46 C15       -0.3919   -11.5463     8.6574 C.3        2 BB2          0.0000
    47 C16       -1.3236   -10.5914     9.2795 C.1        2 BB2          0.0000
    48 C17       -2.0667    -9.8299     9.7757 C.1        2 BB2          0.0000
    49 H18        0.1491   -14.8943    11.0872 H          2 BB2          0.0000
    50 H19       -0.4086   -16.7505     7.2903 H          2 BB2          0.0000
    51 H20       -0.9471   -18.8823     8.3900 H          2 BB2          0.0000
    52 H21       -1.5909   -13.1582     9.4350 H          2 BB2          0.0000
    53 H22       -0.0721   -12.8783    10.3200 H          2 BB2          0.0000
    54 H23        0.6301   -11.1866     8.7764 H          2 BB2          0.0000
    55 H24       -0.6229   -11.6403     7.5963 H          2 BB2          0.0000
    56 H25       -2.7313    -9.1488    10.2194 H          2 BB2          0.0000
@<TRIPOS>BOND
     1      1      2 1
     2      1     17 1
     3      1     18 1
     4      1     19 1
     5      2      3 1
     6      2      4 1
     7      2     20 1
     8      3     21 1
     9      3     22 1
    10      3     23 1
    11      4      5 1
    12      5      6 2
    13      5      7 1
    14      7      8 2
    15      7     16 1
    16      8      9 1
    17      8     10 1
    18      9     32 1
    19     10     11 1
    20     11     12 1
    21     11     16 2
    22     12     13 1
    23     12     24 1
    24     12     25 1
    25     13     14 1
    26     13     26 1
    27     13     27 1
    28     14     15 1
    29     14     28 1
    30     14     29 1
    31     15     16 1
    32     15     30 1
    33     15     31 1
    34     33     34 2
    35     33     35 1
    36     35     36 ar
    37     35     40 ar
    38     36     37 ar
    39     36     49 1
    40     37     38 ar
    41     37     42 1
    42     38     39 ar
    43     38     50 1
    44     39     40 ar
    45     39     51 1
    46     40     41 1
    47     42     43 2
    48     42     44 2
    49     42     45 1
    50     45     46 1
    51     45     52 1
    52     45     53 1
    53     46     47 1
    54     46     54 1
    55     46     55 1
    56     47     48 3
    57     48     56 1
    58      9     33 am
@<TRIPOS>SUBSTRUCTURE
     1 BB1           9
     2 BB2          33
@<TRIPOS>MOLECULE
EN300-05313_i001_EN300-1165841_i001_9_9_1
  60   62   2   0   0
SMALL
USER_CHARGES
@<TRIPOS>ATOM
     1 C1         2.0196   -16.9742    14.4002 C.3        1 BB1          0.0000
     2 C2         0.4921   -17.0585    14.3814 C.3        1 BB1          0.0000
     3 C3        -0.0813   -15.7863    13.7541 C.3        1 BB1          0.0000
     4 O4         0.0871   -18.1929    13.6124 O.3        1 BB1          0.0000
     5 C5         0.3758   -19.4100    14.1177 C.2        1 BB1          0.0000
     6 O6         0.9558   -19.5044    15.1831 O.2        1 BB1          0.0000
     7 C7        -0.0083   -20.6159    13.3849 C.2        1 BB1          0.0000
     8 C8        -0.2679   -20.6295    12.0405 C.2        1 BB1          0.0000
     9 N9        -0.2016   -19.5230    11.2164 N.am       1 BB1          0.0000
    10 S10       -0.6831   -22.1977    11.5242 S.3        1 BB1          0.0000
    11 C11       -0.5097   -22.8671    13.1383 C.2        1 BB1          0.0000
    12 C12       -0.7344   -24.3226    13.5014 C.3        1 BB1          0.0000
    13 C13       -0.0968   -24.5934    14.8667 C.3        1 BB1          0.0000
    14 C14       -0.5651   -23.5232    15.8574 C.3        1 BB1          0.0000
    15 C15        0.0772   -22.1836    15.4904 C.3        1 BB1          0.0000
    16 C16       -0.1464   -21.9207    14.0097 C.2        1 BB1          0.0000
    17 H17        2.3284   -16.1089    14.9867 H          1 BB1          0.0000
    18 H18        2.4281   -17.8805    14.8471 H          1 BB1          0.0000
    19 H19        2.3905   -16.8729    13.3802 H          1 BB1          0.0000
    20 H20        0.1211   -17.1597    15.4013 H          1 BB1          0.0000
    21 H21       -1.1696   -15.8464    13.7408 H          1 BB1          0.0000
    22 H22        0.2275   -14.9210    14.3407 H          1 BB1          0.0000
    23 H23        0.2895   -15.6850    12.7342 H          1 BB1          0.0000
    24 H24       -1.8041   -24.5261    13.5507 H          1 BB1          0.0000
    25 H25       -0.2728   -24.9624    12.7491 H          1 BB1          0.0000
    26 H26       -0.4012   -25.5778    15.2225 H          1 BB1          0.0000
    27 H27        0.9887   -24.5564    14.7761 H          1 BB1          0.0000
    28 H28       -1.6503   -23.4322    15.8092 H          1 BB1          0.0000
    29 H29       -0.2668   -23.8058    16.8669 H          1 BB1          0.0000
    30 H30       -0.3781   -21.3867    16.0785 H          1 BB1          0.0000
    31 H31        1.1475   -22.2239    15.6928 H          1 BB1          0.0000
    32 H33       -0.3999   -19.6098    10.2709 H          1 BB1          0.0000
    33 C1        -0.4775   -18.1700    10.2903 C.3        2 BB2          0.0000
    34 C2        -0.3453   -16.7630    10.8767 C.3        2 BB2          0.0000
    35 N3         0.3038   -15.8828     9.8960 N.4        2 BB2          1.0000
    36 C4         0.2669   -14.4986    10.3832 C.3        2 BB2          0.0000
    37 C5         1.0128   -13.5892     9.4043 C.3        2 BB2          0.0000
    38 C6         0.3403   -13.6667     8.0306 C.3        2 BB2          0.0000
    39 O7        -0.9980   -13.1748     8.1253 O.3        2 BB2          0.0000
    40 C8         0.3180   -15.1256     7.5655 C.3        2 BB2          0.0000
    41 C9        -0.4021   -15.9780     8.6126 C.3        2 BB2          0.0000
    42 C10        1.0969   -12.8523     7.0656 C.1        2 BB2          0.0000
    43 C11        1.7003   -12.2027     6.2959 C.1        2 BB2          0.0000
    44 C12        0.4877   -16.8178    12.1313 C.2        2 BB2          0.0000
    45 O14        0.6985   -15.7997    12.7683 O.2        2 BB2          0.0000
    46 H15        0.5126   -18.5589    10.0524 H          2 BB2          0.0000
    47 H16       -0.9591   -18.8231    11.0180 H          2 BB2          0.0000
    48 H17       -1.0800   -18.1303     9.3829 H          2 BB2          0.0000
    49 H18       -1.3354   -16.3740    11.1147 H          2 BB2          0.0000
    50 H19       -0.7692   -14.1705    10.4658 H          2 BB2          0.0000
    51 H20        0.7430   -14.4457    11.3623 H          2 BB2          0.0000
    52 H21        0.9827   -12.5618     9.7668 H          2 BB2          0.0000
    53 H22        2.0492   -13.9164     9.3211 H          2 BB2          0.0000
    54 H23       -0.2086   -15.1963     6.6138 H          2 BB2          0.0000
    55 H24        1.3401   -15.4846     7.4442 H          2 BB2          0.0000
    56 H25       -0.4200   -17.0173     8.2846 H          2 BB2          0.0000
    57 H26       -1.4240   -15.6184     8.7329 H          2 BB2          0.0000
    58 H27        2.2399   -11.6219     5.6077 H          2 BB2          0.0000
    59 H28       -1.1530   -12.6008     8.8879 H          2 BB2          0.0000
    60 H29        1.2633   -16.1691     9.7718 H          2 BB2          0.0000
@<TRIPOS>BOND
     1      1      2 1
     2      1     17 1
     3      1     18 1
     4      1     19 1
     5      2      3 1
     6      2      4 1
     7      2     20 1
     8      3     21 1
     9      3     22 1
    10      3     23 1
    11      4      5 1
    12      5      6 2
    13      5      7 1
    14      7      8 2
    15      7     16 1
    16      8      9 1
    17      8     10 1
    18      9     32 1
    19     10     11 1
    20     11     12 1
    21     11     16 2
    22     12     13 1
    23     12     24 1
    24     12     25 1
    25     13     14 1
    26     13     26 1
    27     13     27 1
    28     14     15 1
    29     14     28 1
    30     14     29 1
    31     15     16 1
    32     15     30 1
    33     15     31 1
    34     33     34 1
    35     33     46 1
    36     33     47 1
    37     33     48 1
    38     34     35 1
    39     34     44 1
    40     34     49 1
    41     35     36 1
    42     35     41 1
    43     35     60 1
    44     36     37 1
    45     36     50 1
    46     36     51 1
    47     37     38 1
    48     37     52 1
    49     37     53 1
    50     38     39 1
    51     38     40 1
    52     38     42 1
    53     39     59 1
    54     40     41 1
    55     40     54 1
    56     40     55 1
    57     41     56 1
    58     41     57 1
    59     42     43 3
    60     43     58 1
    61     44     45 2
    62      9     44 am
@<TRIPOS>SUBSTRUCTURE
     1 BB1           9
     2 BB2          44
@<TRIPOS>MOLECULE
EN300-05313_i001_EN300-35009_i001_9_10_1
  54   57   2   0   0
SMALL
USER_CHARGES
@<TRIPOS>ATOM
     1 C1         2.0196   -16.9742    14.4002 C.3        1 BB1          0.0000
     2 C2         0.4921   -17.0585    14.3814 C.3        1 BB1          0.0000
     3 C3        -0.0813   -15.7863    13.7541 C.3        1 BB1          0.0000
     4 O4         0.0871   -18.1929    13.6124 O.3        1 BB1          0.0000
     5 C5         0.3758   -19.4100    14.1177 C.2        1 BB1          0.0000
     6 O6         0.9558   -19.5044    15.1831 O.2        1 BB1          0.0000
     7 C7        -0.0083   -20.6159    13.3849 C.2        1 BB1          0.0000
     8 C8        -0.2679   -20.6295    12.0405 C.2        1 BB1          0.0000
     9 N9        -0.2016   -19.5230    11.2164 N.am       1 BB1          0.0000
    10 S10       -0.6831   -22.1977    11.5242 S.3        1 BB1          0.0000
    11 C11       -0.5097   -22.8671    13.1383 C.2        1 BB1          0.0000
    12 C12       -0.7344   -24.3226    13.5014 C.3        1 BB1          0.0000
    13 C13       -0.0968   -24.5934    14.8667 C.3        1 BB1          0.0000
    14 C14       -0.5651   -23.5232    15.8574 C.3        1 BB1          0.0000
    15 C15        0.0772   -22.1836    15.4904 C.3        1 BB1          0.0000
    16 C16       -0.1464   -21.9207    14.0097 C.2        1 BB1          0.0000
    17 H17        2.3284   -16.1089    14.9867 H          1 BB1          0.0000
    18 H18        2.4281   -17.8805    14.8471 H          1 BB1          0.0000
    19 H19        2.3905   -16.8729    13.3802 H          1 BB1          0.0000
    20 H20        0.1211   -17.1597    15.4013 H          1 BB1          0.0000
    21 H21       -1.1696   -15.8464    13.7408 H          1 BB1          0.0000
    22 H22        0.2275   -14.9210    14.3407 H          1 BB1          0.0000
    23 H23        0.2895   -15.6850    12.7342 H          1 BB1          0.0000
    24 H24       -1.8041   -24.5261    13.5507 H          1 BB1          0.0000
    25 H25       -0.2728   -24.9624    12.7491 H          1 BB1          0.0000
    26 H26       -0.4012   -25.5778    15.2225 H          1 BB1          0.0000
    27 H27        0.9887   -24.5564    14.7761 H          1 BB1          0.0000
    28 H28       -1.6503   -23.4322    15.8092 H          1 BB1          0.0000
    29 H29       -0.2668   -23.8058    16.8669 H          1 BB1          0.0000
    30 H30       -0.3781   -21.3867    16.0785 H          1 BB1          0.0000
    31 H31        1.1475   -22.2239    15.6928 H          1 BB1          0.0000
    32 H33       -0.3999   -19.6098    10.2709 H          1 BB1          0.0000
    33 C1        -1.0730   -18.6694     8.6332 C.3        2 BB2          0.0000
    34 C2        -0.5428   -17.4424     9.3292 C.2        2 BB2          0.0000
    35 N3        -0.2278   -16.3581     8.6293 N.2        2 BB2          0.0000
    36 C4         0.2347   -15.2723     9.1919 C.2        2 BB2          0.0000
    37 N5         0.4282   -15.1660    10.5173 N.am       2 BB2          0.0000
    38 C6         0.1422   -16.2069    11.3306 C.2        2 BB2          0.0000
    39 O7         0.3110   -16.1296    12.5343 O.2        2 BB2          0.0000
    40 C8        -0.3838   -17.4327    10.7152 C.2        2 BB2          0.0000
    41 C9        -0.7192   -18.6071    11.5269 C.2        2 BB2          0.0000
    42 O10       -1.3023   -18.4674    12.5941 O.2        2 BB2          0.0000
    43 C12        0.5650   -14.0905     8.3170 C.3        2 BB2          0.0000
    44 C13       -0.5325   -13.5728     7.3852 C.3        2 BB2          0.0000
    45 C14       -0.1372   -12.7662     8.6238 C.3        2 BB2          0.0000
    46 H15       -1.1299   -18.4826     7.5608 H          2 BB2          0.0000
    47 H16       -0.4056   -19.5104     8.8207 H          2 BB2          0.0000
    48 H17       -2.0672   -18.9024     9.0146 H          2 BB2          0.0000
    49 H18        1.5932   -14.0440     7.9582 H          2 BB2          0.0000
    50 H19       -0.2263   -13.1853     6.4135 H          2 BB2          0.0000
    51 H20       -1.4935   -14.0868     7.4049 H          2 BB2          0.0000
    52 H21       -0.8379   -12.7497     9.4584 H          2 BB2          0.0000
    53 H22        0.4291   -11.8482     8.4670 H          2 BB2          0.0000
    54 H23        0.7742   -14.3406    10.8912 H          2 BB2          0.0000
@<TRIPOS>BOND
     1      1      2 1
     2      1     17 1
     3      1     18 1
     4      1     19 1
     5      2      3 1
     6      2      4 1
     7      2     20 1
     8      3     21 1
     9      3     22 1
    10      3     23 1
    11      4      5 1
    12      5      6 2
    13      5      7 1
    14      7      8 2
    15      7     16 1
    16      8      9 1
    17      8     10 1
    18      9     32 1
    19     10     11 1
    20     11     12 1
    21     11     16 2
    22     12     13 1
    23     12     24 1
    24     12     25 1
    25     13     14 1
    26     13     26 1
    27     13     27 1
    28     14     15 1
    29     14     28 1
    30     14     29 1
    31     15     16 1
    32     15     30 1
    33     15     31 1
    34     33     34 1
    35     33     46 1
    36     33     47 1
    37     33     48 1
    38     34     35 1
    39     34     40 2
    40     35     36 2
    41     36     37 1
    42     36     43 1
    43     37     38 am
    44     37     54 1
    45     38     39 2
    46     38     40 1
    47     40     41 1
    48     41     42 2
    49     43     44 1
    50     43     45 1
    51     43     49 1
    52     44     45 1
    53     44     50 1
    54     44     51 1
    55     45     52 1
    56     45     53 1
    57      9     41 am
@<TRIPOS>SUBSTRUCTURE
     1 BB1           9
     2 BB2          41
@<TRIPOS>MOLECULE
EN300-05313_i001_EN300-15782_i003_9_17_1
  66   68   2   0   0
SMALL
USER_CHARGES
@<TRIPOS>ATOM
     1 C1         2.0196   -16.9742    14.4002 C.3        1 BB1          0.0000
     2 C2         0.4921   -17.0585    14.3814 C.3        1 BB1          0.0000
     3 C3        -0.0813   -15.7863    13.7541 C.3        1 BB1          0.0000
     4 O4         0.0871   -18.1929    13.6124 O.3        1 BB1          0.0000
     5 C5         0.3758   -19.4100    14.1177 C.2        1 BB1          0.0000
     6 O6         0.9558   -19.5044    15.1831 O.2        1 BB1          0.0000
     7 C7        -0.0083   -20.6159    13.3849 C.2        1 BB1          0.0000
     8 C8        -0.2679   -20.6295    12.0405 C.2        1 BB1          0.0000
     9 N9        -0.2016   -19.5230    11.2164 N.am       1 BB1          0.0000
    10 S10       -0.6831   -22.1977    11.5242 S.3        1 BB1          0.0000
    11 C11       -0.5097   -22.8671    13.1383 C.2        1 BB1          0.0000
    12 C12       -0.7344   -24.3226    13.5014 C.3        1 BB1          0.0000
    13 C13       -0.0968   -24.5934    14.8667 C.3        1 BB1          0.0000
    14 C14       -0.5651   -23.5232    15.8574 C.3        1 BB1          0.0000
    15 C15        0.0772   -22.1836    15.4904 C.3        1 BB1          0.0000
    16 C16       -0.1464   -21.9207    14.0097 C.2        1 BB1          0.0000
    17 H17        2.3284   -16.1089    14.9867 H          1 BB1          0.0000
    18 H18        2.4281   -17.8805    14.8471 H          1 BB1          0.0000
    19 H19        2.3905   -16.8729    13.3802 H          1 BB1          0.0000
    20 H20        0.1211   -17.1597    15.4013 H          1 BB1          0.0000
    21 H21       -1.1696   -15.8464    13.7408 H          1 BB1          0.0000
    22 H22        0.2275   -14.9210    14.3407 H          1 BB1          0.0000
    23 H23        0.2895   -15.6850    12.7342 H          1 BB1          0.0000
    24 H24       -1.8041   -24.5261    13.5507 H          1 BB1          0.0000
    25 H25       -0.2728   -24.9624    12.7491 H          1 BB1          0.0000
    26 H26       -0.4012   -25.5778    15.2225 H          1 BB1          0.0000
    27 H27        0.9887   -24.5564    14.7761 H          1 BB1          0.0000
    28 H28       -1.6503   -23.4322    15.8092 H          1 BB1          0.0000
    29 H29       -0.2668   -23.8058    16.8669 H          1 BB1          0.0000
    30 H30       -0.3781   -21.3867    16.0785 H          1 BB1          0.0000
    31 H31        1.1475   -22.2239    15.6928 H          1 BB1          0.0000
    32 H33       -0.3999   -19.6098    10.2709 H          1 BB1          0.0000
    33 C1        -0.7299   -17.9233     8.8213 C.3        2 BB2          0.0000
    34 C2        -0.7098   -18.4976    10.2392 C.3        2 BB2          0.0000
    35 O3         0.3486   -19.4512    10.3520 O.3        2 BB2          0.0000
    36 C4        -0.4862   -17.3662    11.2447 C.3        2 BB2          0.0000
    37 N5         0.7805   -16.6927    10.9481 N.pl3      2 BB2          0.0000
    38 S6         0.9977   -15.1093    11.3817 S.o2       2 BB2          0.0000
    39 O7        -0.1361   -14.7466    12.1577 O.2        2 BB2          0.0000
    40 O8         2.3320   -15.0033    11.8588 O.2        2 BB2          0.0000
    41 C9         0.9190   -14.1490     9.9065 C.ar       2 BB2          0.0000
    42 C10        1.6009   -14.5606     8.7770 C.ar       2 BB2          0.0000
    43 C11        1.5392   -13.8070     7.6194 C.ar       2 BB2          0.0000
    44 C12        0.7953   -12.6425     7.5917 C.ar       2 BB2          0.0000
    45 C13        0.7285   -11.8210     6.3301 C.3        2 BB2          0.0000
    46 C14        0.1122   -12.2315     8.7212 C.ar       2 BB2          0.0000
    47 C15       -0.6992   -10.9620     8.6909 C.3        2 BB2          0.0000
    48 C16        0.1708   -12.9869     9.8773 C.ar       2 BB2          0.0000
    49 C17       -0.4378   -17.9358    12.6391 C.2        2 BB2          0.0000
    50 O18        0.4554   -17.6072    13.4012 O.2        2 BB2          0.0000
    51 H20       -0.8891   -18.7293     8.1050 H          2 BB2          0.0000
    52 H21       -1.5371   -17.1959     8.7353 H          2 BB2          0.0000
    53 H22        0.2224   -17.4354     8.6134 H          2 BB2          0.0000
    54 H23       -1.6621   -18.9856    10.4471 H          2 BB2          0.0000
    55 H24       -1.3043   -16.6496    11.1731 H          2 BB2          0.0000
    56 H25        2.1821   -15.4706     8.7986 H          2 BB2          0.0000
    57 H26        2.0725   -14.1283     6.7369 H          2 BB2          0.0000
    58 H27       -0.1116   -12.1564     5.7221 H          2 BB2          0.0000
    59 H28        0.5943   -10.7703     6.5874 H          2 BB2          0.0000
    60 H29        1.6548   -11.9419     5.7683 H          2 BB2          0.0000
    61 H30       -1.7187   -11.1897     8.3795 H          2 BB2          0.0000
    62 H31       -0.7141   -10.5164     9.6855 H          2 BB2          0.0000
    63 H32       -0.2518   -10.2617     7.9855 H          2 BB2          0.0000
    64 H33       -0.3630   -12.6658    10.7596 H          2 BB2          0.0000
    65 H34        0.6762   -19.7774     9.5028 H          2 BB2          0.0000
    66 H35        1.4921   -17.1741    10.4977 H          2 BB2          0.0000
@<TRIPOS>BOND
     1      1      2 1
     2      1     17 1
     3      1     18 1
     4      1     19 1
     5      2      3 1
     6      2      4 1
     7      2     20 1
     8      3     21 1
     9      3     22 1
    10      3     23 1
    11      4      5 1
    12      5      6 2
    13      5      7 1
    14      7      8 2
    15      7     16 1
    16      8      9 1
    17      8     10 1
    18      9     32 1
    19     10     11 1
    20     11     12 1
    21     11     16 2
    22     12     13 1
    23     12     24 1
    24     12     25 1
    25     13     14 1
    26     13     26 1
    27     13     27 1
    28     14     15 1
    29     14     28 1
    30     14     29 1
    31     15     16 1
    32     15     30 1
    33     15     31 1
    34     33     34 1
    35     33     51 1
    36     33     52 1
    37     33     53 1
    38     34     35 1
    39     34     36 1
    40     34     54 1
    41     35     65 1
    42     36     37 1
    43     36     49 1
    44     36     55 1
    45     37     38 1
    46     37     66 1
    47     38     39 2
    48     38     40 2
    49     38     41 1
    50     41     42 ar
    51     41     48 ar
    52     42     43 ar
    53     42     56 1
    54     43     44 ar
    55     43     57 1
    56     44     45 1
    57     44     46 ar
    58     45     58 1
    59     45     59 1
    60     45     60 1
    61     46     47 1
    62     46     48 ar
    63     47     61 1
    64     47     62 1
    65     47     63 1
    66     48     64 1
    67     49     50 2
    68      9     49 am
@<TRIPOS>SUBSTRUCTURE
     1 BB1           9
     2 BB2          49
@<TRIPOS>MOLECULE
EN300-11723_i002_EN300-1231025_i001_14_11_1
  41   42   2   0   0
SMALL
USER_CHARGES
@<TRIPOS>ATOM
     1 C1         1.0268   -14.8246     7.2637 C.3        1 BB1          0.0000
     2 N2         1.0820   -15.2011     8.6826 N.am       1 BB1          0.0000
     3 C3        -0.1003   -16.0039     9.0226 C.3        1 BB1          0.0000
     4 C4        -0.0784   -17.2998     8.2146 C.3        1 BB1          0.0000
     5 C5        -1.1930   -18.2141     8.7369 C.3        1 BB1          0.0000
     6 C6        -0.8039   -18.6994    10.1317 C.3        1 BB1          0.0000
     7 C7        -0.4197   -17.5368    11.0091 C.ar       1 BB1          0.0000
     8 C8        -0.4001   -17.7417    12.3824 C.ar       1 BB1          0.0000
     9 C9        -0.0516   -16.7180    13.2393 C.ar       1 BB1          0.0000
    10 C10        0.2811   -15.4778    12.7275 C.ar       1 BB1          0.0000
    11 C11        0.2600   -15.2716    11.3634 C.ar       1 BB1          0.0000
    12 C12       -0.0915   -16.3003    10.4994 C.ar       1 BB1          0.0000
    13 H13        1.1151   -15.7189     6.6468 H          1 BB1          0.0000
    14 H14        0.0773   -14.3318     7.0552 H          1 BB1          0.0000
    15 H15        1.8471   -14.1439     7.0362 H          1 BB1          0.0000
    16 H16       -1.0002   -15.4410     8.7748 H          1 BB1          0.0000
    17 H17       -0.2487   -17.0785     7.1609 H          1 BB1          0.0000
    18 H18        0.8867   -17.7917     8.3356 H          1 BB1          0.0000
    19 H19       -2.1292   -17.6583     8.7895 H          1 BB1          0.0000
    20 H20       -1.3097   -19.0683     8.0701 H          1 BB1          0.0000
    21 H21       -1.6488   -19.2232    10.5788 H          1 BB1          0.0000
    22 H22        0.0407   -19.3837    10.0515 H          1 BB1          0.0000
    23 H23       -0.6602   -18.7103    12.7832 H          1 BB1          0.0000
    24 H24       -0.0392   -16.8849    14.3062 H          1 BB1          0.0000
    25 H25        0.5562   -14.6730    13.3930 H          1 BB1          0.0000
    26 H26        0.5191   -14.3020    10.9643 H          1 BB1          0.0000
    27 O1         0.8403   -11.0486     9.0139 O.3        2 BB2          0.0000
    28 C2        -0.3649   -11.8043     9.1498 C.3        2 BB2          0.0000
    29 C3        -1.4329   -10.9436     9.8274 C.3        2 BB2          0.0000
    30 C4        -2.8126   -11.5599     9.5870 C.3        2 BB2          0.0000
    31 C5        -3.8547   -10.5786     9.9302 C.1        2 BB2          0.0000
    32 C6        -4.6859    -9.7960    10.2040 C.1        2 BB2          0.0000
    33 C7        -0.0988   -13.0277     9.9887 C.2        2 BB2          0.0000
    34 O9         0.7171   -13.8548     9.6189 O.2        2 BB2          0.0000
    35 H10       -0.7156   -12.1093     8.1638 H          2 BB2          0.0000
    36 H11       -1.2370   -10.8980    10.8987 H          2 BB2          0.0000
    37 H12       -1.4069    -9.9370     9.4101 H          2 BB2          0.0000
    38 H13       -2.9079   -11.8391     8.5378 H          2 BB2          0.0000
    39 H14       -2.9284   -12.4461    10.2110 H          2 BB2          0.0000
    40 H15       -5.4294    -9.0961    10.4488 H          2 BB2          0.0000
    41 H16        1.5025   -11.4632     8.4441 H          2 BB2          0.0000
@<TRIPOS>BOND
     1      1      2 1
     2      1     13 1
     3      1     14 1
     4      1     15 1
     5      2      3 1
     6      3      4 1
     7      3     12 1
     8      3     16 1
     9      4      5 1
    10      4     17 1
    11      4     18 1
    12      5      6 1
    13      5     19 1
    14      5     20 1
    15      6      7 1
    16      6     21 1
    17      6     22 1
    18      7      8 ar
    19      7     12 ar
    20      8      9 ar
    21      8     23 1
    22      9     10 ar
    23      9     24 1
    24     10     11 ar
    25     10     25 1
    26     11     12 ar
    27     11     26 1
    28     27     28 1
    29     27     41 1
    30     28     29 1
    31     28     33 1
    32     28     35 1
    33     29     30 1
    34     29     36 1
    35     29     37 1
    36     30     31 1
    37     30     38 1
    38     30     39 1
    39     31     32 3
    40     32     40 1
    41     33     34 2
    42      2     33 am
@<TRIPOS>SUBSTRUCTURE
     1 BB1           2
     2 BB2          33
@<TRIPOS>MOLECULE
EN300-11723_i002_EN300-1231025_i001_14_7_1
  41   42   2   0   0
SMALL
USER_CHARGES
@<TRIPOS>ATOM
     1 C1         1.0268   -14.8246     7.2637 C.3        1 BB1          0.0000
     2 N2         1.0820   -15.2011     8.6826 N.am       1 BB1          0.0000
     3 C3        -0.1003   -16.0039     9.0226 C.3        1 BB1          0.0000
     4 C4        -0.0784   -17.2998     8.2146 C.3        1 BB1          0.0000
     5 C5        -1.1930   -18.2141     8.7369 C.3        1 BB1          0.0000
     6 C6        -0.8039   -18.6994    10.1317 C.3        1 BB1          0.0000
     7 C7        -0.4197   -17.5368    11.0091 C.ar       1 BB1          0.0000
     8 C8        -0.4001   -17.7417    12.3824 C.ar       1 BB1          0.0000
     9 C9        -0.0516   -16.7180    13.2393 C.ar       1 BB1          0.0000
    10 C10        0.2811   -15.4778    12.7275 C.ar       1 BB1          0.0000
    11 C11        0.2600   -15.2716    11.3634 C.ar       1 BB1          0.0000
    12 C12       -0.0915   -16.3003    10.4994 C.ar       1 BB1          0.0000
    13 H13        1.1151   -15.7189     6.6468 H          1 BB1          0.0000
    14 H14        0.0773   -14.3318     7.0552 H          1 BB1          0.0000
    15 H15        1.8471   -14.1439     7.0362 H          1 BB1          0.0000
    16 H16       -1.0002   -15.4410     8.7748 H          1 BB1          0.0000
    17 H17       -0.2487   -17.0785     7.1609 H          1 BB1          0.0000
    18 H18        0.8867   -17.7917     8.3356 H          1 BB1          0.0000
    19 H19       -2.1292   -17.6583     8.7895 H          1 BB1          0.0000
    20 H20       -1.3097   -19.0683     8.0701 H          1 BB1          0.0000
    21 H21       -1.6488   -19.2232    10.5788 H          1 BB1          0.0000
    22 H22        0.0407   -19.3837    10.0515 H          1 BB1          0.0000
    23 H23       -0.6602   -18.7103    12.7832 H          1 BB1          0.0000
    24 H24       -0.0392   -16.8849    14.3062 H          1 BB1          0.0000
    25 H25        0.5562   -14.6730    13.3930 H          1 BB1          0.0000
    26 H26        0.5191   -14.3020    10.9643 H          1 BB1          0.0000
    27 O1         0.9936   -10.8074     9.6862 O.3        2 BB2          0.0000
    28 C2        -0.0092   -11.6993     9.1956 C.3        2 BB2          0.0000
    29 C3        -0.8010   -12.2733    10.3721 C.3        2 BB2          0.0000
    30 C4        -1.4824   -11.1339    11.1326 C.3        2 BB2          0.0000
    31 C5        -2.7640   -10.8095    10.4854 C.1        2 BB2          0.0000
    32 C6        -3.7863   -10.5508     9.9692 C.1        2 BB2          0.0000
    33 C7         0.6465   -12.8232     8.4353 C.2        2 BB2          0.0000
    34 O8         1.2731   -13.6805     9.0346 O.2        2 BB2          0.0000
    35 H10       -0.6843   -11.1578     8.5329 H          2 BB2          0.0000
    36 H11       -1.5570   -12.9641     9.9988 H          2 BB2          0.0000
    37 H12       -0.1237   -12.8032    11.0419 H          2 BB2          0.0000
    38 H13       -1.6631   -11.4415    12.1625 H          2 BB2          0.0000
    39 H14       -0.8381   -10.2547    11.1237 H          2 BB2          0.0000
    40 H15       -4.7005   -10.3194     9.5075 H          2 BB2          0.0000
    41 H16        1.1930   -10.0731     9.0894 H          2 BB2          0.0000
@<TRIPOS>BOND
     1      1      2 1
     2      1     13 1
     3      1     14 1
     4      1     15 1
     5      2      3 1
     6      3      4 1
     7      3     12 1
     8      3     16 1
     9      4      5 1
    10      4     17 1
    11      4     18 1
    12      5      6 1
    13      5     19 1
    14      5     20 1
    15      6      7 1
    16      6     21 1
    17      6     22 1
    18      7      8 ar
    19      7     12 ar
    20      8      9 ar
    21      8     23 1
    22      9     10 ar
    23      9     24 1
    24     10     11 ar
    25     10     25 1
    26     11     12 ar
    27     11     26 1
    28     27     28 1
    29     27     41 1
    30     28     29 1
    31     28     33 1
    32     28     35 1
    33     29     30 1
    34     29     36 1
    35     29     37 1
    36     30     31 1
    37     30     38 1
    38     30     39 1
    39     31     32 3
    40     32     40 1
    41     33     34 2
    42      2     33 am
@<TRIPOS>SUBSTRUCTURE
     1 BB1           2
     2 BB2          33
@<TRIPOS>MOLECULE
EN300-11723_i002_EN300-307464_i001_14_13_1
  43   45   2   0   0
SMALL
USER_CHARGES
@<TRIPOS>ATOM
     1 C1         1.0268   -14.8246     7.2637 C.3        1 BB1          0.0000
     2 N2         1.0820   -15.2011     8.6826 N.am       1 BB1          0.0000
     3 C3        -0.1003   -16.0039     9.0226 C.3        1 BB1          0.0000
     4 C4        -0.0784   -17.2998     8.2146 C.3        1 BB1          0.0000
     5 C5        -1.1930   -18.2141     8.7369 C.3        1 BB1          0.0000
     6 C6        -0.8039   -18.6994    10.1317 C.3        1 BB1          0.0000
     7 C7        -0.4197   -17.5368    11.0091 C.ar       1 BB1          0.0000
     8 C8        -0.4001   -17.7417    12.3824 C.ar       1 BB1          0.0000
     9 C9        -0.0516   -16.7180    13.2393 C.ar       1 BB1          0.0000
    10 C10        0.2811   -15.4778    12.7275 C.ar       1 BB1          0.0000
    11 C11        0.2600   -15.2716    11.3634 C.ar       1 BB1          0.0000
    12 C12       -0.0915   -16.3003    10.4994 C.ar       1 BB1          0.0000
    13 H13        1.1151   -15.7189     6.6468 H          1 BB1          0.0000
    14 H14        0.0773   -14.3318     7.0552 H          1 BB1          0.0000
    15 H15        1.8471   -14.1439     7.0362 H          1 BB1          0.0000
    16 H16       -1.0002   -15.4410     8.7748 H          1 BB1          0.0000
    17 H17       -0.2487   -17.0785     7.1609 H          1 BB1          0.0000
    18 H18        0.8867   -17.7917     8.3356 H          1 BB1          0.0000
    19 H19       -2.1292   -17.6583     8.7895 H          1 BB1          0.0000
    20 H20       -1.3097   -19.0683     8.0701 H          1 BB1          0.0000
    21 H21       -1.6488   -19.2232    10.5788 H          1 BB1          0.0000
    22 H22        0.0407   -19.3837    10.0515 H          1 BB1          0.0000
    23 H23       -0.6602   -18.7103    12.7832 H          1 BB1          0.0000
    24 H24       -0.0392   -16.8849    14.3062 H          1 BB1          0.0000
    25 H25        0.5562   -14.6730    13.3930 H          1 BB1          0.0000
    26 H26        0.5191   -14.3020    10.9643 H          1 BB1          0.0000
    27 C2        -0.3993   -13.5023    10.5493 C.2        2 BB2          0.0000
    28 O3         0.2983   -14.1479     9.7785 O.2        2 BB2          0.0000
    29 C4        -0.9088   -12.1859    10.1499 C.2        2 BB2          0.0000
    30 C5        -0.6910   -11.7335     8.9156 C.2        2 BB2          0.0000
    31 C6        -1.6786   -11.3451    11.1356 C.3        2 BB2          0.0000
    32 N7        -2.9047   -10.8515    10.5037 N.pl3      2 BB2          0.0000
    33 C8        -4.0165   -11.5902    10.2008 C.2        2 BB2          0.0000
    34 C9        -4.9014   -10.7480     9.6340 C.2        2 BB2          0.0000
    35 N10       -4.3450    -9.5283     9.5919 N.2        2 BB2          0.0000
    36 C11       -3.1512    -9.5815    10.1165 C.2        2 BB2          0.0000
    37 H12       -1.0661   -10.7644     8.6216 H          2 BB2          0.0000
    38 H13       -0.1393   -12.3361     8.2092 H          2 BB2          0.0000
    39 H14       -1.9360   -11.9494    12.0054 H          2 BB2          0.0000
    40 H15       -1.0657   -10.4999    11.4489 H          2 BB2          0.0000
    41 H16       -4.1569   -12.6458    10.3811 H          2 BB2          0.0000
    42 H17       -5.8863   -11.0089     9.2761 H          2 BB2          0.0000
    43 H18       -2.4704    -8.7492    10.2173 H          2 BB2          0.0000
@<TRIPOS>BOND
     1      1      2 1
     2      1     13 1
     3      1     14 1
     4      1     15 1
     5      2      3 1
     6      3      4 1
     7      3     12 1
     8      3     16 1
     9      4      5 1
    10      4     17 1
    11      4     18 1
    12      5      6 1
    13      5     19 1
    14      5     20 1
    15      6      7 1
    16      6     21 1
    17      6     22 1
    18      7      8 ar
    19      7     12 ar
    20      8      9 ar
    21      8     23 1
    22      9     10 ar
    23      9     24 1
    24     10     11 ar
    25     10     25 1
    26     11     12 ar
    27     11     26 1
    28     27     28 2
    29     27     29 1
    30     29     30 2
    31     29     31 1
    32     30     37 1
    33     30     38 1
    34     31     32 1
    35     31     39 1
    36     31     40 1
    37     32     33 1
    38     32     36 1
    39     33     34 2
    40     33     41 1
    41     34     35 1
    42     34     42 1
    43     35     36 2
    44     36     43 1
    45      2     27 am
@<TRIPOS>SUBSTRUCTURE
     1 BB1           2
     2 BB2          27
@<TRIPOS>MOLECULE
EN300-11723_i002_EN300-206926_i001_14_9_1
  41   42   2   0   0
SMALL
USER_CHARGES
@<TRIPOS>ATOM
     1 C1         1.0268   -14.8246     7.2637 C.3        1 BB1          0.0000
     2 N2         1.0820   -15.2011     8.6826 N.am       1 BB1          0.0000
     3 C3        -0.1003   -16.0039     9.0226 C.3        1 BB1          0.0000
     4 C4        -0.0784   -17.2998     8.2146 C.3        1 BB1          0.0000
     5 C5        -1.1930   -18.2141     8.7369 C.3        1 BB1          0.0000
     6 C6        -0.8039   -18.6994    10.1317 C.3        1 BB1          0.0000
     7 C7        -0.4197   -17.5368    11.0091 C.ar       1 BB1          0.0000
     8 C8        -0.4001   -17.7417    12.3824 C.ar       1 BB1          0.0000
     9 C9        -0.0516   -16.7180    13.2393 C.ar       1 BB1          0.0000
    10 C10        0.2811   -15.4778    12.7275 C.ar       1 BB1          0.0000
    11 C11        0.2600   -15.2716    11.3634 C.ar       1 BB1          0.0000
    12 C12       -0.0915   -16.3003    10.4994 C.ar       1 BB1          0.0000
    13 H13        1.1151   -15.7189     6.6468 H          1 BB1          0.0000
    14 H14        0.0773   -14.3318     7.0552 H          1 BB1          0.0000
    15 H15        1.8471   -14.1439     7.0362 H          1 BB1          0.0000
    16 H16       -1.0002   -15.4410     8.7748 H          1 BB1          0.0000
    17 H17       -0.2487   -17.0785     7.1609 H          1 BB1          0.0000
    18 H18        0.8867   -17.7917     8.3356 H          1 BB1          0.0000
    19 H19       -2.1292   -17.6583     8.7895 H          1 BB1          0.0000
    20 H20       -1.3097   -19.0683     8.0701 H          1 BB1          0.0000
    21 H21       -1.6488   -19.2232    10.5788 H          1 BB1          0.0000
    22 H22        0.0407   -19.3837    10.0515 H          1 BB1          0.0000
    23 H23       -0.6602   -18.7103    12.7832 H          1 BB1          0.0000
    24 H24       -0.0392   -16.8849    14.3062 H          1 BB1          0.0000
    25 H25        0.5562   -14.6730    13.3930 H          1 BB1          0.0000
    26 H26        0.5191   -14.3020    10.9643 H          1 BB1          0.0000
    27 C1        -4.4235   -10.4520    10.0654 C.3        2 BB2          0.0000
    28 C2        -2.9377   -10.2731     9.8882 C.2        2 BB2          0.0000
    29 O3        -2.5093    -9.3009     9.3022 O.2        2 BB2          0.0000
    30 S4        -1.8542   -11.4417    10.5139 S.3        2 BB2          0.0000
    31 C5        -1.0846   -12.0111     8.9778 C.3        2 BB2          0.0000
    32 C6         0.3153   -12.5505     9.2783 C.3        2 BB2          0.0000
    33 C7         0.8842   -13.1897     8.0377 C.2        2 BB2          0.0000
    34 O9         1.1697   -14.3750     8.0388 O.2        2 BB2          0.0000
    35 H10       -4.8255   -11.0110     9.2203 H          2 BB2          0.0000
    36 H11       -4.6162   -10.9997    10.9879 H          2 BB2          0.0000
    37 H12       -4.9037    -9.4748    10.1159 H          2 BB2          0.0000
    38 H13       -1.6923   -12.8021     8.5384 H          2 BB2          0.0000
    39 H14       -1.0107   -11.1785     8.2782 H          2 BB2          0.0000
    40 H15        0.9608   -11.7307     9.5932 H          2 BB2          0.0000
    41 H16        0.2555   -13.2924    10.0745 H          2 BB2          0.0000
@<TRIPOS>BOND
     1      1      2 1
     2      1     13 1
     3      1     14 1
     4      1     15 1
     5      2      3 1
     6      3      4 1
     7      3     12 1
     8      3     16 1
     9      4      5 1
    10      4     17 1
    11      4     18 1
    12      5      6 1
    13      5     19 1
    14      5     20 1
    15      6      7 1
    16      6     21 1
    17      6     22 1
    18      7      8 ar
    19      7     12 ar
    20      8      9 ar
    21      8     23 1
    22      9     10 ar
    23      9     24 1
    24     10     11 ar
    25     10     25 1
    26     11     12 ar
    27     11     26 1
    28     27     28 1
    29     27     35 1
    30     27     36 1
    31     27     37 1
    32     28     29 2
    33     28     30 1
    34     30     31 1
    35     31     32 1
    36     31     38 1
    37     31     39 1
    38     32     33 1
    39     32     40 1
    40     32     41 1
    41     33     34 2
    42      2     33 am
@<TRIPOS>SUBSTRUCTURE
     1 BB1           2
     2 BB2          33
@<TRIPOS>MOLECULE
EN300-11723_i002_EN300-315786_i001_15_20_1
  54   57   2   0   0
SMALL
USER_CHARGES
@<TRIPOS>ATOM
     1 C1        -0.7022   -18.5178     9.7848 C.3        1 BB1          0.0000
     2 N2         0.4668   -19.1824    10.3764 N.am       1 BB1          0.0000
     3 C3         0.1365   -19.6378    11.7335 C.3        1 BB1          0.0000
     4 C4         0.6165   -21.0766    11.9127 C.3        1 BB1          0.0000
     5 C5         0.4605   -21.4579    13.3896 C.3        1 BB1          0.0000
     6 C6         1.4895   -20.6733    14.2009 C.3        1 BB1          0.0000
     7 C7         1.4149   -19.2050    13.8727 C.ar       1 BB1          0.0000
     8 C8         1.9990   -18.3129    14.7623 C.ar       1 BB1          0.0000
     9 C9         1.9689   -16.9558    14.5159 C.ar       1 BB1          0.0000
    10 C10        1.3527   -16.4791    13.3741 C.ar       1 BB1          0.0000
    11 C11        0.7698   -17.3636    12.4900 C.ar       1 BB1          0.0000
    12 C12        0.7982   -18.7298    12.7369 C.ar       1 BB1          0.0000
    13 H13       -1.5012   -19.2457     9.6437 H          1 BB1          0.0000
    14 H14       -1.0454   -17.7260    10.4505 H          1 BB1          0.0000
    15 H15       -0.4272   -18.0888     8.8213 H          1 BB1          0.0000
    16 H16       -0.9439   -19.5994    11.8724 H          1 BB1          0.0000
    17 H17        0.0148   -21.7440    11.2957 H          1 BB1          0.0000
    18 H18        1.6644   -21.1528    11.6226 H          1 BB1          0.0000
    19 H19       -0.5441   -21.2064    13.7295 H          1 BB1          0.0000
    20 H20        0.6334   -22.5269    13.5130 H          1 BB1          0.0000
    21 H21        1.2927   -20.8144    15.2636 H          1 BB1          0.0000
    22 H22        2.4881   -21.0432    13.9687 H          1 BB1          0.0000
    23 H23        2.4803   -18.6846    15.6549 H          1 BB1          0.0000
    24 H24        2.4248   -16.2682    15.2127 H          1 BB1          0.0000
    25 H25        1.3273   -15.4179    13.1748 H          1 BB1          0.0000
    26 H26        0.2877   -16.9903    11.5986 H          1 BB1          0.0000
    27 C2        -0.5377   -17.8247    11.2208 C.2        2 BB2          0.0000
    28 O3        -0.3032   -18.6368    10.3375 O.2        2 BB2          0.0000
    29 C4        -0.4243   -16.3776    10.9432 C.ar       2 BB2          0.0000
    30 C5        -0.2026   -15.9318     9.6383 C.ar       2 BB2          0.0000
    31 C6        -0.0970   -14.5821     9.3802 C.ar       2 BB2          0.0000
    32 C7        -0.2115   -13.6610    10.4221 C.ar       2 BB2          0.0000
    33 C8        -0.4330   -14.1058    11.7261 C.ar       2 BB2          0.0000
    34 C9        -0.5446   -15.4549    11.9848 C.ar       2 BB2          0.0000
    35 C10       -0.0973   -12.2109    10.1440 C.2        2 BB2          0.0000
    36 O11        0.9278   -11.7619     9.6706 O.2        2 BB2          0.0000
    37 N12       -1.1304   -11.3892    10.4159 N.am       2 BB2          0.0000
    38 C13       -1.0720    -9.9596    10.0720 C.3        2 BB2          0.0000
    39 C14       -2.3448    -9.5960     9.2988 C.3        2 BB2          0.0000
    40 O15       -3.4870   -10.0234    10.0447 O.3        2 BB2          0.0000
    41 C16       -3.5607   -11.4373    10.2434 C.3        2 BB2          0.0000
    42 C17       -2.3525   -11.8963    11.0600 C.3        2 BB2          0.0000
    43 H18       -0.1136   -16.6445     8.8319 H          2 BB2          0.0000
    44 H19        0.0749   -14.2372     8.3712 H          2 BB2          0.0000
    45 H20       -0.5212   -13.3924    12.5321 H          2 BB2          0.0000
    46 H21       -0.7164   -15.7990    12.9940 H          2 BB2          0.0000
    47 H22       -1.0137    -9.3648    10.9836 H          2 BB2          0.0000
    48 H23       -0.1974    -9.7669     9.4509 H          2 BB2          0.0000
    49 H24       -2.3873    -8.5164     9.1546 H          2 BB2          0.0000
    50 H25       -2.3362   -10.0935     8.3290 H          2 BB2          0.0000
    51 H26       -4.4778   -11.6824    10.7789 H          2 BB2          0.0000
    52 H27       -3.5565   -11.9414     9.2771 H          2 BB2          0.0000
    53 H28       -2.3256   -12.9854    11.0954 H          2 BB2          0.0000
    54 H29       -2.4202   -11.4971    12.0720 H          2 BB2          0.0000
@<TRIPOS>BOND
     1      1      2 1
     2      1     13 1
     3      1     14 1
     4      1     15 1
     5      2      3 1
     6      3      4 1
     7      3     12 1
     8      3     16 1
     9      4      5 1
    10      4     17 1
    11      4     18 1
    12      5      6 1
    13      5     19 1
    14      5     20 1
    15      6      7 1
    16      6     21 1
    17      6     22 1
    18      7      8 ar
    19      7     12 ar
    20      8      9 ar
    21      8     23 1
    22      9     10 ar
    23      9     24 1
    24     10     11 ar
    25     10     25 1
    26     11     12 ar
    27     11     26 1
    28     27     28 2
    29     27     29 1
    30     29     30 ar
    31     29     34 ar
    32     30     31 ar
    33     30     43 1
    34     31     32 ar
    35     31     44 1
    36     32     33 ar
    37     32     35 1
    38     33     34 ar
    39     33     45 1
    40     34     46 1
    41     35     36 2
    42     35     37 am
    43     37     38 1
    44     37     42 1
    45     38     39 1
    46     38     47 1
    47     38     48 1
    48     39     40 1
    49     39     49 1
    50     39     50 1
    51     40     41 1
    52     41     42 1
    53     41     51 1
    54     41     52 1
    55     42     53 1
    56     42     54 1
    57      2     27 am
@<TRIPOS>SUBSTRUCTURE
     1 BB1           2
     2 BB2          27
@<TRIPOS>MOLECULE
EN300-11723_i002_EN300-1198129_i001_18_19_1
  50   52   2   0   0
SMALL
USER_CHARGES
@<TRIPOS>ATOM
     1 C1        -0.7571   -18.4032     8.5881 C.3        1 BB1          0.0000
     2 N2        -0.3614   -17.8459     9.8884 N.am       1 BB1          0.0000
     3 C3        -0.8222   -18.7352    10.9630 C.3        1 BB1          0.0000
     4 C4        -0.3077   -20.1494    10.7017 C.3        1 BB1          0.0000
     5 C5        -0.6118   -21.0098    11.9339 C.3        1 BB1          0.0000
     6 C6         0.2881   -20.5476    13.0781 C.3        1 BB1          0.0000
     7 C7         0.1917   -19.0552    13.2581 C.ar       1 BB1          0.0000
     8 C8         0.6367   -18.5186    14.4591 C.ar       1 BB1          0.0000
     9 C9         0.5798   -17.1584    14.6833 C.ar       1 BB1          0.0000
    10 C10        0.0760   -16.3220    13.7049 C.ar       1 BB1          0.0000
    11 C11       -0.3688   -16.8535    12.5118 C.ar       1 BB1          0.0000
    12 C12       -0.3134   -18.2223    12.2847 C.ar       1 BB1          0.0000
    13 H13       -0.2256   -19.3393     8.4170 H          1 BB1          0.0000
    14 H14       -1.8311   -18.5892     8.5842 H          1 BB1          0.0000
    15 H15       -0.5082   -17.6945     7.7981 H          1 BB1          0.0000
    16 H16       -1.9120   -18.7462    10.9777 H          1 BB1          0.0000
    17 H17       -0.8098   -20.5673     9.8291 H          1 BB1          0.0000
    18 H18        0.7682   -20.1226    10.5291 H          1 BB1          0.0000
    19 H19       -1.6574   -20.8887    12.2172 H          1 BB1          0.0000
    20 H20       -0.4110   -22.0572    11.7088 H          1 BB1          0.0000
    21 H21       -0.0200   -21.0415    13.9996 H          1 BB1          0.0000
    22 H22        1.3204   -20.8168    12.8546 H          1 BB1          0.0000
    23 H23        1.0302   -19.1714    15.2242 H          1 BB1          0.0000
    24 H24        0.9274   -16.7486    15.6201 H          1 BB1          0.0000
    25 H25        0.0303   -15.2563    13.8738 H          1 BB1          0.0000
    26 H26       -0.7633   -16.1994    11.7482 H          1 BB1          0.0000
    27 O1        -0.3046   -17.2320    10.9820 O.2        2 BB2          0.0000
    28 C2        -0.0992   -16.0437    11.1864 C.2        2 BB2          0.0000
    29 C4        -0.0979   -15.0920    10.0614 C.ar       2 BB2          0.0000
    30 C5        -0.0950   -13.7157    10.3052 C.ar       2 BB2          0.0000
    31 C6        -0.0937   -12.8313     9.2479 C.ar       2 BB2          0.0000
    32 C7        -0.0957   -13.3016     7.9456 C.ar       2 BB2          0.0000
    33 C8        -0.0987   -14.6609     7.6932 C.ar       2 BB2          0.0000
    34 C9        -0.0936   -15.5616     8.7423 C.ar       2 BB2          0.0000
    35 F10       -0.0964   -16.8898     8.4955 F          2 BB2          0.0000
    36 S11       -0.0901   -11.0963     9.5546 S.o2       2 BB2          0.0000
    37 O12        1.2590   -10.8027     9.8907 O.2        2 BB2          0.0000
    38 O13       -0.6960   -10.5347     8.3985 O.2        2 BB2          0.0000
    39 C14       -1.1656   -10.8901    11.0008 C.3        2 BB2          0.0000
    40 C15       -2.3179    -9.9470    10.6491 C.3        2 BB2          0.0000
    41 C16       -3.4317   -10.7237    10.0809 C.1        2 BB2          0.0000
    42 C17       -4.3201   -11.3431     9.6277 C.1        2 BB2          0.0000
    43 H18       -0.0940   -13.3459    11.3199 H          2 BB2          0.0000
    44 H19       -0.0955   -12.6026     7.1222 H          2 BB2          0.0000
    45 H20       -0.1002   -15.0199     6.6747 H          2 BB2          0.0000
    46 H21       -1.5669   -11.8595    11.2963 H          2 BB2          0.0000
    47 H22       -0.5898   -10.4688    11.8248 H          2 BB2          0.0000
    48 H23       -2.6551    -9.4338    11.5497 H          2 BB2          0.0000
    49 H24       -1.9769    -9.2132     9.9188 H          2 BB2          0.0000
    50 H25       -5.1147   -11.8971     9.2224 H          2 BB2          0.0000
@<TRIPOS>BOND
     1      1      2 1
     2      1     13 1
     3      1     14 1
     4      1     15 1
     5      2      3 1
     6      3      4 1
     7      3     12 1
     8      3     16 1
     9      4      5 1
    10      4     17 1
    11      4     18 1
    12      5      6 1
    13      5     19 1
    14      5     20 1
    15      6      7 1
    16      6     21 1
    17      6     22 1
    18      7      8 ar
    19      7     12 ar
    20      8      9 ar
    21      8     23 1
    22      9     10 ar
    23      9     24 1
    24     10     11 ar
    25     10     25 1
    26     11     12 ar
    27     11     26 1
    28     27     28 2
    29     28     29 1
    30     29     30 ar
    31     29     34 ar
    32     30     31 ar
    33     30     43 1
    34     31     32 ar
    35     31     36 1
    36     32     33 ar
    37     32     44 1
    38     33     34 ar
    39     33     45 1
    40     34     35 1
    41     36     37 2
    42     36     38 2
    43     36     39 1
    44     39     40 1
    45     39     46 1
    46     39     47 1
    47     40     41 1
    48     40     48 1
    49     40     49 1
    50     41     42 3
    51     42     50 1
    52      2     28 am
@<TRIPOS>SUBSTRUCTURE
     1 BB1           2
     2 BB2          28
@<TRIPOS>MOLECULE
EN300-11723_i002_EN300-306118_i001_18_17_1
  48   51   2   0   0
SMALL
USER_CHARGES
@<TRIPOS>ATOM
     1 C1        -0.7571   -18.4032     8.5881 C.3        1 BB1          0.0000
     2 N2        -0.3614   -17.8459     9.8884 N.am       1 BB1          0.0000
     3 C3        -0.8222   -18.7352    10.9630 C.3        1 BB1          0.0000
     4 C4        -0.3077   -20.1494    10.7017 C.3        1 BB1          0.0000
     5 C5        -0.6118   -21.0098    11.9339 C.3        1 BB1          0.0000
     6 C6         0.2881   -20.5476    13.0781 C.3        1 BB1          0.0000
     7 C7         0.1917   -19.0552    13.2581 C.ar       1 BB1          0.0000
     8 C8         0.6367   -18.5186    14.4591 C.ar       1 BB1          0.0000
     9 C9         0.5798   -17.1584    14.6833 C.ar       1 BB1          0.0000
    10 C10        0.0760   -16.3220    13.7049 C.ar       1 BB1          0.0000
    11 C11       -0.3688   -16.8535    12.5118 C.ar       1 BB1          0.0000
    12 C12       -0.3134   -18.2223    12.2847 C.ar       1 BB1          0.0000
    13 H13       -0.2256   -19.3393     8.4170 H          1 BB1          0.0000
    14 H14       -1.8311   -18.5892     8.5842 H          1 BB1          0.0000
    15 H15       -0.5082   -17.6945     7.7981 H          1 BB1          0.0000
    16 H16       -1.9120   -18.7462    10.9777 H          1 BB1          0.0000
    17 H17       -0.8098   -20.5673     9.8291 H          1 BB1          0.0000
    18 H18        0.7682   -20.1226    10.5291 H          1 BB1          0.0000
    19 H19       -1.6574   -20.8887    12.2172 H          1 BB1          0.0000
    20 H20       -0.4110   -22.0572    11.7088 H          1 BB1          0.0000
    21 H21       -0.0200   -21.0415    13.9996 H          1 BB1          0.0000
    22 H22        1.3204   -20.8168    12.8546 H          1 BB1          0.0000
    23 H23        1.0302   -19.1714    15.2242 H          1 BB1          0.0000
    24 H24        0.9274   -16.7486    15.6201 H          1 BB1          0.0000
    25 H25        0.0303   -15.2563    13.8738 H          1 BB1          0.0000
    26 H26       -0.7633   -16.1994    11.7482 H          1 BB1          0.0000
    27 O1        -0.1025   -16.2314     9.1013 O.2        2 BB2          0.0000
    28 C2         0.1377   -15.1500     9.6193 C.2        2 BB2          0.0000
    29 C4         0.3036   -13.9496     8.7778 C.ar       2 BB2          0.0000
    30 C5         0.9945   -14.0317     7.5664 C.ar       2 BB2          0.0000
    31 C6         1.1457   -12.9052     6.7847 C.ar       2 BB2          0.0000
    32 C7         0.6154   -11.6960     7.1982 C.ar       2 BB2          0.0000
    33 C8        -0.0703   -11.6071     8.3972 C.ar       2 BB2          0.0000
    34 C9        -0.2347   -12.7263     9.1858 C.ar       2 BB2          0.0000
    35 C10       -0.9821   -12.6276    10.4908 C.3        2 BB2          0.0000
    36 N11       -2.0934   -11.6839    10.3468 N.pl3      2 BB2          0.0000
    37 C12       -1.9923   -10.3346    10.3447 C.2        2 BB2          0.0000
    38 C13       -3.2511    -9.8624    10.1881 C.2        2 BB2          0.0000
    39 N14       -4.0501   -10.9319    10.1033 N.2        2 BB2          0.0000
    40 N15       -3.3329   -11.9958    10.1953 N.2        2 BB2          0.0000
    41 H16        1.4095   -14.9748     7.2428 H          2 BB2          0.0000
    42 H17        1.6796   -12.9671     5.8480 H          2 BB2          0.0000
    43 H18        0.7375   -10.8170     6.5825 H          2 BB2          0.0000
    44 H19       -0.4813   -10.6599     8.7138 H          2 BB2          0.0000
    45 H20       -1.3716   -13.6090    10.7615 H          2 BB2          0.0000
    46 H21       -0.3064   -12.2770    11.2708 H          2 BB2          0.0000
    47 H22       -1.0890    -9.7516    10.4475 H          2 BB2          0.0000
    48 H23       -3.5514    -8.8261    10.1412 H          2 BB2          0.0000
@<TRIPOS>BOND
     1      1      2 1
     2      1     13 1
     3      1     14 1
     4      1     15 1
     5      2      3 1
     6      3      4 1
     7      3     12 1
     8      3     16 1
     9      4      5 1
    10      4     17 1
    11      4     18 1
    12      5      6 1
    13      5     19 1
    14      5     20 1
    15      6      7 1
    16      6     21 1
    17      6     22 1
    18      7      8 ar
    19      7     12 ar
    20      8      9 ar
    21      8     23 1
    22      9     10 ar
    23      9     24 1
    24     10     11 ar
    25     10     25 1
    26     11     12 ar
    27     11     26 1
    28     27     28 2
    29     28     29 1
    30     29     30 ar
    31     29     34 ar
    32     30     31 ar
    33     30     41 1
    34     31     32 ar
    35     31     42 1
    36     32     33 ar
    37     32     43 1
    38     33     34 ar
    39     33     44 1
    40     34     35 1
    41     35     36 1
    42     35     45 1
    43     35     46 1
    44     36     37 1
    45     36     40 1
    46     37     38 2
    47     37     47 1
    48     38     39 1
    49     38     48 1
    50     39     40 2
    51      2     28 am
@<TRIPOS>SUBSTRUCTURE
     1 BB1           2
     2 BB2          28
@<TRIPOS>MOLECULE
EN300-11723_i002_EN300-222254_i002_19_20_1
  49   52   2   0   0
SMALL
USER_CHARGES
@<TRIPOS>ATOM
     1 C1        -0.4506   -17.7321    11.1036 C.3        1 BB1          0.0000
     2 N2         0.4004   -16.5407    10.9832 N.am       1 BB1          0.0000
     3 C3        -0.4338   -15.3727    10.6703 C.3        1 BB1          0.0000
     4 C4        -0.3075   -14.3477    11.7956 C.3        1 BB1          0.0000
     5 C5        -1.0062   -13.0563    11.3538 C.3        1 BB1          0.0000
     6 C6        -0.1768   -12.4160    10.2425 C.3        1 BB1          0.0000
     7 C7         0.1271   -13.4209     9.1623 C.ar       1 BB1          0.0000
     8 C8         0.5375   -12.9381     7.9267 C.ar       1 BB1          0.0000
     9 C9         0.8358   -13.8076     6.8978 C.ar       1 BB1          0.0000
    10 C10        0.7256   -15.1709     7.0977 C.ar       1 BB1          0.0000
    11 C11        0.3158   -15.6526     8.3240 C.ar       1 BB1          0.0000
    12 C12        0.0142   -14.7790     9.3604 C.ar       1 BB1          0.0000
    13 H13       -1.1071   -17.6240    11.9669 H          1 BB1          0.0000
    14 H14       -1.0521   -17.8416    10.2012 H          1 BB1          0.0000
    15 H15        0.1759   -18.6147    11.2319 H          1 BB1          0.0000
    16 H16       -1.4741   -15.6866    10.5850 H          1 BB1          0.0000
    17 H17       -0.7834   -14.7324    12.6977 H          1 BB1          0.0000
    18 H18        0.7454   -14.1466    11.9925 H          1 BB1          0.0000
    19 H19       -2.0037   -13.2878    10.9805 H          1 BB1          0.0000
    20 H20       -1.0795   -12.3713    12.1984 H          1 BB1          0.0000
    21 H21       -0.7338   -11.5836     9.8125 H          1 BB1          0.0000
    22 H22        0.7584   -12.0440    10.6608 H          1 BB1          0.0000
    23 H23        0.6236   -11.8730     7.7696 H          1 BB1          0.0000
    24 H24        1.1539   -13.4245     5.9395 H          1 BB1          0.0000
    25 H25        0.9592   -15.8567     6.2968 H          1 BB1          0.0000
    26 H26        0.2290   -16.7179     8.4791 H          1 BB1          0.0000
    27 O1        -0.1937   -15.4726    12.3986 O.2        2 BB2          0.0000
    28 C2        -0.2904   -16.6423    12.7290 C.2        2 BB2          0.0000
    29 C4         0.4712   -17.1529    13.9248 C.3        2 BB2          0.0000
    30 C5         1.6394   -16.2452    14.3447 C.3        2 BB2          0.0000
    31 C6         2.4427   -17.5309    14.6026 C.3        2 BB2          0.0000
    32 C7         1.5260   -18.2160    13.5753 C.3        2 BB2          0.0000
    33 C8         1.1243   -19.6156    13.9636 C.ar       2 BB2          0.0000
    34 C9         0.6320   -19.8668    15.2300 C.ar       2 BB2          0.0000
    35 C10        0.2636   -21.1505    15.5872 C.ar       2 BB2          0.0000
    36 C11        0.3868   -22.1850    14.6770 C.ar       2 BB2          0.0000
    37 Cl12      -0.0766   -23.7965    15.1264 Cl         2 BB2          0.0000
    38 C13        0.8790   -21.9351    13.4085 C.ar       2 BB2          0.0000
    39 C14        1.2430   -20.6489    13.0492 C.ar       2 BB2          0.0000
    40 F15        1.7234   -20.4034    11.8106 F          2 BB2          0.0000
    41 H16       -0.1798   -17.4371    14.7515 H          2 BB2          0.0000
    42 H17        2.0357   -15.6387    13.5304 H          2 BB2          0.0000
    43 H18        1.4403   -15.6665    15.2467 H          2 BB2          0.0000
    44 H19        3.4833   -17.4666    14.2848 H          2 BB2          0.0000
    45 H20        2.3314   -17.9196    15.6148 H          2 BB2          0.0000
    46 H21        1.8913   -18.1483    12.5506 H          2 BB2          0.0000
    47 H22        0.5354   -19.0599    15.9414 H          2 BB2          0.0000
    48 H23       -0.1204   -21.3460    16.5776 H          2 BB2          0.0000
    49 H24        0.9754   -22.7424    12.6977 H          2 BB2          0.0000
@<TRIPOS>BOND
     1      1      2 1
     2      1     13 1
     3      1     14 1
     4      1     15 1
     5      2      3 1
     6      3      4 1
     7      3     12 1
     8      3     16 1
     9      4      5 1
    10      4     17 1
    11      4     18 1
    12      5      6 1
    13      5     19 1
    14      5     20 1
    15      6      7 1
    16      6     21 1
    17      6     22 1
    18      7      8 ar
    19      7     12 ar
    20      8      9 ar
    21      8     23 1
    22      9     10 ar
    23      9     24 1
    24     10     11 ar
    25     10     25 1
    26     11     12 ar
    27     11     26 1
    28     27     28 2
    29     28     29 1
    30     29     30 1
    31     29     32 1
    32     29     41 1
    33     30     31 1
    34     30     42 1
    35     30     43 1
    36     31     32 1
    37     31     44 1
    38     31     45 1
    39     32     33 1
    40     32     46 1
    41     33     34 ar
    42     33     39 ar
    43     34     35 ar
    44     34     47 1
    45     35     36 ar
    46     35     48 1
    47     36     37 1
    48     36     38 ar
    49     38     39 ar
    50     38     49 1
    51     39     40 1
    52      2     28 am
@<TRIPOS>SUBSTRUCTURE
     1 BB1           2
     2 BB2          28
@<TRIPOS>MOLECULE
EN300-11723_i002_EN300-218565_i001_19_19_1
  55   58   2   0   0
SMALL
USER_CHARGES
@<TRIPOS>ATOM
     1 C1        -0.4506   -17.7321    11.1036 C.3        1 BB1          0.0000
     2 N2         0.4004   -16.5407    10.9832 N.am       1 BB1          0.0000
     3 C3        -0.4338   -15.3727    10.6703 C.3        1 BB1          0.0000
     4 C4        -0.3075   -14.3477    11.7956 C.3        1 BB1          0.0000
     5 C5        -1.0062   -13.0563    11.3538 C.3        1 BB1          0.0000
     6 C6        -0.1768   -12.4160    10.2425 C.3        1 BB1          0.0000
     7 C7         0.1271   -13.4209     9.1623 C.ar       1 BB1          0.0000
     8 C8         0.5375   -12.9381     7.9267 C.ar       1 BB1          0.0000
     9 C9         0.8358   -13.8076     6.8978 C.ar       1 BB1          0.0000
    10 C10        0.7256   -15.1709     7.0977 C.ar       1 BB1          0.0000
    11 C11        0.3158   -15.6526     8.3240 C.ar       1 BB1          0.0000
    12 C12        0.0142   -14.7790     9.3604 C.ar       1 BB1          0.0000
    13 H13       -1.1071   -17.6240    11.9669 H          1 BB1          0.0000
    14 H14       -1.0521   -17.8416    10.2012 H          1 BB1          0.0000
    15 H15        0.1759   -18.6147    11.2319 H          1 BB1          0.0000
    16 H16       -1.4741   -15.6866    10.5850 H          1 BB1          0.0000
    17 H17       -0.7834   -14.7324    12.6977 H          1 BB1          0.0000
    18 H18        0.7454   -14.1466    11.9925 H          1 BB1          0.0000
    19 H19       -2.0037   -13.2878    10.9805 H          1 BB1          0.0000
    20 H20       -1.0795   -12.3713    12.1984 H          1 BB1          0.0000
    21 H21       -0.7338   -11.5836     9.8125 H          1 BB1          0.0000
    22 H22        0.7584   -12.0440    10.6608 H          1 BB1          0.0000
    23 H23        0.6236   -11.8730     7.7696 H          1 BB1          0.0000
    24 H24        1.1539   -13.4245     5.9395 H          1 BB1          0.0000
    25 H25        0.9592   -15.8567     6.2968 H          1 BB1          0.0000
    26 H26        0.2290   -16.7179     8.4791 H          1 BB1          0.0000
    27 C2         0.4696   -16.2653    13.4183 C.2        2 BB2          0.0000
    28 O3        -0.5642   -16.0267    12.8156 O.2        2 BB2          0.0000
    29 C4         1.4026   -17.3220    12.9147 C.2        2 BB2          0.0000
    30 O5         2.5989   -17.1206    12.9058 O.2        2 BB2          0.0000
    31 N6         0.9137   -18.4970    12.4711 N.am       2 BB2          0.0000
    32 C7         1.8144   -19.5587    11.9971 C.3        2 BB2          0.0000
    33 C8         1.4512   -20.8623    12.7163 C.3        2 BB2          0.0000
    34 N9         0.0193   -21.1354    12.5346 N.3        2 BB2          0.0000
    35 C10       -0.8055   -20.0869    13.1496 C.3        2 BB2          0.0000
    36 C11       -0.5344   -18.7538    12.4540 C.3        2 BB2          0.0000
    37 C12       -0.3175   -22.3951    13.0352 C.ar       2 BB2          0.0000
    38 C13        0.2449   -22.8452    14.2230 C.ar       2 BB2          0.0000
    39 C14       -0.0908   -24.0911    14.7154 C.ar       2 BB2          0.0000
    40 C15       -0.9856   -24.8902    14.0276 C.ar       2 BB2          0.0000
    41 C16       -1.5472   -24.4451    12.8448 C.ar       2 BB2          0.0000
    42 C17       -1.2200   -23.1981    12.3495 C.ar       2 BB2          0.0000
    43 H18        1.6938   -19.6880    10.9216 H          2 BB2          0.0000
    44 H19        2.8466   -19.2912    12.2232 H          2 BB2          0.0000
    45 H20        2.0340   -21.6830    12.2981 H          2 BB2          0.0000
    46 H21        1.6708   -20.7645    13.7795 H          2 BB2          0.0000
    47 H22       -1.8593   -20.3452    13.0456 H          2 BB2          0.0000
    48 H23       -0.5545   -19.9998    14.2067 H          2 BB2          0.0000
    49 H24       -1.0560   -17.9538    12.9794 H          2 BB2          0.0000
    50 H25       -0.8793   -18.8030    11.4211 H          2 BB2          0.0000
    51 H26        0.9440   -22.2218    14.7605 H          2 BB2          0.0000
    52 H27        0.3464   -24.4418    15.6386 H          2 BB2          0.0000
    53 H28       -1.2460   -25.8641    14.4147 H          2 BB2          0.0000
    54 H29       -2.2456   -25.0717    12.3101 H          2 BB2          0.0000
    55 H30       -1.6593   -22.8510    11.4259 H          2 BB2          0.0000
@<TRIPOS>BOND
     1      1      2 1
     2      1     13 1
     3      1     14 1
     4      1     15 1
     5      2      3 1
     6      3      4 1
     7      3     12 1
     8      3     16 1
     9      4      5 1
    10      4     17 1
    11      4     18 1
    12      5      6 1
    13      5     19 1
    14      5     20 1
    15      6      7 1
    16      6     21 1
    17      6     22 1
    18      7      8 ar
    19      7     12 ar
    20      8      9 ar
    21      8     23 1
    22      9     10 ar
    23      9     24 1
    24     10     11 ar
    25     10     25 1
    26     11     12 ar
    27     11     26 1
    28     27     28 2
    29     27     29 1
    30     29     30 2
    31     29     31 am
    32     31     32 1
    33     31     36 1
    34     32     33 1
    35     32     43 1
    36     32     44 1
    37     33     34 1
    38     33     45 1
    39     33     46 1
    40     34     35 1
    41     34     37 1
    42     35     36 1
    43     35     47 1
    44     35     48 1
    45     36     49 1
    46     36     50 1
    47     37     38 ar
    48     37     42 ar
    49     38     39 ar
    50     38     51 1
    51     39     40 ar
    52     39     52 1
    53     40     41 ar
    54     40     53 1
    55     41     42 ar
    56     41     54 1
    57     42     55 1
    58      2     27 am
@<TRIPOS>SUBSTRUCTURE
     1 BB1           2
     2 BB2          27
@<TRIPOS>MOLECULE
EN300-11723_i002_EN300-218565_i001_19_20_1
  55   58   2   0   0
SMALL
USER_CHARGES
@<TRIPOS>ATOM
     1 C1        -0.4506   -17.7321    11.1036 C.3        1 BB1          0.0000
     2 N2         0.4004   -16.5407    10.9832 N.am       1 BB1          0.0000
     3 C3        -0.4338   -15.3727    10.6703 C.3        1 BB1          0.0000
     4 C4        -0.3075   -14.3477    11.7956 C.3        1 BB1          0.0000
     5 C5        -1.0062   -13.0563    11.3538 C.3        1 BB1          0.0000
     6 C6        -0.1768   -12.4160    10.2425 C.3        1 BB1          0.0000
     7 C7         0.1271   -13.4209     9.1623 C.ar       1 BB1          0.0000
     8 C8         0.5375   -12.9381     7.9267 C.ar       1 BB1          0.0000
     9 C9         0.8358   -13.8076     6.8978 C.ar       1 BB1          0.0000
    10 C10        0.7256   -15.1709     7.0977 C.ar       1 BB1          0.0000
    11 C11        0.3158   -15.6526     8.3240 C.ar       1 BB1          0.0000
    12 C12        0.0142   -14.7790     9.3604 C.ar       1 BB1          0.0000
    13 H13       -1.1071   -17.6240    11.9669 H          1 BB1          0.0000
    14 H14       -1.0521   -17.8416    10.2012 H          1 BB1          0.0000
    15 H15        0.1759   -18.6147    11.2319 H          1 BB1          0.0000
    16 H16       -1.4741   -15.6866    10.5850 H          1 BB1          0.0000
    17 H17       -0.7834   -14.7324    12.6977 H          1 BB1          0.0000
    18 H18        0.7454   -14.1466    11.9925 H          1 BB1          0.0000
    19 H19       -2.0037   -13.2878    10.9805 H          1 BB1          0.0000
    20 H20       -1.0795   -12.3713    12.1984 H          1 BB1          0.0000
    21 H21       -0.7338   -11.5836     9.8125 H          1 BB1          0.0000
    22 H22        0.7584   -12.0440    10.6608 H          1 BB1          0.0000
    23 H23        0.6236   -11.8730     7.7696 H          1 BB1          0.0000
    24 H24        1.1539   -13.4245     5.9395 H          1 BB1          0.0000
    25 H25        0.9592   -15.8567     6.2968 H          1 BB1          0.0000
    26 H26        0.2290   -16.7179     8.4791 H          1 BB1          0.0000
    27 O1         0.5736   -15.2962    11.9704 O.2        2 BB2          0.0000
    28 C2         1.3446   -15.9926    12.6101 C.2        2 BB2          0.0000
    29 C4         0.8928   -16.6326    13.8856 C.2        2 BB2          0.0000
    30 O5         0.2662   -15.9868    14.6994 O.2        2 BB2          0.0000
    31 N6         1.1820   -17.9260    14.1300 N.am       2 BB2          0.0000
    32 C7         0.7246   -18.5817    15.3646 C.3        2 BB2          0.0000
    33 C8         0.0142   -19.8863    14.9886 C.3        2 BB2          0.0000
    34 N9         0.9023   -20.6985    14.1464 N.3        2 BB2          0.0000
    35 C10        1.2041   -20.0188    12.8796 C.3        2 BB2          0.0000
    36 C11        1.9580   -18.7211    13.1663 C.3        2 BB2          0.0000
    37 C12        0.3565   -21.9637    13.9177 C.ar       2 BB2          0.0000
    38 C13        0.7479   -23.0425    14.7004 C.ar       2 BB2          0.0000
    39 C14        0.2057   -24.2920    14.4719 C.ar       2 BB2          0.0000
    40 C15       -0.7258   -24.4698    13.4654 C.ar       2 BB2          0.0000
    41 C16       -1.1177   -23.3979    12.6845 C.ar       2 BB2          0.0000
    42 C17       -0.5834   -22.1447    12.9110 C.ar       2 BB2          0.0000
    43 H18        1.5814   -18.8016    16.0014 H          2 BB2          0.0000
    44 H19        0.0315   -17.9263    15.8920 H          2 BB2          0.0000
    45 H20       -0.2342   -20.4394    15.8944 H          2 BB2          0.0000
    46 H21       -0.8993   -19.6579    14.4394 H          2 BB2          0.0000
    47 H22        1.8188   -20.6678    12.2559 H          2 BB2          0.0000
    48 H23        0.2742   -19.7884    12.3598 H          2 BB2          0.0000
    49 H24        2.0831   -18.1582    12.2414 H          2 BB2          0.0000
    50 H25        2.9343   -18.9515    13.5929 H          2 BB2          0.0000
    51 H26        1.4756   -22.9044    15.4864 H          2 BB2          0.0000
    52 H27        0.5100   -25.1313    15.0798 H          2 BB2          0.0000
    53 H28       -1.1479   -25.4481    13.2887 H          2 BB2          0.0000
    54 H29       -1.8453   -23.5402    11.8993 H          2 BB2          0.0000
    55 H30       -0.8902   -21.3080    12.3010 H          2 BB2          0.0000
@<TRIPOS>BOND
     1      1      2 1
     2      1     13 1
     3      1     14 1
     4      1     15 1
     5      2      3 1
     6      3      4 1
     7      3     12 1
     8      3     16 1
     9      4      5 1
    10      4     17 1
    11      4     18 1
    12      5      6 1
    13      5     19 1
    14      5     20 1
    15      6      7 1
    16      6     21 1
    17      6     22 1
    18      7      8 ar
    19      7     12 ar
    20      8      9 ar
    21      8     23 1
    22      9     10 ar
    23      9     24 1
    24     10     11 ar
    25     10     25 1
    26     11     12 ar
    27     11     26 1
    28     27     28 2
    29     28     29 1
    30     29     30 2
    31     29     31 am
    32     31     32 1
    33     31     36 1
    34     32     33 1
    35     32     43 1
    36     32     44 1
    37     33     34 1
    38     33     45 1
    39     33     46 1
    40     34     35 1
    41     34     37 1
    42     35     36 1
    43     35     47 1
    44     35     48 1
    45     36     49 1
    46     36     50 1
    47     37     38 ar
    48     37     42 ar
    49     38     39 ar
    50     38     51 1
    51     39     40 ar
    52     39     52 1
    53     40     41 ar
    54     40     53 1
    55     41     42 ar
    56     41     54 1
    57     42     55 1
    58      2     28 am
@<TRIPOS>SUBSTRUCTURE
     1 BB1           2
     2 BB2          28
@<TRIPOS>MOLECULE
EN300-11723_i002_EN300-34862_i002_19_1_1
  38   40   2   0   0
SMALL
USER_CHARGES
@<TRIPOS>ATOM
     1 C1        -0.4506   -17.7321    11.1036 C.3        1 BB1          0.0000
     2 N2         0.4004   -16.5407    10.9832 N.am       1 BB1          0.0000
     3 C3        -0.4338   -15.3727    10.6703 C.3        1 BB1          0.0000
     4 C4        -0.3075   -14.3477    11.7956 C.3        1 BB1          0.0000
     5 C5        -1.0062   -13.0563    11.3538 C.3        1 BB1          0.0000
     6 C6        -0.1768   -12.4160    10.2425 C.3        1 BB1          0.0000
     7 C7         0.1271   -13.4209     9.1623 C.ar       1 BB1          0.0000
     8 C8         0.5375   -12.9381     7.9267 C.ar       1 BB1          0.0000
     9 C9         0.8358   -13.8076     6.8978 C.ar       1 BB1          0.0000
    10 C10        0.7256   -15.1709     7.0977 C.ar       1 BB1          0.0000
    11 C11        0.3158   -15.6526     8.3240 C.ar       1 BB1          0.0000
    12 C12        0.0142   -14.7790     9.3604 C.ar       1 BB1          0.0000
    13 H13       -1.1071   -17.6240    11.9669 H          1 BB1          0.0000
    14 H14       -1.0521   -17.8416    10.2012 H          1 BB1          0.0000
    15 H15        0.1759   -18.6147    11.2319 H          1 BB1          0.0000
    16 H16       -1.4741   -15.6866    10.5850 H          1 BB1          0.0000
    17 H17       -0.7834   -14.7324    12.6977 H          1 BB1          0.0000
    18 H18        0.7454   -14.1466    11.9925 H          1 BB1          0.0000
    19 H19       -2.0037   -13.2878    10.9805 H          1 BB1          0.0000
    20 H20       -1.0795   -12.3713    12.1984 H          1 BB1          0.0000
    21 H21       -0.7338   -11.5836     9.8125 H          1 BB1          0.0000
    22 H22        0.7584   -12.0440    10.6608 H          1 BB1          0.0000
    23 H23        0.6236   -11.8730     7.7696 H          1 BB1          0.0000
    24 H24        1.1539   -13.4245     5.9395 H          1 BB1          0.0000
    25 H25        0.9592   -15.8567     6.2968 H          1 BB1          0.0000
    26 H26        0.2290   -16.7179     8.4791 H          1 BB1          0.0000
    27 C2         1.7110   -16.2827    13.3004 C.2        2 BB2          0.0000
    28 O3         1.8462   -15.5991    12.2999 O.2        2 BB2          0.0000
    29 C4         2.4553   -17.5868    13.4281 C.3        2 BB2          0.0000
    30 C5         2.0008   -18.2992    14.7086 C.3        2 BB2          0.0000
    31 S6         1.3339   -19.8858    14.1146 S.3        2 BB2          0.0000
    32 C7         1.6432   -19.5854    12.4010 C.2        2 BB2          0.0000
    33 O8         1.3812   -20.3543    11.4960 O.2        2 BB2          0.0000
    34 N9         2.2058   -18.3893    12.2522 N.am       2 BB2          0.0000
    35 H10        3.5235   -17.3808    13.4958 H          2 BB2          0.0000
    36 H11        2.8475   -18.4656    15.3747 H          2 BB2          0.0000
    37 H12        1.2247   -17.7226    15.2121 H          2 BB2          0.0000
    38 H13        2.4438   -18.0617    11.3709 H          2 BB2          0.0000
@<TRIPOS>BOND
     1      1      2 1
     2      1     13 1
     3      1     14 1
     4      1     15 1
     5      2      3 1
     6      3      4 1
     7      3     12 1
     8      3     16 1
     9      4      5 1
    10      4     17 1
    11      4     18 1
    12      5      6 1
    13      5     19 1
    14      5     20 1
    15      6      7 1
    16      6     21 1
    17      6     22 1
    18      7      8 ar
    19      7     12 ar
    20      8      9 ar
    21      8     23 1
    22      9     10 ar
    23      9     24 1
    24     10     11 ar
    25     10     25 1
    26     11     12 ar
    27     11     26 1
    28     27     28 2
    29     27     29 1
    30     29     30 1
    31     29     34 1
    32     29     35 1
    33     30     31 1
    34     30     36 1
    35     30     37 1
    36     31     32 1
    37     32     33 2
    38     32     34 am
    39     34     38 1
    40      2     27 am
@<TRIPOS>SUBSTRUCTURE
     1 BB1           2
     2 BB2          27
@<TRIPOS>MOLECULE
EN300-11723_i002_EN300-107901_i001_19_16_1
  52   55   2   0   0
SMALL
USER_CHARGES
@<TRIPOS>ATOM
     1 C1        -0.4506   -17.7321    11.1036 C.3        1 BB1          0.0000
     2 N2         0.4004   -16.5407    10.9832 N.am       1 BB1          0.0000
     3 C3        -0.4338   -15.3727    10.6703 C.3        1 BB1          0.0000
     4 C4        -0.3075   -14.3477    11.7956 C.3        1 BB1          0.0000
     5 C5        -1.0062   -13.0563    11.3538 C.3        1 BB1          0.0000
     6 C6        -0.1768   -12.4160    10.2425 C.3        1 BB1          0.0000
     7 C7         0.1271   -13.4209     9.1623 C.ar       1 BB1          0.0000
     8 C8         0.5375   -12.9381     7.9267 C.ar       1 BB1          0.0000
     9 C9         0.8358   -13.8076     6.8978 C.ar       1 BB1          0.0000
    10 C10        0.7256   -15.1709     7.0977 C.ar       1 BB1          0.0000
    11 C11        0.3158   -15.6526     8.3240 C.ar       1 BB1          0.0000
    12 C12        0.0142   -14.7790     9.3604 C.ar       1 BB1          0.0000
    13 H13       -1.1071   -17.6240    11.9669 H          1 BB1          0.0000
    14 H14       -1.0521   -17.8416    10.2012 H          1 BB1          0.0000
    15 H15        0.1759   -18.6147    11.2319 H          1 BB1          0.0000
    16 H16       -1.4741   -15.6866    10.5850 H          1 BB1          0.0000
    17 H17       -0.7834   -14.7324    12.6977 H          1 BB1          0.0000
    18 H18        0.7454   -14.1466    11.9925 H          1 BB1          0.0000
    19 H19       -2.0037   -13.2878    10.9805 H          1 BB1          0.0000
    20 H20       -1.0795   -12.3713    12.1984 H          1 BB1          0.0000
    21 H21       -0.7338   -11.5836     9.8125 H          1 BB1          0.0000
    22 H22        0.7584   -12.0440    10.6608 H          1 BB1          0.0000
    23 H23        0.6236   -11.8730     7.7696 H          1 BB1          0.0000
    24 H24        1.1539   -13.4245     5.9395 H          1 BB1          0.0000
    25 H25        0.9592   -15.8567     6.2968 H          1 BB1          0.0000
    26 H26        0.2290   -16.7179     8.4791 H          1 BB1          0.0000
    27 O1        -0.7594   -17.1676    12.6070 O.2        2 BB2          0.0000
    28 C2        -0.1608   -17.0399    13.6614 C.2        2 BB2          0.0000
    29 C4         1.3289   -17.1236    13.6885 C.3        2 BB2          0.0000
    30 C5         2.0281   -18.2225    12.9062 C.3        2 BB2          0.0000
    31 C6         1.2351   -19.1980    12.0833 C.3        2 BB2          0.0000
    32 C7         1.1215   -20.5682    12.8433 C.3        2 BB2          0.0000
    33 C8        -0.3801   -20.4971    13.2964 C.3        2 BB2          0.0000
    34 C9        -0.7161   -19.8654    14.6270 C.3        2 BB2          0.0000
    35 C10        0.2083   -19.2729    15.6325 C.3        2 BB2          0.0000
    36 C11        1.6641   -19.3506    15.2215 C.3        2 BB2          0.0000
    37 C12        2.1329   -18.1691    14.4094 C.3        2 BB2          0.0000
    38 H13        1.8039   -16.1162    13.6064 H          2 BB2          0.0000
    39 H14        2.9496   -17.8828    12.3450 H          2 BB2          0.0000
    40 H15        0.2403   -18.8386    11.8439 H          2 BB2          0.0000
    41 H16        1.7601   -19.3991    11.1363 H          2 BB2          0.0000
    42 H17        1.1745   -21.3612    12.0648 H          2 BB2          0.0000
    43 H18        1.8510   -20.7440    13.5524 H          2 BB2          0.0000
    44 H19       -0.9306   -19.9872    12.4998 H          2 BB2          0.0000
    45 H20       -0.7412   -21.5370    13.3001 H          2 BB2          0.0000
    46 H21       -1.5348   -19.1339    14.4368 H          2 BB2          0.0000
    47 H22       -1.2912   -20.6616    15.1804 H          2 BB2          0.0000
    48 H23       -0.0796   -18.2421    15.9037 H          2 BB2          0.0000
    49 H24        0.0839   -19.8266    16.6011 H          2 BB2          0.0000
    50 H25        2.2424   -19.2720    16.2174 H          2 BB2          0.0000
    51 H26        2.0073   -20.3380    14.9543 H          2 BB2          0.0000
    52 H27        3.1305   -17.7695    14.8226 H          2 BB2          0.0000
@<TRIPOS>BOND
     1      1      2 1
     2      1     13 1
     3      1     14 1
     4      1     15 1
     5      2      3 1
     6      3      4 1
     7      3     12 1
     8      3     16 1
     9      4      5 1
    10      4     17 1
    11      4     18 1
    12      5      6 1
    13      5     19 1
    14      5     20 1
    15      6      7 1
    16      6     21 1
    17      6     22 1
    18      7      8 ar
    19      7     12 ar
    20      8      9 ar
    21      8     23 1
    22      9     10 ar
    23      9     24 1
    24     10     11 ar
    25     10     25 1
    26     11     12 ar
    27     11     26 1
    28     27     28 2
    29     28     29 1
    30     29     30 1
    31     29     37 1
    32     29     38 1
    33     30     31 1
    34     30     37 1
    35     30     39 1
    36     31     32 1
    37     31     40 1
    38     31     41 1
    39     32     33 1
    40     32     42 1
    41     32     43 1
    42     33     34 1
    43     33     44 1
    44     33     45 1
    45     34     35 1
    46     34     46 1
    47     34     47 1
    48     35     36 1
    49     35     48 1
    50     35     49 1
    51     36     37 1
    52     36     50 1
    53     36     51 1
    54     37     52 1
    55      2     28 am
@<TRIPOS>SUBSTRUCTURE
     1 BB1           2
     2 BB2          28
@<TRIPOS>MOLECULE
EN300-11723_i002_EN300-107901_i001_19_7_1
  52   55   2   0   0
SMALL
USER_CHARGES
@<TRIPOS>ATOM
     1 C1        -0.4506   -17.7321    11.1036 C.3        1 BB1          0.0000
     2 N2         0.4004   -16.5407    10.9832 N.am       1 BB1          0.0000
     3 C3        -0.4338   -15.3727    10.6703 C.3        1 BB1          0.0000
     4 C4        -0.3075   -14.3477    11.7956 C.3        1 BB1          0.0000
     5 C5        -1.0062   -13.0563    11.3538 C.3        1 BB1          0.0000
     6 C6        -0.1768   -12.4160    10.2425 C.3        1 BB1          0.0000
     7 C7         0.1271   -13.4209     9.1623 C.ar       1 BB1          0.0000
     8 C8         0.5375   -12.9381     7.9267 C.ar       1 BB1          0.0000
     9 C9         0.8358   -13.8076     6.8978 C.ar       1 BB1          0.0000
    10 C10        0.7256   -15.1709     7.0977 C.ar       1 BB1          0.0000
    11 C11        0.3158   -15.6526     8.3240 C.ar       1 BB1          0.0000
    12 C12        0.0142   -14.7790     9.3604 C.ar       1 BB1          0.0000
    13 H13       -1.1071   -17.6240    11.9669 H          1 BB1          0.0000
    14 H14       -1.0521   -17.8416    10.2012 H          1 BB1          0.0000
    15 H15        0.1759   -18.6147    11.2319 H          1 BB1          0.0000
    16 H16       -1.4741   -15.6866    10.5850 H          1 BB1          0.0000
    17 H17       -0.7834   -14.7324    12.6977 H          1 BB1          0.0000
    18 H18        0.7454   -14.1466    11.9925 H          1 BB1          0.0000
    19 H19       -2.0037   -13.2878    10.9805 H          1 BB1          0.0000
    20 H20       -1.0795   -12.3713    12.1984 H          1 BB1          0.0000
    21 H21       -0.7338   -11.5836     9.8125 H          1 BB1          0.0000
    22 H22        0.7584   -12.0440    10.6608 H          1 BB1          0.0000
    23 H23        0.6236   -11.8730     7.7696 H          1 BB1          0.0000
    24 H24        1.1539   -13.4245     5.9395 H          1 BB1          0.0000
    25 H25        0.9592   -15.8567     6.2968 H          1 BB1          0.0000
    26 H26        0.2290   -16.7179     8.4791 H          1 BB1          0.0000
    27 C2         0.5706   -16.0856    13.7822 C.2        2 BB2          0.0000
    28 O3         0.1830   -15.9635    12.6327 O.2        2 BB2          0.0000
    29 C4         1.9967   -16.4292    14.0563 C.3        2 BB2          0.0000
    30 C5         2.6861   -17.4833    13.2065 C.3        2 BB2          0.0000
    31 C6         1.9551   -18.1526    12.0772 C.3        2 BB2          0.0000
    32 C7         1.5006   -19.5914    12.5146 C.3        2 BB2          0.0000
    33 C8        -0.0382   -19.3396    12.6985 C.3        2 BB2          0.0000
    34 C9        -0.5530   -18.8947    14.0474 C.3        2 BB2          0.0000
    35 C10        0.2151   -18.6508    15.2992 C.3        2 BB2          0.0000
    36 C11        1.7000   -18.9082    15.1464 C.3        2 BB2          0.0000
    37 C12        2.4836   -17.7051    14.6841 C.3        2 BB2          0.0000
    38 H13        2.6114   -15.5201    14.2636 H          2 BB2          0.0000
    39 H14        3.7413   -17.2178    12.8977 H          2 BB2          0.0000
    40 H15        1.0901   -17.5911    11.7418 H          2 BB2          0.0000
    41 H16        2.6323   -18.2776    11.2178 H          2 BB2          0.0000
    42 H17        1.6049   -20.2376    11.6150 H          2 BB2          0.0000
    43 H18        2.0364   -20.0087    13.2921 H          2 BB2          0.0000
    44 H19       -0.3369   -18.6143    11.9354 H          2 BB2          0.0000
    45 H20       -0.5308   -20.2865    12.4294 H          2 BB2          0.0000
    46 H21       -1.2069   -18.0111    13.8653 H          2 BB2          0.0000
    47 H22       -1.3334   -19.6617    14.3187 H          2 BB2          0.0000
    48 H23        0.0208   -17.6470    15.7160 H          2 BB2          0.0000
    49 H24       -0.1816   -19.3311    16.0993 H          2 BB2          0.0000
    50 H25        2.0647   -19.1013    16.2245 H          2 BB2          0.0000
    51 H26        1.9529   -19.8801    14.7519 H          2 BB2          0.0000
    52 H27        3.4190   -17.5603    15.3396 H          2 BB2          0.0000
@<TRIPOS>BOND
     1      1      2 1
     2      1     13 1
     3      1     14 1
     4      1     15 1
     5      2      3 1
     6      3      4 1
     7      3     12 1
     8      3     16 1
     9      4      5 1
    10      4     17 1
    11      4     18 1
    12      5      6 1
    13      5     19 1
    14      5     20 1
    15      6      7 1
    16      6     21 1
    17      6     22 1
    18      7      8 ar
    19      7     12 ar
    20      8      9 ar
    21      8     23 1
    22      9     10 ar
    23      9     24 1
    24     10     11 ar
    25     10     25 1
    26     11     12 ar
    27     11     26 1
    28     27     28 2
    29     27     29 1
    30     29     30 1
    31     29     37 1
    32     29     38 1
    33     30     31 1
    34     30     37 1
    35     30     39 1
    36     31     32 1
    37     31     40 1
    38     31     41 1
    39     32     33 1
    40     32     42 1
    41     32     43 1
    42     33     34 1
    43     33     44 1
    44     33     45 1
    45     34     35 1
    46     34     46 1
    47     34     47 1
    48     35     36 1
    49     35     48 1
    50     35     49 1
    51     36     37 1
    52     36     50 1
    53     36     51 1
    54     37     52 1
    55      2     27 am
@<TRIPOS>SUBSTRUCTURE
     1 BB1           2
     2 BB2          27
@<TRIPOS>MOLECULE
EN300-11723_i002_EN300-344045_i001_19_10_1
  55   58   2   0   0
SMALL
USER_CHARGES
@<TRIPOS>ATOM
     1 C1        -0.4506   -17.7321    11.1036 C.3        1 BB1          0.0000
     2 N2         0.4004   -16.5407    10.9832 N.am       1 BB1          0.0000
     3 C3        -0.4338   -15.3727    10.6703 C.3        1 BB1          0.0000
     4 C4        -0.3075   -14.3477    11.7956 C.3        1 BB1          0.0000
     5 C5        -1.0062   -13.0563    11.3538 C.3        1 BB1          0.0000
     6 C6        -0.1768   -12.4160    10.2425 C.3        1 BB1          0.0000
     7 C7         0.1271   -13.4209     9.1623 C.ar       1 BB1          0.0000
     8 C8         0.5375   -12.9381     7.9267 C.ar       1 BB1          0.0000
     9 C9         0.8358   -13.8076     6.8978 C.ar       1 BB1          0.0000
    10 C10        0.7256   -15.1709     7.0977 C.ar       1 BB1          0.0000
    11 C11        0.3158   -15.6526     8.3240 C.ar       1 BB1          0.0000
    12 C12        0.0142   -14.7790     9.3604 C.ar       1 BB1          0.0000
    13 H13       -1.1071   -17.6240    11.9669 H          1 BB1          0.0000
    14 H14       -1.0521   -17.8416    10.2012 H          1 BB1          0.0000
    15 H15        0.1759   -18.6147    11.2319 H          1 BB1          0.0000
    16 H16       -1.4741   -15.6866    10.5850 H          1 BB1          0.0000
    17 H17       -0.7834   -14.7324    12.6977 H          1 BB1          0.0000
    18 H18        0.7454   -14.1466    11.9925 H          1 BB1          0.0000
    19 H19       -2.0037   -13.2878    10.9805 H          1 BB1          0.0000
    20 H20       -1.0795   -12.3713    12.1984 H          1 BB1          0.0000
    21 H21       -0.7338   -11.5836     9.8125 H          1 BB1          0.0000
    22 H22        0.7584   -12.0440    10.6608 H          1 BB1          0.0000
    23 H23        0.6236   -11.8730     7.7696 H          1 BB1          0.0000
    24 H24        1.1539   -13.4245     5.9395 H          1 BB1          0.0000
    25 H25        0.9592   -15.8567     6.2968 H          1 BB1          0.0000
    26 H26        0.2290   -16.7179     8.4791 H          1 BB1          0.0000
    27 O1        -0.1020   -15.4251    12.3109 O.2        2 BB2          0.0000
    28 C2        -0.1552   -16.1642    13.2791 C.2        2 BB2          0.0000
    29 C4        -0.2949   -17.6520    13.0845 C.3        2 BB2          0.0000
    30 C5         1.0177   -18.3411    13.4627 C.3        2 BB2          0.0000
    31 C6         2.1466   -17.8837    12.5159 C.3        2 BB2          0.0000
    32 C7         2.8436   -16.7333    13.2840 C.3        2 BB2          0.0000
    33 C8         2.8113   -17.2322    14.7500 C.3        2 BB2          0.0000
    34 C9         1.4404   -17.9270    14.8830 C.3        2 BB2          0.0000
    35 C10        0.8553   -19.8375    13.3870 C.ar       2 BB2          0.0000
    36 C11        0.3498   -20.4207    12.2402 C.ar       2 BB2          0.0000
    37 C12        0.2007   -21.7932    12.1708 C.ar       2 BB2          0.0000
    38 C13        0.5577   -22.5826    13.2481 C.ar       2 BB2          0.0000
    39 C14        1.0640   -21.9994    14.3945 C.ar       2 BB2          0.0000
    40 C15        1.2171   -20.6272    14.4623 C.ar       2 BB2          0.0000
    41 H16       -1.0982   -18.0276    13.7185 H          2 BB2          0.0000
    42 H17       -0.5277   -17.8617    12.0405 H          2 BB2          0.0000
    43 H18        2.8460   -18.6997    12.3341 H          2 BB2          0.0000
    44 H19        1.7321   -17.5187    11.5762 H          2 BB2          0.0000
    45 H20        3.8707   -16.6068    12.9415 H          2 BB2          0.0000
    46 H21        2.2833   -15.8041    13.1798 H          2 BB2          0.0000
    47 H22        3.6181   -17.9430    14.9289 H          2 BB2          0.0000
    48 H23        2.8818   -16.3919    15.4406 H          2 BB2          0.0000
    49 H24        0.7104   -17.2350    15.3030 H          2 BB2          0.0000
    50 H25        1.5285   -18.8083    15.5183 H          2 BB2          0.0000
    51 H26        0.0709   -19.8041    11.3986 H          2 BB2          0.0000
    52 H27       -0.1949   -22.2488    11.2751 H          2 BB2          0.0000
    53 H28        0.4406   -23.6548    13.1941 H          2 BB2          0.0000
    54 H29        1.3426   -22.6160    15.2363 H          2 BB2          0.0000
    55 H30        1.6128   -20.1715    15.3580 H          2 BB2          0.0000
@<TRIPOS>BOND
     1      1      2 1
     2      1     13 1
     3      1     14 1
     4      1     15 1
     5      2      3 1
     6      3      4 1
     7      3     12 1
     8      3     16 1
     9      4      5 1
    10      4     17 1
    11      4     18 1
    12      5      6 1
    13      5     19 1
    14      5     20 1
    15      6      7 1
    16      6     21 1
    17      6     22 1
    18      7      8 ar
    19      7     12 ar
    20      8      9 ar
    21      8     23 1
    22      9     10 ar
    23      9     24 1
    24     10     11 ar
    25     10     25 1
    26     11     12 ar
    27     11     26 1
    28     27     28 2
    29     28     29 1
    30     29     30 1
    31     29     41 1
    32     29     42 1
    33     30     31 1
    34     30     34 1
    35     30     35 1
    36     31     32 1
    37     31     43 1
    38     31     44 1
    39     32     33 1
    40     32     45 1
    41     32     46 1
    42     33     34 1
    43     33     47 1
    44     33     48 1
    45     34     49 1
    46     34     50 1
    47     35     36 ar
    48     35     40 ar
    49     36     37 ar
    50     36     51 1
    51     37     38 ar
    52     37     52 1
    53     38     39 ar
    54     38     53 1
    55     39     40 ar
    56     39     54 1
    57     40     55 1
    58      2     28 am
@<TRIPOS>SUBSTRUCTURE
     1 BB1           2
     2 BB2          28
@<TRIPOS>MOLECULE
EN300-11723_i002_EN300-344045_i001_19_8_1
  55   58   2   0   0
SMALL
USER_CHARGES
@<TRIPOS>ATOM
     1 C1        -0.4506   -17.7321    11.1036 C.3        1 BB1          0.0000
     2 N2         0.4004   -16.5407    10.9832 N.am       1 BB1          0.0000
     3 C3        -0.4338   -15.3727    10.6703 C.3        1 BB1          0.0000
     4 C4        -0.3075   -14.3477    11.7956 C.3        1 BB1          0.0000
     5 C5        -1.0062   -13.0563    11.3538 C.3        1 BB1          0.0000
     6 C6        -0.1768   -12.4160    10.2425 C.3        1 BB1          0.0000
     7 C7         0.1271   -13.4209     9.1623 C.ar       1 BB1          0.0000
     8 C8         0.5375   -12.9381     7.9267 C.ar       1 BB1          0.0000
     9 C9         0.8358   -13.8076     6.8978 C.ar       1 BB1          0.0000
    10 C10        0.7256   -15.1709     7.0977 C.ar       1 BB1          0.0000
    11 C11        0.3158   -15.6526     8.3240 C.ar       1 BB1          0.0000
    12 C12        0.0142   -14.7790     9.3604 C.ar       1 BB1          0.0000
    13 H13       -1.1071   -17.6240    11.9669 H          1 BB1          0.0000
    14 H14       -1.0521   -17.8416    10.2012 H          1 BB1          0.0000
    15 H15        0.1759   -18.6147    11.2319 H          1 BB1          0.0000
    16 H16       -1.4741   -15.6866    10.5850 H          1 BB1          0.0000
    17 H17       -0.7834   -14.7324    12.6977 H          1 BB1          0.0000
    18 H18        0.7454   -14.1466    11.9925 H          1 BB1          0.0000
    19 H19       -2.0037   -13.2878    10.9805 H          1 BB1          0.0000
    20 H20       -1.0795   -12.3713    12.1984 H          1 BB1          0.0000
    21 H21       -0.7338   -11.5836     9.8125 H          1 BB1          0.0000
    22 H22        0.7584   -12.0440    10.6608 H          1 BB1          0.0000
    23 H23        0.6236   -11.8730     7.7696 H          1 BB1          0.0000
    24 H24        1.1539   -13.4245     5.9395 H          1 BB1          0.0000
    25 H25        0.9592   -15.8567     6.2968 H          1 BB1          0.0000
    26 H26        0.2290   -16.7179     8.4791 H          1 BB1          0.0000
    27 O1         0.1977   -15.0634    12.4746 O.2        2 BB2          0.0000
    28 C2        -0.1011   -15.8922    13.3172 C.2        2 BB2          0.0000
    29 C4        -0.5242   -17.2760    12.8963 C.3        2 BB2          0.0000
    30 C5         0.5490   -18.2852    13.3093 C.3        2 BB2          0.0000
    31 C6         1.8848   -17.9504    12.6139 C.3        2 BB2          0.0000
    32 C7         2.6573   -17.1093    13.6602 C.3        2 BB2          0.0000
    33 C8         2.2891   -17.8025    14.9954 C.3        2 BB2          0.0000
    34 C9         0.8061   -18.1912    14.8234 C.3        2 BB2          0.0000
    35 C10        0.1126   -19.6807    12.9444 C.ar       2 BB2          0.0000
    36 C11       -1.0025   -20.2352    13.5441 C.ar       2 BB2          0.0000
    37 C12       -1.4027   -21.5153    13.2094 C.ar       2 BB2          0.0000
    38 C13       -0.6881   -22.2407    12.2744 C.ar       2 BB2          0.0000
    39 C14        0.4266   -21.6858    11.6741 C.ar       2 BB2          0.0000
    40 C15        0.8243   -20.4040    12.0056 C.ar       2 BB2          0.0000
    41 H16       -1.4675   -17.5304    13.3797 H          2 BB2          0.0000
    42 H17       -0.6516   -17.3036    11.8140 H          2 BB2          0.0000
    43 H18        2.4319   -18.8634    12.3791 H          2 BB2          0.0000
    44 H19        1.7087   -17.3669    11.7102 H          2 BB2          0.0000
    45 H20        3.7313   -17.1616    13.4811 H          2 BB2          0.0000
    46 H21        2.3136   -16.0749    13.6543 H          2 BB2          0.0000
    47 H22        2.9015   -18.6917    15.1453 H          2 BB2          0.0000
    48 H23        2.4080   -17.1112    15.8297 H          2 BB2          0.0000
    49 H24        0.1663   -17.4266    15.2641 H          2 BB2          0.0000
    50 H25        0.6156   -19.1552    15.2951 H          2 BB2          0.0000
    51 H26       -1.5609   -19.6686    14.2745 H          2 BB2          0.0000
    52 H27       -2.2735   -21.9489    13.6785 H          2 BB2          0.0000
    53 H28       -1.0003   -23.2410    12.0135 H          2 BB2          0.0000
    54 H29        0.9852   -22.2526    10.9438 H          2 BB2          0.0000
    55 H30        1.6951   -19.9705    11.5365 H          2 BB2          0.0000
@<TRIPOS>BOND
     1      1      2 1
     2      1     13 1
     3      1     14 1
     4      1     15 1
     5      2      3 1
     6      3      4 1
     7      3     12 1
     8      3     16 1
     9      4      5 1
    10      4     17 1
    11      4     18 1
    12      5      6 1
    13      5     19 1
    14      5     20 1
    15      6      7 1
    16      6     21 1
    17      6     22 1
    18      7      8 ar
    19      7     12 ar
    20      8      9 ar
    21      8     23 1
    22      9     10 ar
    23      9     24 1
    24     10     11 ar
    25     10     25 1
    26     11     12 ar
    27     11     26 1
    28     27     28 2
    29     28     29 1
    30     29     30 1
    31     29     41 1
    32     29     42 1
    33     30     31 1
    34     30     34 1
    35     30     35 1
    36     31     32 1
    37     31     43 1
    38     31     44 1
    39     32     33 1
    40     32     45 1
    41     32     46 1
    42     33     34 1
    43     33     47 1
    44     33     48 1
    45     34     49 1
    46     34     50 1
    47     35     36 ar
    48     35     40 ar
    49     36     37 ar
    50     36     51 1
    51     37     38 ar
    52     37     52 1
    53     38     39 ar
    54     38     53 1
    55     39     40 ar
    56     39     54 1
    57     40     55 1
    58      2     28 am
@<TRIPOS>SUBSTRUCTURE
     1 BB1           2
     2 BB2          28
@<TRIPOS>MOLECULE
EN300-11723_i002_EN300-701715_i002_19_3_1
  52   54   2   0   0
SMALL
USER_CHARGES
@<TRIPOS>ATOM
     1 C1        -0.4506   -17.7321    11.1036 C.3        1 BB1          0.0000
     2 N2         0.4004   -16.5407    10.9832 N.am       1 BB1          0.0000
     3 C3        -0.4338   -15.3727    10.6703 C.3        1 BB1          0.0000
     4 C4        -0.3075   -14.3477    11.7956 C.3        1 BB1          0.0000
     5 C5        -1.0062   -13.0563    11.3538 C.3        1 BB1          0.0000
     6 C6        -0.1768   -12.4160    10.2425 C.3        1 BB1          0.0000
     7 C7         0.1271   -13.4209     9.1623 C.ar       1 BB1          0.0000
     8 C8         0.5375   -12.9381     7.9267 C.ar       1 BB1          0.0000
     9 C9         0.8358   -13.8076     6.8978 C.ar       1 BB1          0.0000
    10 C10        0.7256   -15.1709     7.0977 C.ar       1 BB1          0.0000
    11 C11        0.3158   -15.6526     8.3240 C.ar       1 BB1          0.0000
    12 C12        0.0142   -14.7790     9.3604 C.ar       1 BB1          0.0000
    13 H13       -1.1071   -17.6240    11.9669 H          1 BB1          0.0000
    14 H14       -1.0521   -17.8416    10.2012 H          1 BB1          0.0000
    15 H15        0.1759   -18.6147    11.2319 H          1 BB1          0.0000
    16 H16       -1.4741   -15.6866    10.5850 H          1 BB1          0.0000
    17 H17       -0.7834   -14.7324    12.6977 H          1 BB1          0.0000
    18 H18        0.7454   -14.1466    11.9925 H          1 BB1          0.0000
    19 H19       -2.0037   -13.2878    10.9805 H          1 BB1          0.0000
    20 H20       -1.0795   -12.3713    12.1984 H          1 BB1          0.0000
    21 H21       -0.7338   -11.5836     9.8125 H          1 BB1          0.0000
    22 H22        0.7584   -12.0440    10.6608 H          1 BB1          0.0000
    23 H23        0.6236   -11.8730     7.7696 H          1 BB1          0.0000
    24 H24        1.1539   -13.4245     5.9395 H          1 BB1          0.0000
    25 H25        0.9592   -15.8567     6.2968 H          1 BB1          0.0000
    26 H26        0.2290   -16.7179     8.4791 H          1 BB1          0.0000
    27 C1        -0.6989   -17.7193    11.7099 C.3        2 BB2          0.0000
    28 O2        -0.6901   -18.1381    13.0761 O.3        2 BB2          0.0000
    29 C3         0.5888   -18.0398    13.7059 C.3        2 BB2          0.0000
    30 C4         1.6206   -18.8209    12.8898 C.3        2 BB2          0.0000
    31 C5         1.2023   -20.2905    12.8116 C.3        2 BB2          0.0000
    32 C6         1.1215   -20.8737    14.2237 C.3        2 BB2          0.0000
    33 C7         0.0897   -20.0925    15.0399 C.3        2 BB2          0.0000
    34 C8         0.0090   -20.6757    16.4520 C.3        2 BB2          0.0000
    35 C9         0.5080   -18.6229    15.1181 C.3        2 BB2          0.0000
    36 C10        1.0009   -16.5922    13.7830 C.2        2 BB2          0.0000
    37 O12        2.0005   -16.2110    13.1982 O.2        2 BB2          0.0000
    38 H13       -0.0093   -18.3381    11.1357 H          2 BB2          0.0000
    39 H14       -1.7051   -17.8242    11.3041 H          2 BB2          0.0000
    40 H15       -0.3890   -16.6761    11.6476 H          2 BB2          0.0000
    41 H16        1.6782   -18.4055    11.8837 H          2 BB2          0.0000
    42 H17        2.5961   -18.7459    13.3702 H          2 BB2          0.0000
    43 H18        0.2267   -20.3655    12.3312 H          2 BB2          0.0000
    44 H19        1.9373   -20.8471    12.2301 H          2 BB2          0.0000
    45 H20        0.8234   -21.9206    14.1680 H          2 BB2          0.0000
    46 H21        2.0971   -20.7987    14.7041 H          2 BB2          0.0000
    47 H22       -0.8858   -20.1675    14.5594 H          2 BB2          0.0000
    48 H23        0.9845   -20.6007    16.9325 H          2 BB2          0.0000
    49 H24       -0.7262   -20.1191    17.0335 H          2 BB2          0.0000
    50 H25       -0.2891   -21.7227    16.3963 H          2 BB2          0.0000
    51 H26        1.4836   -18.5479    15.5985 H          2 BB2          0.0000
    52 H27       -0.2270   -18.0663    15.6996 H          2 BB2          0.0000
@<TRIPOS>BOND
     1      1      2 1
     2      1     13 1
     3      1     14 1
     4      1     15 1
     5      2      3 1
     6      3      4 1
     7      3     12 1
     8      3     16 1
     9      4      5 1
    10      4     17 1
    11      4     18 1
    12      5      6 1
    13      5     19 1
    14      5     20 1
    15      6      7 1
    16      6     21 1
    17      6     22 1
    18      7      8 ar
    19      7     12 ar
    20      8      9 ar
    21      8     23 1
    22      9     10 ar
    23      9     24 1
    24     10     11 ar
    25     10     25 1
    26     11     12 ar
    27     11     26 1
    28     27     28 1
    29     27     38 1
    30     27     39 1
    31     27     40 1
    32     28     29 1
    33     29     30 1
    34     29     35 1
    35     29     36 1
    36     30     31 1
    37     30     41 1
    38     30     42 1
    39     31     32 1
    40     31     43 1
    41     31     44 1
    42     32     33 1
    43     32     45 1
    44     32     46 1
    45     33     34 1
    46     33     35 1
    47     33     47 1
    48     34     48 1
    49     34     49 1
    50     34     50 1
    51     35     51 1
    52     35     52 1
    53     36     37 2
    54      2     36 am
@<TRIPOS>SUBSTRUCTURE
     1 BB1           2
     2 BB2          36
@<TRIPOS>MOLECULE
EN300-11723_i002_EN300-701715_i002_19_7_1
  52   54   2   0   0
SMALL
USER_CHARGES
@<TRIPOS>ATOM
     1 C1        -0.4506   -17.7321    11.1036 C.3        1 BB1          0.0000
     2 N2         0.4004   -16.5407    10.9832 N.am       1 BB1          0.0000
     3 C3        -0.4338   -15.3727    10.6703 C.3        1 BB1          0.0000
     4 C4        -0.3075   -14.3477    11.7956 C.3        1 BB1          0.0000
     5 C5        -1.0062   -13.0563    11.3538 C.3        1 BB1          0.0000
     6 C6        -0.1768   -12.4160    10.2425 C.3        1 BB1          0.0000
     7 C7         0.1271   -13.4209     9.1623 C.ar       1 BB1          0.0000
     8 C8         0.5375   -12.9381     7.9267 C.ar       1 BB1          0.0000
     9 C9         0.8358   -13.8076     6.8978 C.ar       1 BB1          0.0000
    10 C10        0.7256   -15.1709     7.0977 C.ar       1 BB1          0.0000
    11 C11        0.3158   -15.6526     8.3240 C.ar       1 BB1          0.0000
    12 C12        0.0142   -14.7790     9.3604 C.ar       1 BB1          0.0000
    13 H13       -1.1071   -17.6240    11.9669 H          1 BB1          0.0000
    14 H14       -1.0521   -17.8416    10.2012 H          1 BB1          0.0000
    15 H15        0.1759   -18.6147    11.2319 H          1 BB1          0.0000
    16 H16       -1.4741   -15.6866    10.5850 H          1 BB1          0.0000
    17 H17       -0.7834   -14.7324    12.6977 H          1 BB1          0.0000
    18 H18        0.7454   -14.1466    11.9925 H          1 BB1          0.0000
    19 H19       -2.0037   -13.2878    10.9805 H          1 BB1          0.0000
    20 H20       -1.0795   -12.3713    12.1984 H          1 BB1          0.0000
    21 H21       -0.7338   -11.5836     9.8125 H          1 BB1          0.0000
    22 H22        0.7584   -12.0440    10.6608 H          1 BB1          0.0000
    23 H23        0.6236   -11.8730     7.7696 H          1 BB1          0.0000
    24 H24        1.1539   -13.4245     5.9395 H          1 BB1          0.0000
    25 H25        0.9592   -15.8567     6.2968 H          1 BB1          0.0000
    26 H26        0.2290   -16.7179     8.4791 H          1 BB1          0.0000
    27 C1         2.6980   -17.0935    14.3531 C.3        2 BB2          0.0000
    28 O2         2.0291   -17.9262    13.4038 O.3        2 BB2          0.0000
    29 C3         0.6511   -18.1578    13.7029 C.3        2 BB2          0.0000
    30 C4         0.5278   -18.7630    15.1027 C.3        2 BB2          0.0000
    31 C5         1.2906   -20.0882    15.1543 C.3        2 BB2          0.0000
    32 C6         0.7014   -21.0563    14.1264 C.3        2 BB2          0.0000
    33 C7         0.8248   -20.4511    12.7266 C.3        2 BB2          0.0000
    34 C8         0.2354   -21.4191    11.6988 C.3        2 BB2          0.0000
    35 C9         0.0619   -19.1258    12.6749 C.3        2 BB2          0.0000
    36 C10       -0.1002   -16.8524    13.6520 C.2        2 BB2          0.0000
    37 O12       -1.0064   -16.7014    12.8503 O.2        2 BB2          0.0000
    38 H13        2.6565   -17.5592    15.3378 H          2 BB2          0.0000
    39 H14        3.7387   -16.9660    14.0551 H          2 BB2          0.0000
    40 H15        2.2090   -16.1200    14.3908 H          2 BB2          0.0000
    41 H16        0.9476   -18.0733    15.8350 H          2 BB2          0.0000
    42 H17       -0.5233   -18.9396    15.3308 H          2 BB2          0.0000
    43 H18        2.3417   -19.9116    14.9261 H          2 BB2          0.0000
    44 H19        1.2028   -20.5194    16.1515 H          2 BB2          0.0000
    45 H20        1.2448   -22.0004    14.1632 H          2 BB2          0.0000
    46 H21       -0.3497   -21.2329    14.3546 H          2 BB2          0.0000
    47 H22        1.8758   -20.2744    12.4985 H          2 BB2          0.0000
    48 H23       -0.8156   -21.5958    11.9269 H          2 BB2          0.0000
    49 H24        0.3233   -20.9879    10.7015 H          2 BB2          0.0000
    50 H25        0.7789   -22.3633    11.7356 H          2 BB2          0.0000
    51 H26       -0.9893   -19.3025    12.9031 H          2 BB2          0.0000
    52 H27        0.1497   -18.6946    11.6777 H          2 BB2          0.0000
@<TRIPOS>BOND
     1      1      2 1
     2      1     13 1
     3      1     14 1
     4      1     15 1
     5      2      3 1
     6      3      4 1
     7      3     12 1
     8      3     16 1
     9      4      5 1
    10      4     17 1
    11      4     18 1
    12      5      6 1
    13      5     19 1
    14      5     20 1
    15      6      7 1
    16      6     21 1
    17      6     22 1
    18      7      8 ar
    19      7     12 ar
    20      8      9 ar
    21      8     23 1
    22      9     10 ar
    23      9     24 1
    24     10     11 ar
    25     10     25 1
    26     11     12 ar
    27     11     26 1
    28     27     28 1
    29     27     38 1
    30     27     39 1
    31     27     40 1
    32     28     29 1
    33     29     30 1
    34     29     35 1
    35     29     36 1
    36     30     31 1
    37     30     41 1
    38     30     42 1
    39     31     32 1
    40     31     43 1
    41     31     44 1
    42     32     33 1
    43     32     45 1
    44     32     46 1
    45     33     34 1
    46     33     35 1
    47     33     47 1
    48     34     48 1
    49     34     49 1
    50     34     50 1
    51     35     51 1
    52     35     52 1
    53     36     37 2
    54      2     36 am
@<TRIPOS>SUBSTRUCTURE
     1 BB1           2
     2 BB2          36
@<TRIPOS>MOLECULE
EN300-11723_i002_EN300-15782_i003_19_20_1
  60   62   2   0   0
SMALL
USER_CHARGES
@<TRIPOS>ATOM
     1 C1        -0.4506   -17.7321    11.1036 C.3        1 BB1          0.0000
     2 N2         0.4004   -16.5407    10.9832 N.am       1 BB1          0.0000
     3 C3        -0.4338   -15.3727    10.6703 C.3        1 BB1          0.0000
     4 C4        -0.3075   -14.3477    11.7956 C.3        1 BB1          0.0000
     5 C5        -1.0062   -13.0563    11.3538 C.3        1 BB1          0.0000
     6 C6        -0.1768   -12.4160    10.2425 C.3        1 BB1          0.0000
     7 C7         0.1271   -13.4209     9.1623 C.ar       1 BB1          0.0000
     8 C8         0.5375   -12.9381     7.9267 C.ar       1 BB1          0.0000
     9 C9         0.8358   -13.8076     6.8978 C.ar       1 BB1          0.0000
    10 C10        0.7256   -15.1709     7.0977 C.ar       1 BB1          0.0000
    11 C11        0.3158   -15.6526     8.3240 C.ar       1 BB1          0.0000
    12 C12        0.0142   -14.7790     9.3604 C.ar       1 BB1          0.0000
    13 H13       -1.1071   -17.6240    11.9669 H          1 BB1          0.0000
    14 H14       -1.0521   -17.8416    10.2012 H          1 BB1          0.0000
    15 H15        0.1759   -18.6147    11.2319 H          1 BB1          0.0000
    16 H16       -1.4741   -15.6866    10.5850 H          1 BB1          0.0000
    17 H17       -0.7834   -14.7324    12.6977 H          1 BB1          0.0000
    18 H18        0.7454   -14.1466    11.9925 H          1 BB1          0.0000
    19 H19       -2.0037   -13.2878    10.9805 H          1 BB1          0.0000
    20 H20       -1.0795   -12.3713    12.1984 H          1 BB1          0.0000
    21 H21       -0.7338   -11.5836     9.8125 H          1 BB1          0.0000
    22 H22        0.7584   -12.0440    10.6608 H          1 BB1          0.0000
    23 H23        0.6236   -11.8730     7.7696 H          1 BB1          0.0000
    24 H24        1.1539   -13.4245     5.9395 H          1 BB1          0.0000
    25 H25        0.9592   -15.8567     6.2968 H          1 BB1          0.0000
    26 H26        0.2290   -16.7179     8.4791 H          1 BB1          0.0000
    27 C1         2.8698   -16.8905    14.8492 C.3        2 BB2          0.0000
    28 C2         2.3813   -16.8225    13.4009 C.3        2 BB2          0.0000
    29 O3         3.3626   -17.4033    12.5395 O.3        2 BB2          0.0000
    30 C4         1.0666   -17.5939    13.2693 C.3        2 BB2          0.0000
    31 N5         0.9064   -18.0537    11.8876 N.pl3      2 BB2          0.0000
    32 S6        -0.3783   -19.0152    11.4786 S.o2       2 BB2          0.0000
    33 O7        -1.5387   -18.3724    11.9878 O.2        2 BB2          0.0000
    34 O8        -0.2115   -19.3454    10.1066 O.2        2 BB2          0.0000
    35 C9        -0.2092   -20.5216    12.3769 C.ar       2 BB2          0.0000
    36 C10       -1.3103   -21.3314    12.5815 C.ar       2 BB2          0.0000
    37 C11       -1.1776   -22.5134    13.2864 C.ar       2 BB2          0.0000
    38 C12        0.0562   -22.8852    13.7861 C.ar       2 BB2          0.0000
    39 C13        0.2006   -24.1734    14.5548 C.3        2 BB2          0.0000
    40 C14        1.1579   -22.0758    13.5803 C.ar       2 BB2          0.0000
    41 C15        2.5032   -22.4815    14.1247 C.3        2 BB2          0.0000
    42 C16        1.0260   -20.8961    12.8722 C.ar       2 BB2          0.0000
    43 C17       -0.0838   -16.6917    13.6350 C.2        2 BB2          0.0000
    44 O18       -0.3010   -15.6855    12.9817 O.2        2 BB2          0.0000
    45 H20        3.8065   -16.3410    14.9430 H          2 BB2          0.0000
    46 H21        2.1213   -16.4476    15.5062 H          2 BB2          0.0000
    47 H22        3.0295   -17.9315    15.1303 H          2 BB2          0.0000
    48 H23        2.2216   -15.7815    13.1198 H          2 BB2          0.0000
    49 H24        1.0812   -18.4536    13.9390 H          2 BB2          0.0000
    50 H25       -2.2745   -21.0408    12.1910 H          2 BB2          0.0000
    51 H26       -2.0382   -23.1459    13.4469 H          2 BB2          0.0000
    52 H27        0.4392   -24.9831    13.8654 H          2 BB2          0.0000
    53 H28        1.0016   -24.0716    15.2871 H          2 BB2          0.0000
    54 H29       -0.7346   -24.3970    15.0683 H          2 BB2          0.0000
    55 H30        3.0310   -23.0787    13.3811 H          2 BB2          0.0000
    56 H31        3.0862   -21.5897    14.3547 H          2 BB2          0.0000
    57 H32        2.3657   -23.0698    15.0319 H          2 BB2          0.0000
    58 H33        1.8867   -20.2638    12.7114 H          2 BB2          0.0000
    59 H34        3.1701   -17.2992    11.5976 H          2 BB2          0.0000
    60 H35        1.5529   -17.7950    11.2123 H          2 BB2          0.0000
@<TRIPOS>BOND
     1      1      2 1
     2      1     13 1
     3      1     14 1
     4      1     15 1
     5      2      3 1
     6      3      4 1
     7      3     12 1
     8      3     16 1
     9      4      5 1
    10      4     17 1
    11      4     18 1
    12      5      6 1
    13      5     19 1
    14      5     20 1
    15      6      7 1
    16      6     21 1
    17      6     22 1
    18      7      8 ar
    19      7     12 ar
    20      8      9 ar
    21      8     23 1
    22      9     10 ar
    23      9     24 1
    24     10     11 ar
    25     10     25 1
    26     11     12 ar
    27     11     26 1
    28     27     28 1
    29     27     45 1
    30     27     46 1
    31     27     47 1
    32     28     29 1
    33     28     30 1
    34     28     48 1
    35     29     59 1
    36     30     31 1
    37     30     43 1
    38     30     49 1
    39     31     32 1
    40     31     60 1
    41     32     33 2
    42     32     34 2
    43     32     35 1
    44     35     36 ar
    45     35     42 ar
    46     36     37 ar
    47     36     50 1
    48     37     38 ar
    49     37     51 1
    50     38     39 1
    51     38     40 ar
    52     39     52 1
    53     39     53 1
    54     39     54 1
    55     40     41 1
    56     40     42 ar
    57     41     55 1
    58     41     56 1
    59     41     57 1
    60     42     58 1
    61     43     44 2
    62      2     43 am
@<TRIPOS>SUBSTRUCTURE
     1 BB1           2
     2 BB2          43
@<TRIPOS>MOLECULE
EN300-11723_i002_EN300-15782_i003_19_8_1
  60   62   2   0   0
SMALL
USER_CHARGES
@<TRIPOS>ATOM
     1 C1        -0.4506   -17.7321    11.1036 C.3        1 BB1          0.0000
     2 N2         0.4004   -16.5407    10.9832 N.am       1 BB1          0.0000
     3 C3        -0.4338   -15.3727    10.6703 C.3        1 BB1          0.0000
     4 C4        -0.3075   -14.3477    11.7956 C.3        1 BB1          0.0000
     5 C5        -1.0062   -13.0563    11.3538 C.3        1 BB1          0.0000
     6 C6        -0.1768   -12.4160    10.2425 C.3        1 BB1          0.0000
     7 C7         0.1271   -13.4209     9.1623 C.ar       1 BB1          0.0000
     8 C8         0.5375   -12.9381     7.9267 C.ar       1 BB1          0.0000
     9 C9         0.8358   -13.8076     6.8978 C.ar       1 BB1          0.0000
    10 C10        0.7256   -15.1709     7.0977 C.ar       1 BB1          0.0000
    11 C11        0.3158   -15.6526     8.3240 C.ar       1 BB1          0.0000
    12 C12        0.0142   -14.7790     9.3604 C.ar       1 BB1          0.0000
    13 H13       -1.1071   -17.6240    11.9669 H          1 BB1          0.0000
    14 H14       -1.0521   -17.8416    10.2012 H          1 BB1          0.0000
    15 H15        0.1759   -18.6147    11.2319 H          1 BB1          0.0000
    16 H16       -1.4741   -15.6866    10.5850 H          1 BB1          0.0000
    17 H17       -0.7834   -14.7324    12.6977 H          1 BB1          0.0000
    18 H18        0.7454   -14.1466    11.9925 H          1 BB1          0.0000
    19 H19       -2.0037   -13.2878    10.9805 H          1 BB1          0.0000
    20 H20       -1.0795   -12.3713    12.1984 H          1 BB1          0.0000
    21 H21       -0.7338   -11.5836     9.8125 H          1 BB1          0.0000
    22 H22        0.7584   -12.0440    10.6608 H          1 BB1          0.0000
    23 H23        0.6236   -11.8730     7.7696 H          1 BB1          0.0000
    24 H24        1.1539   -13.4245     5.9395 H          1 BB1          0.0000
    25 H25        0.9592   -15.8567     6.2968 H          1 BB1          0.0000
    26 H26        0.2290   -16.7179     8.4791 H          1 BB1          0.0000
    27 C1         3.4071   -17.1058    12.8712 C.3        2 BB2          0.0000
    28 C2         2.4259   -17.8322    13.7934 C.3        2 BB2          0.0000
    29 O3         2.5200   -17.2890    15.1119 O.3        2 BB2          0.0000
    30 C4         1.0008   -17.6496    13.2672 C.3        2 BB2          0.0000
    31 N5         0.8981   -18.2279    11.9251 N.pl3      2 BB2          0.0000
    32 S6        -0.3992   -19.1784    11.5301 S.o2       2 BB2          0.0000
    33 O7        -1.5470   -18.5323    12.0632 O.2        2 BB2          0.0000
    34 O8        -0.2571   -19.4991    10.1531 O.2        2 BB2          0.0000
    35 C9        -0.2248   -20.6925    12.4142 C.ar       2 BB2          0.0000
    36 C10        1.0024   -21.0470    12.9420 C.ar       2 BB2          0.0000
    37 C11        1.1393   -22.2352    13.6357 C.ar       2 BB2          0.0000
    38 C12        0.0489   -23.0680    13.8017 C.ar       2 BB2          0.0000
    39 C13        0.1983   -24.3633    14.5574 C.3        2 BB2          0.0000
    40 C14       -1.1790   -22.7128    13.2748 C.ar       2 BB2          0.0000
    41 C15       -2.3679   -23.6207    13.4561 C.3        2 BB2          0.0000
    42 C16       -1.3166   -21.5232    12.5847 C.ar       2 BB2          0.0000
    43 C17        0.6719   -16.1802    13.2075 C.2        2 BB2          0.0000
    44 O19        0.7570   -15.5788    12.1504 O.2        2 BB2          0.0000
    45 H20        4.4223   -17.2358    13.2462 H          2 BB2          0.0000
    46 H21        3.3352   -17.5202    11.8656 H          2 BB2          0.0000
    47 H22        3.1627   -16.0439    12.8449 H          2 BB2          0.0000
    48 H23        2.6702   -18.8942    13.8198 H          2 BB2          0.0000
    49 H24        0.3002   -18.1521    13.9340 H          2 BB2          0.0000
    50 H25        1.8545   -20.3961    12.8124 H          2 BB2          0.0000
    51 H26        2.0984   -22.5125    14.0476 H          2 BB2          0.0000
    52 H27       -0.0018   -24.1921    15.6150 H          2 BB2          0.0000
    53 H28       -0.5092   -25.0951    14.1675 H          2 BB2          0.0000
    54 H29        1.2141   -24.7397    14.4360 H          2 BB2          0.0000
    55 H30       -2.8903   -23.3560    14.3755 H          2 BB2          0.0000
    56 H31       -3.0440   -23.5078    12.6087 H          2 BB2          0.0000
    57 H32       -2.0294   -24.6551    13.5157 H          2 BB2          0.0000
    58 H33       -2.2759   -21.2456    12.1732 H          2 BB2          0.0000
    59 H34        3.3887   -16.9217    15.3248 H          2 BB2          0.0000
    60 H35        1.5899   -18.0541    11.2677 H          2 BB2          0.0000
@<TRIPOS>BOND
     1      1      2 1
     2      1     13 1
     3      1     14 1
     4      1     15 1
     5      2      3 1
     6      3      4 1
     7      3     12 1
     8      3     16 1
     9      4      5 1
    10      4     17 1
    11      4     18 1
    12      5      6 1
    13      5     19 1
    14      5     20 1
    15      6      7 1
    16      6     21 1
    17      6     22 1
    18      7      8 ar
    19      7     12 ar
    20      8      9 ar
    21      8     23 1
    22      9     10 ar
    23      9     24 1
    24     10     11 ar
    25     10     25 1
    26     11     12 ar
    27     11     26 1
    28     27     28 1
    29     27     45 1
    30     27     46 1
    31     27     47 1
    32     28     29 1
    33     28     30 1
    34     28     48 1
    35     29     59 1
    36     30     31 1
    37     30     43 1
    38     30     49 1
    39     31     32 1
    40     31     60 1
    41     32     33 2
    42     32     34 2
    43     32     35 1
    44     35     36 ar
    45     35     42 ar
    46     36     37 ar
    47     36     50 1
    48     37     38 ar
    49     37     51 1
    50     38     39 1
    51     38     40 ar
    52     39     52 1
    53     39     53 1
    54     39     54 1
    55     40     41 1
    56     40     42 ar
    57     41     55 1
    58     41     56 1
    59     41     57 1
    60     42     58 1
    61     43     44 2
    62      2     43 am
@<TRIPOS>SUBSTRUCTURE
     1 BB1           2
     2 BB2          43
@<TRIPOS>MOLECULE
EN300-11723_i002_EN300-1198129_i001_3_19_1
  50   52   2   0   0
SMALL
USER_CHARGES
@<TRIPOS>ATOM
     1 C1        -1.0074   -18.5200     9.0682 C.3        1 BB1          0.0000
     2 N2        -0.2423   -17.8434    10.1241 N.am       1 BB1          0.0000
     3 C3        -0.4317   -18.5523    11.3967 C.3        1 BB1          0.0000
     4 C4        -0.1092   -20.0323    11.2017 C.3        1 BB1          0.0000
     5 C5        -0.1016   -20.7108    12.5767 C.3        1 BB1          0.0000
     6 C6         1.1184   -20.2162    13.3510 C.3        1 BB1          0.0000
     7 C7         1.1771   -18.7110    13.3421 C.ar       1 BB1          0.0000
     8 C8         1.9839   -18.0896    14.2862 C.ar       1 BB1          0.0000
     9 C9         2.0842   -16.7142    14.3266 C.ar       1 BB1          0.0000
    10 C10        1.3764   -15.9475    13.4202 C.ar       1 BB1          0.0000
    11 C11        0.5724   -16.5629    12.4828 C.ar       1 BB1          0.0000
    12 C12        0.4693   -17.9470    12.4412 C.ar       1 BB1          0.0000
    13 H13       -0.5895   -19.5117     8.8953 H          1 BB1          0.0000
    14 H14       -2.0486   -18.6132     9.3768 H          1 BB1          0.0000
    15 H15       -0.9518   -17.9371     8.1488 H          1 BB1          0.0000
    16 H16       -1.4693   -18.4493    11.7144 H          1 BB1          0.0000
    17 H17       -0.8680   -20.4932    10.5691 H          1 BB1          0.0000
    18 H18        0.8706   -20.1363    10.7356 H          1 BB1          0.0000
    19 H19       -1.0107   -20.4511    13.1192 H          1 BB1          0.0000
    20 H20       -0.0440   -21.7920    12.4523 H          1 BB1          0.0000
    21 H21        1.0570   -20.5674    14.3811 H          1 BB1          0.0000
    22 H22        2.0224   -20.6139    12.8897 H          1 BB1          0.0000
    23 H23        2.5371   -18.6880    14.9950 H          1 BB1          0.0000
    24 H24        2.7134   -16.2382    15.0641 H          1 BB1          0.0000
    25 H25        1.4520   -14.8705    13.4457 H          1 BB1          0.0000
    26 H26        0.0188   -15.9631    11.7755 H          1 BB1          0.0000
    27 O1        -0.3046   -17.2320    10.9820 O.2        2 BB2          0.0000
    28 C2        -0.0992   -16.0437    11.1864 C.2        2 BB2          0.0000
    29 C4        -0.0979   -15.0920    10.0614 C.ar       2 BB2          0.0000
    30 C5        -0.0950   -13.7157    10.3052 C.ar       2 BB2          0.0000
    31 C6        -0.0937   -12.8313     9.2479 C.ar       2 BB2          0.0000
    32 C7        -0.0957   -13.3016     7.9456 C.ar       2 BB2          0.0000
    33 C8        -0.0987   -14.6609     7.6932 C.ar       2 BB2          0.0000
    34 C9        -0.0936   -15.5616     8.7423 C.ar       2 BB2          0.0000
    35 F10       -0.0964   -16.8898     8.4955 F          2 BB2          0.0000
    36 S11       -0.0901   -11.0963     9.5546 S.o2       2 BB2          0.0000
    37 O12        1.2590   -10.8027     9.8907 O.2        2 BB2          0.0000
    38 O13       -0.6960   -10.5347     8.3985 O.2        2 BB2          0.0000
    39 C14       -1.1656   -10.8901    11.0008 C.3        2 BB2          0.0000
    40 C15       -2.3179    -9.9470    10.6491 C.3        2 BB2          0.0000
    41 C16       -3.4317   -10.7237    10.0809 C.1        2 BB2          0.0000
    42 C17       -4.3201   -11.3431     9.6277 C.1        2 BB2          0.0000
    43 H18       -0.0940   -13.3459    11.3199 H          2 BB2          0.0000
    44 H19       -0.0955   -12.6026     7.1222 H          2 BB2          0.0000
    45 H20       -0.1002   -15.0199     6.6747 H          2 BB2          0.0000
    46 H21       -1.5669   -11.8595    11.2963 H          2 BB2          0.0000
    47 H22       -0.5898   -10.4688    11.8248 H          2 BB2          0.0000
    48 H23       -2.6551    -9.4338    11.5497 H          2 BB2          0.0000
    49 H24       -1.9769    -9.2132     9.9188 H          2 BB2          0.0000
    50 H25       -5.1147   -11.8971     9.2224 H          2 BB2          0.0000
@<TRIPOS>BOND
     1      1      2 1
     2      1     13 1
     3      1     14 1
     4      1     15 1
     5      2      3 1
     6      3      4 1
     7      3     12 1
     8      3     16 1
     9      4      5 1
    10      4     17 1
    11      4     18 1
    12      5      6 1
    13      5     19 1
    14      5     20 1
    15      6      7 1
    16      6     21 1
    17      6     22 1
    18      7      8 ar
    19      7     12 ar
    20      8      9 ar
    21      8     23 1
    22      9     10 ar
    23      9     24 1
    24     10     11 ar
    25     10     25 1
    26     11     12 ar
    27     11     26 1
    28     27     28 2
    29     28     29 1
    30     29     30 ar
    31     29     34 ar
    32     30     31 ar
    33     30     43 1
    34     31     32 ar
    35     31     36 1
    36     32     33 ar
    37     32     44 1
    38     33     34 ar
    39     33     45 1
    40     34     35 1
    41     36     37 2
    42     36     38 2
    43     36     39 1
    44     39     40 1
    45     39     46 1
    46     39     47 1
    47     40     41 1
    48     40     48 1
    49     40     49 1
    50     41     42 3
    51     42     50 1
    52      2     28 am
@<TRIPOS>SUBSTRUCTURE
     1 BB1           2
     2 BB2          28
@<TRIPOS>MOLECULE
EN300-11723_i002_EN300-1198129_i001_3_2_1
  50   52   2   0   0
SMALL
USER_CHARGES
@<TRIPOS>ATOM
     1 C1        -1.0074   -18.5200     9.0682 C.3        1 BB1          0.0000
     2 N2        -0.2423   -17.8434    10.1241 N.am       1 BB1          0.0000
     3 C3        -0.4317   -18.5523    11.3967 C.3        1 BB1          0.0000
     4 C4        -0.1092   -20.0323    11.2017 C.3        1 BB1          0.0000
     5 C5        -0.1016   -20.7108    12.5767 C.3        1 BB1          0.0000
     6 C6         1.1184   -20.2162    13.3510 C.3        1 BB1          0.0000
     7 C7         1.1771   -18.7110    13.3421 C.ar       1 BB1          0.0000
     8 C8         1.9839   -18.0896    14.2862 C.ar       1 BB1          0.0000
     9 C9         2.0842   -16.7142    14.3266 C.ar       1 BB1          0.0000
    10 C10        1.3764   -15.9475    13.4202 C.ar       1 BB1          0.0000
    11 C11        0.5724   -16.5629    12.4828 C.ar       1 BB1          0.0000
    12 C12        0.4693   -17.9470    12.4412 C.ar       1 BB1          0.0000
    13 H13       -0.5895   -19.5117     8.8953 H          1 BB1          0.0000
    14 H14       -2.0486   -18.6132     9.3768 H          1 BB1          0.0000
    15 H15       -0.9518   -17.9371     8.1488 H          1 BB1          0.0000
    16 H16       -1.4693   -18.4493    11.7144 H          1 BB1          0.0000
    17 H17       -0.8680   -20.4932    10.5691 H          1 BB1          0.0000
    18 H18        0.8706   -20.1363    10.7356 H          1 BB1          0.0000
    19 H19       -1.0107   -20.4511    13.1192 H          1 BB1          0.0000
    20 H20       -0.0440   -21.7920    12.4523 H          1 BB1          0.0000
    21 H21        1.0570   -20.5674    14.3811 H          1 BB1          0.0000
    22 H22        2.0224   -20.6139    12.8897 H          1 BB1          0.0000
    23 H23        2.5371   -18.6880    14.9950 H          1 BB1          0.0000
    24 H24        2.7134   -16.2382    15.0641 H          1 BB1          0.0000
    25 H25        1.4520   -14.8705    13.4457 H          1 BB1          0.0000
    26 H26        0.0188   -15.9631    11.7755 H          1 BB1          0.0000
    27 C2        -0.3925   -15.7871    12.2073 C.2        2 BB2          0.0000
    28 O3        -0.9969   -16.8465    12.3003 O.2        2 BB2          0.0000
    29 C4        -0.2354   -15.1414    10.8922 C.ar       2 BB2          0.0000
    30 C5        -0.1788   -13.7480    10.7957 C.ar       2 BB2          0.0000
    31 C6        -0.0318   -13.1509     9.5621 C.ar       2 BB2          0.0000
    32 C7         0.0595   -13.9262     8.4186 C.ar       2 BB2          0.0000
    33 C8         0.0046   -15.3051     8.5026 C.ar       2 BB2          0.0000
    34 C9        -0.1363   -15.9203     9.7329 C.ar       2 BB2          0.0000
    35 F10       -0.1899   -17.2677     9.8148 F          2 BB2          0.0000
    36 S11        0.0396   -11.3946     9.4399 S.o2       2 BB2          0.0000
    37 O12        0.3047   -10.9615    10.7671 O.2        2 BB2          0.0000
    38 O13        0.9678   -11.1537     8.3914 O.2        2 BB2          0.0000
    39 C14       -1.6330   -10.9078     8.9338 C.3        2 BB2          0.0000
    40 C15       -2.3738   -10.3081    10.1306 C.3        2 BB2          0.0000
    41 C16       -3.8145   -10.5817    10.0032 C.1        2 BB2          0.0000
    42 C17       -4.9636   -10.7998     9.9015 C.1        2 BB2          0.0000
    43 H18       -0.2504   -13.1407    11.6858 H          2 BB2          0.0000
    44 H19        0.1738   -13.4511     7.4554 H          2 BB2          0.0000
    45 H20        0.0765   -15.9029     7.6061 H          2 BB2          0.0000
    46 H21       -1.5702   -10.1667     8.1369 H          2 BB2          0.0000
    47 H22       -2.1731   -11.7834     8.5738 H          2 BB2          0.0000
    48 H23       -1.9991   -10.7556    11.0512 H          2 BB2          0.0000
    49 H24       -2.2095    -9.2309    10.1572 H          2 BB2          0.0000
    50 H25       -5.9913   -10.9949     9.8107 H          2 BB2          0.0000
@<TRIPOS>BOND
     1      1      2 1
     2      1     13 1
     3      1     14 1
     4      1     15 1
     5      2      3 1
     6      3      4 1
     7      3     12 1
     8      3     16 1
     9      4      5 1
    10      4     17 1
    11      4     18 1
    12      5      6 1
    13      5     19 1
    14      5     20 1
    15      6      7 1
    16      6     21 1
    17      6     22 1
    18      7      8 ar
    19      7     12 ar
    20      8      9 ar
    21      8     23 1
    22      9     10 ar
    23      9     24 1
    24     10     11 ar
    25     10     25 1
    26     11     12 ar
    27     11     26 1
    28     27     28 2
    29     27     29 1
    30     29     30 ar
    31     29     34 ar
    32     30     31 ar
    33     30     43 1
    34     31     32 ar
    35     31     36 1
    36     32     33 ar
    37     32     44 1
    38     33     34 ar
    39     33     45 1
    40     34     35 1
    41     36     37 2
    42     36     38 2
    43     36     39 1
    44     39     40 1
    45     39     46 1
    46     39     47 1
    47     40     41 1
    48     40     48 1
    49     40     49 1
    50     41     42 3
    51     42     50 1
    52      2     27 am
@<TRIPOS>SUBSTRUCTURE
     1 BB1           2
     2 BB2          27
@<TRIPOS>MOLECULE
EN300-11723_i002_EN300-15782_i003_5_6_1
  60   62   2   0   0
SMALL
USER_CHARGES
@<TRIPOS>ATOM
     1 C1        -0.3973   -15.9443     8.3175 C.3        1 BB1          0.0000
     2 N2         0.7609   -15.5994     9.1527 N.am       1 BB1          0.0000
     3 C3         1.2008   -14.2332     8.8397 C.3        1 BB1          0.0000
     4 C4         1.3866   -14.0974     7.3298 C.3        1 BB1          0.0000
     5 C5         1.6327   -12.6195     7.0039 C.3        1 BB1          0.0000
     6 C6         0.3330   -11.8520     7.2372 C.3        1 BB1          0.0000
     7 C7        -0.2245   -12.1570     8.6029 C.ar       1 BB1          0.0000
     8 C8        -1.1737   -11.2870     9.1231 C.ar       1 BB1          0.0000
     9 C9        -1.7262   -11.5141    10.3668 C.ar       1 BB1          0.0000
    10 C10       -1.3325   -12.6165    11.1018 C.ar       1 BB1          0.0000
    11 C11       -0.3878   -13.4808    10.5877 C.ar       1 BB1          0.0000
    12 C12        0.1702   -13.2534     9.3367 C.ar       1 BB1          0.0000
    13 H13       -1.2433   -15.3137     8.5910 H          1 BB1          0.0000
    14 H14       -0.1492   -15.7844     7.2683 H          1 BB1          0.0000
    15 H15       -0.6590   -16.9909     8.4735 H          1 BB1          0.0000
    16 H16        2.1506   -14.0385     9.3377 H          1 BB1          0.0000
    17 H17        2.2431   -14.6913     7.0104 H          1 BB1          0.0000
    18 H18        0.4886   -14.4419     6.8169 H          1 BB1          0.0000
    19 H19        2.4135   -12.2253     7.6542 H          1 BB1          0.0000
    20 H20        1.9365   -12.5190     5.9620 H          1 BB1          0.0000
    21 H21        0.5282   -10.7825     7.1593 H          1 BB1          0.0000
    22 H22       -0.3954   -12.1400     6.4791 H          1 BB1          0.0000
    23 H23       -1.4816   -10.4253     8.5495 H          1 BB1          0.0000
    24 H24       -2.4635   -10.8327    10.7648 H          1 BB1          0.0000
    25 H25       -1.7625   -12.8005    12.0753 H          1 BB1          0.0000
    26 H26       -0.0800   -14.3414    11.1631 H          1 BB1          0.0000
    27 C1         2.0709   -17.5199    14.3312 C.3        2 BB2          0.0000
    28 C2         2.1075   -16.5245    13.1698 C.3        2 BB2          0.0000
    29 O3         3.2140   -16.8273    12.3176 O.3        2 BB2          0.0000
    30 C4         0.8063   -16.6246    12.3711 C.3        2 BB2          0.0000
    31 N5         0.9157   -17.7103    11.3936 N.pl3      2 BB2          0.0000
    32 S6        -0.3271   -18.7896    11.2125 S.o2       2 BB2          0.0000
    33 O7        -1.4574   -18.2108    11.8500 O.2        2 BB2          0.0000
    34 O8        -0.3215   -19.1825     9.8469 O.2        2 BB2          0.0000
    35 C9         0.0891   -20.2255    12.1449 C.ar       2 BB2          0.0000
    36 C10        1.2108   -20.2238    12.9525 C.ar       2 BB2          0.0000
    37 C11        1.5374   -21.3506    13.6842 C.ar       2 BB2          0.0000
    38 C12        0.7421   -22.4784    13.6083 C.ar       2 BB2          0.0000
    39 C13        1.0985   -23.7067    14.4054 C.3        2 BB2          0.0000
    40 C14       -0.3806   -22.4796    12.8015 C.ar       2 BB2          0.0000
    41 C15       -1.2480   -23.7091    12.7192 C.3        2 BB2          0.0000
    42 C16       -0.7093   -21.3519    12.0731 C.ar       2 BB2          0.0000
    43 C17        0.5573   -15.3240    11.6517 C.2        2 BB2          0.0000
    44 O18        1.3334   -14.9451    10.7910 O.2        2 BB2          0.0000
    45 H20        2.9979   -17.4487    14.9001 H          2 BB2          0.0000
    46 H21        1.2269   -17.2891    14.9811 H          2 BB2          0.0000
    47 H22        1.9618   -18.5313    13.9395 H          2 BB2          0.0000
    48 H23        2.2166   -15.5131    13.5614 H          2 BB2          0.0000
    49 H24       -0.0217   -16.8287    13.0498 H          2 BB2          0.0000
    50 H25        1.8323   -19.3425    13.0118 H          2 BB2          0.0000
    51 H26        2.4143   -21.3496    14.3147 H          2 BB2          0.0000
    52 H27        0.6192   -23.6571    15.3831 H          2 BB2          0.0000
    53 H28        0.7542   -24.5955    13.8767 H          2 BB2          0.0000
    54 H29        2.1799   -23.7560    14.5330 H          2 BB2          0.0000
    55 H30       -2.0221   -23.6597    13.4850 H          2 BB2          0.0000
    56 H31       -1.7135   -23.7602    11.7349 H          2 BB2          0.0000
    57 H32       -0.6359   -24.5969    12.8782 H          2 BB2          0.0000
    58 H33       -1.5864   -21.3528    11.4429 H          2 BB2          0.0000
    59 H34        2.9957   -16.8297    11.3756 H          2 BB2          0.0000
    60 H35        1.7160   -17.7969    10.8524 H          2 BB2          0.0000
@<TRIPOS>BOND
     1      1      2 1
     2      1     13 1
     3      1     14 1
     4      1     15 1
     5      2      3 1
     6      3      4 1
     7      3     12 1
     8      3     16 1
     9      4      5 1
    10      4     17 1
    11      4     18 1
    12      5      6 1
    13      5     19 1
    14      5     20 1
    15      6      7 1
    16      6     21 1
    17      6     22 1
    18      7      8 ar
    19      7     12 ar
    20      8      9 ar
    21      8     23 1
    22      9     10 ar
    23      9     24 1
    24     10     11 ar
    25     10     25 1
    26     11     12 ar
    27     11     26 1
    28     27     28 1
    29     27     45 1
    30     27     46 1
    31     27     47 1
    32     28     29 1
    33     28     30 1
    34     28     48 1
    35     29     59 1
    36     30     31 1
    37     30     43 1
    38     30     49 1
    39     31     32 1
    40     31     60 1
    41     32     33 2
    42     32     34 2
    43     32     35 1
    44     35     36 ar
    45     35     42 ar
    46     36     37 ar
    47     36     50 1
    48     37     38 ar
    49     37     51 1
    50     38     39 1
    51     38     40 ar
    52     39     52 1
    53     39     53 1
    54     39     54 1
    55     40     41 1
    56     40     42 ar
    57     41     55 1
    58     41     56 1
    59     41     57 1
    60     42     58 1
    61     43     44 2
    62      2     43 am
@<TRIPOS>SUBSTRUCTURE
     1 BB1           2
     2 BB2          43
@<TRIPOS>MOLECULE
EN300-11723_i002_EN300-107901_i001_6_12_1
  52   55   2   0   0
SMALL
USER_CHARGES
@<TRIPOS>ATOM
     1 C1         1.0653   -15.5216    11.8017 C.3        1 BB1          0.0000
     2 N2         0.6139   -15.5713    10.4046 N.am       1 BB1          0.0000
     3 C3         1.0315   -14.3454     9.7112 C.3        1 BB1          0.0000
     4 C4         1.2817   -14.6605     8.2379 C.3        1 BB1          0.0000
     5 C5         1.5034   -13.3394     7.4918 C.3        1 BB1          0.0000
     6 C6         0.1748   -12.5881     7.4377 C.3        1 BB1          0.0000
     7 C7        -0.4356   -12.4918     8.8114 C.ar       1 BB1          0.0000
     8 C8        -1.4299   -11.5433     9.0123 C.ar       1 BB1          0.0000
     9 C9        -2.0319   -11.4091    10.2465 C.ar       1 BB1          0.0000
    10 C10       -1.6430   -12.2250    11.2922 C.ar       1 BB1          0.0000
    11 C11       -0.6537   -13.1664    11.0953 C.ar       1 BB1          0.0000
    12 C12       -0.0459   -13.3024     9.8542 C.ar       1 BB1          0.0000
    13 H13        2.1545   -15.5458    11.8327 H          1 BB1          0.0000
    14 H14        0.7089   -14.6022    12.2662 H          1 BB1          0.0000
    15 H15        0.6674   -16.3800    12.3429 H          1 BB1          0.0000
    16 H16        1.9524   -13.9742    10.1608 H          1 BB1          0.0000
    17 H17        2.1671   -15.2893     8.1421 H          1 BB1          0.0000
    18 H18        0.4172   -15.1770     7.8209 H          1 BB1          0.0000
    19 H19        2.2435   -12.7389     8.0206 H          1 BB1          0.0000
    20 H20        1.8512   -13.5436     6.4792 H          1 BB1          0.0000
    21 H21        0.3451   -11.5841     7.0489 H          1 BB1          0.0000
    22 H22       -0.5108   -13.1175     6.7760 H          1 BB1          0.0000
    23 H23       -1.7341   -10.9052     8.1959 H          1 BB1          0.0000
    24 H24       -2.8040   -10.6688    10.3951 H          1 BB1          0.0000
    25 H25       -2.1116   -12.1258    12.2602 H          1 BB1          0.0000
    26 H26       -0.3497   -13.8029    11.9132 H          1 BB1          0.0000
    27 O1        -0.1040   -16.8127    10.9419 O.2        2 BB2          0.0000
    28 C2        -0.6586   -17.0647    11.9980 C.2        2 BB2          0.0000
    29 C4        -0.5081   -16.1395    13.1591 C.3        2 BB2          0.0000
    30 C5         0.8714   -15.6148    13.5202 C.3        2 BB2          0.0000
    31 C6         2.0718   -15.9927    12.6993 C.3        2 BB2          0.0000
    32 C7         2.9006   -17.0996    13.4447 C.3        2 BB2          0.0000
    33 C8         2.5304   -18.3463    12.5651 C.3        2 BB2          0.0000
    34 C9         1.3193   -19.1710    12.9337 C.3        2 BB2          0.0000
    35 C10        0.3748   -18.9766    14.0680 C.3        2 BB2          0.0000
    36 C11        0.7279   -17.7895    14.9401 C.3        2 BB2          0.0000
    37 C12        0.1108   -16.4913    14.4829 C.3        2 BB2          0.0000
    38 H13       -1.3221   -15.3755    13.1908 H          2 BB2          0.0000
    39 H14        0.8986   -14.5156    13.7853 H          2 BB2          0.0000
    40 H15        1.8115   -16.3477    11.7082 H          2 BB2          0.0000
    41 H16        2.7334   -15.1198    12.5839 H          2 BB2          0.0000
    42 H17        3.9712   -16.8793    13.2373 H          2 BB2          0.0000
    43 H18        2.7591   -17.1473    14.4662 H          2 BB2          0.0000
    44 H19        2.4322   -17.9925    11.5342 H          2 BB2          0.0000
    45 H20        3.4173   -18.9981    12.5812 H          2 BB2          0.0000
    46 H21        0.7203   -19.2946    12.0023 H          2 BB2          0.0000
    47 H22        1.7166   -20.2196    13.0503 H          2 BB2          0.0000
    48 H23       -0.6753   -18.9302    13.7299 H          2 BB2          0.0000
    49 H24        0.3881   -19.9005    14.7055 H          2 BB2          0.0000
    50 H25        0.2169   -18.0196    15.9493 H          2 BB2          0.0000
    51 H26        1.7414   -17.7849    15.3103 H          2 BB2          0.0000
    52 H27       -0.3766   -15.9447    15.3713 H          2 BB2          0.0000
@<TRIPOS>BOND
     1      1      2 1
     2      1     13 1
     3      1     14 1
     4      1     15 1
     5      2      3 1
     6      3      4 1
     7      3     12 1
     8      3     16 1
     9      4      5 1
    10      4     17 1
    11      4     18 1
    12      5      6 1
    13      5     19 1
    14      5     20 1
    15      6      7 1
    16      6     21 1
    17      6     22 1
    18      7      8 ar
    19      7     12 ar
    20      8      9 ar
    21      8     23 1
    22      9     10 ar
    23      9     24 1
    24     10     11 ar
    25     10     25 1
    26     11     12 ar
    27     11     26 1
    28     27     28 2
    29     28     29 1
    30     29     30 1
    31     29     37 1
    32     29     38 1
    33     30     31 1
    34     30     37 1
    35     30     39 1
    36     31     32 1
    37     31     40 1
    38     31     41 1
    39     32     33 1
    40     32     42 1
    41     32     43 1
    42     33     34 1
    43     33     44 1
    44     33     45 1
    45     34     35 1
    46     34     46 1
    47     34     47 1
    48     35     36 1
    49     35     48 1
    50     35     49 1
    51     36     37 1
    52     36     50 1
    53     36     51 1
    54     37     52 1
    55      2     28 am
@<TRIPOS>SUBSTRUCTURE
     1 BB1           2
     2 BB2          28
@<TRIPOS>MOLECULE
EN300-02904_i001_EN300-315786_i001_3_16_1
  59   62   2   0   0
SMALL
USER_CHARGES
@<TRIPOS>ATOM
     1 C1        -4.2995   -11.0936     9.9016 C.3        1 BB1          0.0000
     2 C2        -2.8262   -10.8863    10.1416 C.ar       1 BB1          0.0000
     3 C3        -2.3575   -10.5045    11.3914 C.ar       1 BB1          0.0000
     4 C4        -1.0017   -10.3234    11.5789 C.ar       1 BB1          0.0000
     5 N5        -0.1509   -10.5079    10.5874 N.ar       1 BB1          0.0000
     6 C6        -0.5586   -10.8720     9.3813 C.ar       1 BB1          0.0000
     7 N7         0.3726   -11.0553     8.3656 N.am       1 BB1          0.0000
     8 C8         0.7642   -12.4094     7.9665 C.3        1 BB1          0.0000
     9 C9         1.0204   -13.2551     9.2156 C.3        1 BB1          0.0000
    10 C10        1.4294   -14.6694     8.7989 C.3        1 BB1          0.0000
    11 C11        0.3065   -15.3031     7.9754 C.3        1 BB1          0.0000
    12 C12        0.0502   -14.4575     6.7263 C.3        1 BB1          0.0000
    13 C13       -0.3588   -13.0433     7.1431 C.3        1 BB1          0.0000
    14 C14       -1.9098   -11.0778     9.1230 C.ar       1 BB1          0.0000
    15 H15       -4.7502   -10.1555     9.5777 H          1 BB1          0.0000
    16 H16       -4.4388   -11.8495     9.1288 H          1 BB1          0.0000
    17 H17       -4.7748   -11.4256    10.8245 H          1 BB1          0.0000
    18 H18       -3.0465   -10.3505    12.2088 H          1 BB1          0.0000
    19 H19       -0.6327   -10.0264    12.5496 H          1 BB1          0.0000
    20 H20        1.6730   -12.3629     7.3666 H          1 BB1          0.0000
    21 H21        1.8203   -12.8035     9.8023 H          1 BB1          0.0000
    22 H22        0.1115   -13.3016     9.8156 H          1 BB1          0.0000
    23 H23        2.3381   -14.6228     8.1989 H          1 BB1          0.0000
    24 H24        1.6118   -15.2718     9.6888 H          1 BB1          0.0000
    25 H25        0.5978   -16.3107     7.6786 H          1 BB1          0.0000
    26 H26       -0.6024   -15.3497     8.5754 H          1 BB1          0.0000
    27 H27        0.9591   -14.4110     6.1264 H          1 BB1          0.0000
    28 H28       -0.7498   -14.9090     6.1397 H          1 BB1          0.0000
    29 H29       -1.2676   -13.0898     7.7430 H          1 BB1          0.0000
    30 H30       -0.5413   -12.4408     6.2532 H          1 BB1          0.0000
    31 H31       -2.2398   -11.3752     8.1387 H          1 BB1          0.0000
    32 C2         0.3606   -12.8877     8.8732 C.2        2 BB2          0.0000
    33 O3        -0.5257   -12.0691     8.6754 O.2        2 BB2          0.0000
    34 C4         0.3375   -13.7215    10.0931 C.ar       2 BB2          0.0000
    35 C5         1.3368   -14.6734    10.3078 C.ar       2 BB2          0.0000
    36 C6         1.3146   -15.4506    11.4457 C.ar       2 BB2          0.0000
    37 C7         0.2941   -15.2869    12.3832 C.ar       2 BB2          0.0000
    38 C8        -0.7046   -14.3361    12.1693 C.ar       2 BB2          0.0000
    39 C9        -0.6805   -13.5541    11.0346 C.ar       2 BB2          0.0000
    40 C10        0.2706   -16.1228    13.6054 C.2        2 BB2          0.0000
    41 O11        0.3511   -15.6011    14.7000 O.2        2 BB2          0.0000
    42 N12        0.1600   -17.4621    13.5038 N.am       2 BB2          0.0000
    43 C13        0.1447   -18.1234    12.1892 C.3        2 BB2          0.0000
    44 C14        1.1757   -19.2576    12.2065 C.3        2 BB2          0.0000
    45 O15        0.9364   -20.0941    13.3408 O.3        2 BB2          0.0000
    46 C16        1.0872   -19.4318    14.5987 C.3        2 BB2          0.0000
    47 C17        0.0572   -18.3070    14.7042 C.3        2 BB2          0.0000
    48 H18        2.1265   -14.8005     9.5822 H          2 BB2          0.0000
    49 H19        2.0871   -16.1870    11.6117 H          2 BB2          0.0000
    50 H20       -1.4944   -14.2101    12.8951 H          2 BB2          0.0000
    51 H21       -1.4533   -12.8180    10.8693 H          2 BB2          0.0000
    52 H22       -0.8472   -18.5318    11.9953 H          2 BB2          0.0000
    53 H23        0.4039   -17.4034    11.4130 H          2 BB2          0.0000
    54 H24        1.0844   -19.8467    11.2939 H          2 BB2          0.0000
    55 H25        2.1792   -18.8366    12.2700 H          2 BB2          0.0000
    56 H26        0.9320   -20.1462    15.4073 H          2 BB2          0.0000
    57 H27        2.0902   -19.0114    14.6708 H          2 BB2          0.0000
    58 H28        0.2561   -17.7092    15.5937 H          2 BB2          0.0000
    59 H29       -0.9451   -18.7313    14.7629 H          2 BB2          0.0000
@<TRIPOS>BOND
     1      1      2 1
     2      1     15 1
     3      1     16 1
     4      1     17 1
     5      2      3 ar
     6      2     14 ar
     7      3      4 ar
     8      3     18 1
     9      4      5 ar
    10      4     19 1
    11      5      6 ar
    12      6      7 1
    13      6     14 ar
    14      7      8 1
    15      8      9 1
    16      8     13 1
    17      8     20 1
    18      9     10 1
    19      9     21 1
    20      9     22 1
    21     10     11 1
    22     10     23 1
    23     10     24 1
    24     11     12 1
    25     11     25 1
    26     11     26 1
    27     12     13 1
    28     12     27 1
    29     12     28 1
    30     13     29 1
    31     13     30 1
    32     14     31 1
    33     32     33 2
    34     32     34 1
    35     34     35 ar
    36     34     39 ar
    37     35     36 ar
    38     35     48 1
    39     36     37 ar
    40     36     49 1
    41     37     38 ar
    42     37     40 1
    43     38     39 ar
    44     38     50 1
    45     39     51 1
    46     40     41 2
    47     40     42 am
    48     42     43 1
    49     42     47 1
    50     43     44 1
    51     43     52 1
    52     43     53 1
    53     44     45 1
    54     44     54 1
    55     44     55 1
    56     45     46 1
    57     46     47 1
    58     46     56 1
    59     46     57 1
    60     47     58 1
    61     47     59 1
    62      7     32 am
@<TRIPOS>SUBSTRUCTURE
     1 BB1           7
     2 BB2          32
@<TRIPOS>MOLECULE
EN300-02904_i001_EN300-315786_i001_8_16_1
  59   62   2   0   0
SMALL
USER_CHARGES
@<TRIPOS>ATOM
     1 C1        -4.5984   -10.5027     9.9944 C.3        1 BB1          0.0000
     2 C2        -3.1059   -10.6329    10.1578 C.ar       1 BB1          0.0000
     3 C3        -2.5101   -10.4601    11.3999 C.ar       1 BB1          0.0000
     4 C4        -1.1402   -10.5866    11.5163 C.ar       1 BB1          0.0000
     5 N5        -0.3948   -10.8681    10.4646 N.ar       1 BB1          0.0000
     6 C6        -0.9254   -11.0402     9.2636 C.ar       1 BB1          0.0000
     7 N7        -0.1024   -11.3357     8.1830 N.am       1 BB1          0.0000
     8 C8         0.5500   -12.6445     8.0956 C.3        1 BB1          0.0000
     9 C9        -0.4788   -13.7458     8.3596 C.3        1 BB1          0.0000
    10 C10        0.2025   -15.1127     8.2683 C.3        1 BB1          0.0000
    11 C11        0.7964   -15.2942     6.8701 C.3        1 BB1          0.0000
    12 C12        1.8252   -14.1929     6.6060 C.3        1 BB1          0.0000
    13 C13        1.1439   -12.8261     6.6973 C.3        1 BB1          0.0000
    14 C14       -2.2992   -10.9331     9.0747 C.ar       1 BB1          0.0000
    15 H15       -4.8495    -9.4676     9.7632 H          1 BB1          0.0000
    16 H16       -4.9325   -11.1479     9.1819 H          1 BB1          0.0000
    17 H17       -5.0924   -10.7985    10.9199 H          1 BB1          0.0000
    18 H18       -3.1120   -10.2287    12.2662 H          1 BB1          0.0000
    19 H19       -0.6726   -10.4529    12.4807 H          1 BB1          0.0000
    20 H20        1.3452   -12.7045     8.8387 H          1 BB1          0.0000
    21 H21       -0.9019   -13.6165     9.3557 H          1 BB1          0.0000
    22 H22       -1.2740   -13.6859     7.6165 H          1 BB1          0.0000
    23 H23        0.9977   -15.1726     9.0114 H          1 BB1          0.0000
    24 H24       -0.5305   -15.8973     8.4563 H          1 BB1          0.0000
    25 H25        1.2817   -16.2680     6.8050 H          1 BB1          0.0000
    26 H26        0.0012   -15.2343     6.1269 H          1 BB1          0.0000
    27 H27        2.6204   -14.2529     7.3491 H          1 BB1          0.0000
    28 H28        2.2483   -14.3222     5.6098 H          1 BB1          0.0000
    29 H29        0.3487   -12.7660     5.9541 H          1 BB1          0.0000
    30 H30        1.8768   -12.0415     6.5091 H          1 BB1          0.0000
    31 H31       -2.7296   -11.0743     8.0943 H          1 BB1          0.0000
    32 C2         0.3606   -12.8877     8.8732 C.2        2 BB2          0.0000
    33 O3        -0.5257   -12.0691     8.6754 O.2        2 BB2          0.0000
    34 C4         0.3375   -13.7215    10.0931 C.ar       2 BB2          0.0000
    35 C5         1.3368   -14.6734    10.3078 C.ar       2 BB2          0.0000
    36 C6         1.3146   -15.4506    11.4457 C.ar       2 BB2          0.0000
    37 C7         0.2941   -15.2869    12.3832 C.ar       2 BB2          0.0000
    38 C8        -0.7046   -14.3361    12.1693 C.ar       2 BB2          0.0000
    39 C9        -0.6805   -13.5541    11.0346 C.ar       2 BB2          0.0000
    40 C10        0.2706   -16.1228    13.6054 C.2        2 BB2          0.0000
    41 O11        0.3511   -15.6011    14.7000 O.2        2 BB2          0.0000
    42 N12        0.1600   -17.4621    13.5038 N.am       2 BB2          0.0000
    43 C13        0.1447   -18.1234    12.1892 C.3        2 BB2          0.0000
    44 C14        1.1757   -19.2576    12.2065 C.3        2 BB2          0.0000
    45 O15        0.9364   -20.0941    13.3408 O.3        2 BB2          0.0000
    46 C16        1.0872   -19.4318    14.5987 C.3        2 BB2          0.0000
    47 C17        0.0572   -18.3070    14.7042 C.3        2 BB2          0.0000
    48 H18        2.1265   -14.8005     9.5822 H          2 BB2          0.0000
    49 H19        2.0871   -16.1870    11.6117 H          2 BB2          0.0000
    50 H20       -1.4944   -14.2101    12.8951 H          2 BB2          0.0000
    51 H21       -1.4533   -12.8180    10.8693 H          2 BB2          0.0000
    52 H22       -0.8472   -18.5318    11.9953 H          2 BB2          0.0000
    53 H23        0.4039   -17.4034    11.4130 H          2 BB2          0.0000
    54 H24        1.0844   -19.8467    11.2939 H          2 BB2          0.0000
    55 H25        2.1792   -18.8366    12.2700 H          2 BB2          0.0000
    56 H26        0.9320   -20.1462    15.4073 H          2 BB2          0.0000
    57 H27        2.0902   -19.0114    14.6708 H          2 BB2          0.0000
    58 H28        0.2561   -17.7092    15.5937 H          2 BB2          0.0000
    59 H29       -0.9451   -18.7313    14.7629 H          2 BB2          0.0000
@<TRIPOS>BOND
     1      1      2 1
     2      1     15 1
     3      1     16 1
     4      1     17 1
     5      2      3 ar
     6      2     14 ar
     7      3      4 ar
     8      3     18 1
     9      4      5 ar
    10      4     19 1
    11      5      6 ar
    12      6      7 1
    13      6     14 ar
    14      7      8 1
    15      8      9 1
    16      8     13 1
    17      8     20 1
    18      9     10 1
    19      9     21 1
    20      9     22 1
    21     10     11 1
    22     10     23 1
    23     10     24 1
    24     11     12 1
    25     11     25 1
    26     11     26 1
    27     12     13 1
    28     12     27 1
    29     12     28 1
    30     13     29 1
    31     13     30 1
    32     14     31 1
    33     32     33 2
    34     32     34 1
    35     34     35 ar
    36     34     39 ar
    37     35     36 ar
    38     35     48 1
    39     36     37 ar
    40     36     49 1
    41     37     38 ar
    42     37     40 1
    43     38     39 ar
    44     38     50 1
    45     39     51 1
    46     40     41 2
    47     40     42 am
    48     42     43 1
    49     42     47 1
    50     43     44 1
    51     43     52 1
    52     43     53 1
    53     44     45 1
    54     44     54 1
    55     44     55 1
    56     45     46 1
    57     46     47 1
    58     46     56 1
    59     46     57 1
    60     47     58 1
    61     47     59 1
    62      7     32 am
@<TRIPOS>SUBSTRUCTURE
     1 BB1           7
     2 BB2          32
@<TRIPOS>MOLECULE
EN300-06567_i001_EN300-218565_i001_10_20_1
  52   54   2   0   0
SMALL
USER_CHARGES
@<TRIPOS>ATOM
     1 C1        -0.3607   -17.8702    11.8398 C.3        1 BB1          0.0000
     2 N2        -0.0027   -16.8003    10.8991 N.am       1 BB1          0.0000
     3 C3         0.1413   -15.5339    11.6295 C.3        1 BB1          0.0000
     4 C4         0.2019   -14.3920    10.6481 C.ar       1 BB1          0.0000
     5 C5        -0.6653   -13.3231    10.7785 C.ar       1 BB1          0.0000
     6 C6        -0.6122   -12.2753     9.8797 C.ar       1 BB1          0.0000
     7 C7         0.3129   -12.2959     8.8460 C.ar       1 BB1          0.0000
     8 O8         0.3675   -11.2661     7.9609 O.3        1 BB1          0.0000
     9 C9         0.8053   -11.5724     6.6355 C.3        1 BB1          0.0000
    10 C10        1.1823   -13.3693     8.7176 C.ar       1 BB1          0.0000
    11 C11        1.1285   -14.4122     9.6220 C.ar       1 BB1          0.0000
    12 H12       -1.3032   -17.6237    12.3289 H          1 BB1          0.0000
    13 H13       -0.4676   -18.8099    11.2979 H          1 BB1          0.0000
    14 H14        0.4228   -17.9709    12.5909 H          1 BB1          0.0000
    15 H15       -0.7129   -15.3979    12.2929 H          1 BB1          0.0000
    16 H16        1.0584   -15.5562    12.2181 H          1 BB1          0.0000
    17 H17       -1.3852   -13.3075    11.5834 H          1 BB1          0.0000
    18 H18       -1.2902   -11.4409     9.9816 H          1 BB1          0.0000
    19 H19        0.8025   -10.6641     6.0330 H          1 BB1          0.0000
    20 H20        1.8150   -11.9813     6.6718 H          1 BB1          0.0000
    21 H21        0.1321   -12.3054     6.1908 H          1 BB1          0.0000
    22 H22        1.9030   -13.3879     7.9135 H          1 BB1          0.0000
    23 H23        1.8054   -15.2480     9.5227 H          1 BB1          0.0000
    24 O1         0.5736   -15.2962    11.9704 O.2        2 BB2          0.0000
    25 C2         1.3446   -15.9926    12.6101 C.2        2 BB2          0.0000
    26 C4         0.8928   -16.6326    13.8856 C.2        2 BB2          0.0000
    27 O5         0.2662   -15.9868    14.6994 O.2        2 BB2          0.0000
    28 N6         1.1820   -17.9260    14.1300 N.am       2 BB2          0.0000
    29 C7         0.7246   -18.5817    15.3646 C.3        2 BB2          0.0000
    30 C8         0.0142   -19.8863    14.9886 C.3        2 BB2          0.0000
    31 N9         0.9023   -20.6985    14.1464 N.3        2 BB2          0.0000
    32 C10        1.2041   -20.0188    12.8796 C.3        2 BB2          0.0000
    33 C11        1.9580   -18.7211    13.1663 C.3        2 BB2          0.0000
    34 C12        0.3565   -21.9637    13.9177 C.ar       2 BB2          0.0000
    35 C13        0.7479   -23.0425    14.7004 C.ar       2 BB2          0.0000
    36 C14        0.2057   -24.2920    14.4719 C.ar       2 BB2          0.0000
    37 C15       -0.7258   -24.4698    13.4654 C.ar       2 BB2          0.0000
    38 C16       -1.1177   -23.3979    12.6845 C.ar       2 BB2          0.0000
    39 C17       -0.5834   -22.1447    12.9110 C.ar       2 BB2          0.0000
    40 H18        1.5814   -18.8016    16.0014 H          2 BB2          0.0000
    41 H19        0.0315   -17.9263    15.8920 H          2 BB2          0.0000
    42 H20       -0.2342   -20.4394    15.8944 H          2 BB2          0.0000
    43 H21       -0.8993   -19.6579    14.4394 H          2 BB2          0.0000
    44 H22        1.8188   -20.6678    12.2559 H          2 BB2          0.0000
    45 H23        0.2742   -19.7884    12.3598 H          2 BB2          0.0000
    46 H24        2.0831   -18.1582    12.2414 H          2 BB2          0.0000
    47 H25        2.9343   -18.9515    13.5929 H          2 BB2          0.0000
    48 H26        1.4756   -22.9044    15.4864 H          2 BB2          0.0000
    49 H27        0.5100   -25.1313    15.0798 H          2 BB2          0.0000
    50 H28       -1.1479   -25.4481    13.2887 H          2 BB2          0.0000
    51 H29       -1.8453   -23.5402    11.8993 H          2 BB2          0.0000
    52 H30       -0.8902   -21.3080    12.3010 H          2 BB2          0.0000
@<TRIPOS>BOND
     1      1      2 1
     2      1     12 1
     3      1     13 1
     4      1     14 1
     5      2      3 1
     6      3      4 1
     7      3     15 1
     8      3     16 1
     9      4      5 ar
    10      4     11 ar
    11      5      6 ar
    12      5     17 1
    13      6      7 ar
    14      6     18 1
    15      7      8 1
    16      7     10 ar
    17      8      9 1
    18      9     19 1
    19      9     20 1
    20      9     21 1
    21     10     11 ar
    22     10     22 1
    23     11     23 1
    24     24     25 2
    25     25     26 1
    26     26     27 2
    27     26     28 am
    28     28     29 1
    29     28     33 1
    30     29     30 1
    31     29     40 1
    32     29     41 1
    33     30     31 1
    34     30     42 1
    35     30     43 1
    36     31     32 1
    37     31     34 1
    38     32     33 1
    39     32     44 1
    40     32     45 1
    41     33     46 1
    42     33     47 1
    43     34     35 ar
    44     34     39 ar
    45     35     36 ar
    46     35     48 1
    47     36     37 ar
    48     36     49 1
    49     37     38 ar
    50     37     50 1
    51     38     39 ar
    52     38     51 1
    53     39     52 1
    54      2     25 am
@<TRIPOS>SUBSTRUCTURE
     1 BB1           2
     2 BB2          25
@<TRIPOS>MOLECULE
EN300-06567_i001_EN300-34862_i002_10_1_1
  35   36   2   0   0
SMALL
USER_CHARGES
@<TRIPOS>ATOM
     1 C1        -0.3607   -17.8702    11.8398 C.3        1 BB1          0.0000
     2 N2        -0.0027   -16.8003    10.8991 N.am       1 BB1          0.0000
     3 C3         0.1413   -15.5339    11.6295 C.3        1 BB1          0.0000
     4 C4         0.2019   -14.3920    10.6481 C.ar       1 BB1          0.0000
     5 C5        -0.6653   -13.3231    10.7785 C.ar       1 BB1          0.0000
     6 C6        -0.6122   -12.2753     9.8797 C.ar       1 BB1          0.0000
     7 C7         0.3129   -12.2959     8.8460 C.ar       1 BB1          0.0000
     8 O8         0.3675   -11.2661     7.9609 O.3        1 BB1          0.0000
     9 C9         0.8053   -11.5724     6.6355 C.3        1 BB1          0.0000
    10 C10        1.1823   -13.3693     8.7176 C.ar       1 BB1          0.0000
    11 C11        1.1285   -14.4122     9.6220 C.ar       1 BB1          0.0000
    12 H12       -1.3032   -17.6237    12.3289 H          1 BB1          0.0000
    13 H13       -0.4676   -18.8099    11.2979 H          1 BB1          0.0000
    14 H14        0.4228   -17.9709    12.5909 H          1 BB1          0.0000
    15 H15       -0.7129   -15.3979    12.2929 H          1 BB1          0.0000
    16 H16        1.0584   -15.5562    12.2181 H          1 BB1          0.0000
    17 H17       -1.3852   -13.3075    11.5834 H          1 BB1          0.0000
    18 H18       -1.2902   -11.4409     9.9816 H          1 BB1          0.0000
    19 H19        0.8025   -10.6641     6.0330 H          1 BB1          0.0000
    20 H20        1.8150   -11.9813     6.6718 H          1 BB1          0.0000
    21 H21        0.1321   -12.3054     6.1908 H          1 BB1          0.0000
    22 H22        1.9030   -13.3879     7.9135 H          1 BB1          0.0000
    23 H23        1.8054   -15.2480     9.5227 H          1 BB1          0.0000
    24 C2         1.7110   -16.2827    13.3004 C.2        2 BB2          0.0000
    25 O3         1.8462   -15.5991    12.2999 O.2        2 BB2          0.0000
    26 C4         2.4553   -17.5868    13.4281 C.3        2 BB2          0.0000
    27 C5         2.0008   -18.2992    14.7086 C.3        2 BB2          0.0000
    28 S6         1.3339   -19.8858    14.1146 S.3        2 BB2          0.0000
    29 C7         1.6432   -19.5854    12.4010 C.2        2 BB2          0.0000
    30 O8         1.3812   -20.3543    11.4960 O.2        2 BB2          0.0000
    31 N9         2.2058   -18.3893    12.2522 N.am       2 BB2          0.0000
    32 H10        3.5235   -17.3808    13.4958 H          2 BB2          0.0000
    33 H11        2.8475   -18.4656    15.3747 H          2 BB2          0.0000
    34 H12        1.2247   -17.7226    15.2121 H          2 BB2          0.0000
    35 H13        2.4438   -18.0617    11.3709 H          2 BB2          0.0000
@<TRIPOS>BOND
     1      1      2 1
     2      1     12 1
     3      1     13 1
     4      1     14 1
     5      2      3 1
     6      3      4 1
     7      3     15 1
     8      3     16 1
     9      4      5 ar
    10      4     11 ar
    11      5      6 ar
    12      5     17 1
    13      6      7 ar
    14      6     18 1
    15      7      8 1
    16      7     10 ar
    17      8      9 1
    18      9     19 1
    19      9     20 1
    20      9     21 1
    21     10     11 ar
    22     10     22 1
    23     11     23 1
    24     24     25 2
    25     24     26 1
    26     26     27 1
    27     26     31 1
    28     26     32 1
    29     27     28 1
    30     27     33 1
    31     27     34 1
    32     28     29 1
    33     29     30 2
    34     29     31 am
    35     31     35 1
    36      2     24 am
@<TRIPOS>SUBSTRUCTURE
     1 BB1           2
     2 BB2          24
@<TRIPOS>MOLECULE
EN300-06567_i001_EN300-34862_i002_10_16_1
  35   36   2   0   0
SMALL
USER_CHARGES
@<TRIPOS>ATOM
     1 C1        -0.3607   -17.8702    11.8398 C.3        1 BB1          0.0000
     2 N2        -0.0027   -16.8003    10.8991 N.am       1 BB1          0.0000
     3 C3         0.1413   -15.5339    11.6295 C.3        1 BB1          0.0000
     4 C4         0.2019   -14.3920    10.6481 C.ar       1 BB1          0.0000
     5 C5        -0.6653   -13.3231    10.7785 C.ar       1 BB1          0.0000
     6 C6        -0.6122   -12.2753     9.8797 C.ar       1 BB1          0.0000
     7 C7         0.3129   -12.2959     8.8460 C.ar       1 BB1          0.0000
     8 O8         0.3675   -11.2661     7.9609 O.3        1 BB1          0.0000
     9 C9         0.8053   -11.5724     6.6355 C.3        1 BB1          0.0000
    10 C10        1.1823   -13.3693     8.7176 C.ar       1 BB1          0.0000
    11 C11        1.1285   -14.4122     9.6220 C.ar       1 BB1          0.0000
    12 H12       -1.3032   -17.6237    12.3289 H          1 BB1          0.0000
    13 H13       -0.4676   -18.8099    11.2979 H          1 BB1          0.0000
    14 H14        0.4228   -17.9709    12.5909 H          1 BB1          0.0000
    15 H15       -0.7129   -15.3979    12.2929 H          1 BB1          0.0000
    16 H16        1.0584   -15.5562    12.2181 H          1 BB1          0.0000
    17 H17       -1.3852   -13.3075    11.5834 H          1 BB1          0.0000
    18 H18       -1.2902   -11.4409     9.9816 H          1 BB1          0.0000
    19 H19        0.8025   -10.6641     6.0330 H          1 BB1          0.0000
    20 H20        1.8150   -11.9813     6.6718 H          1 BB1          0.0000
    21 H21        0.1321   -12.3054     6.1908 H          1 BB1          0.0000
    22 H22        1.9030   -13.3879     7.9135 H          1 BB1          0.0000
    23 H23        1.8054   -15.2480     9.5227 H          1 BB1          0.0000
    24 O1        -0.6972   -16.6529    13.2951 O.2        2 BB2          0.0000
    25 C2         0.4752   -16.6360    13.6291 C.2        2 BB2          0.0000
    26 C4         1.3028   -17.8921    13.5381 C.3        2 BB2          0.0000
    27 C5         0.7267   -18.9418    14.4973 C.3        2 BB2          0.0000
    28 S6         0.2961   -20.3385    13.4116 S.3        2 BB2          0.0000
    29 C7         0.8294   -19.5753    11.9097 C.2        2 BB2          0.0000
    30 O8         0.7727   -20.0838    10.8064 O.2        2 BB2          0.0000
    31 N9         1.3016   -18.3596    12.1703 N.am       2 BB2          0.0000
    32 H10        2.3271   -17.6647    13.8334 H          2 BB2          0.0000
    33 H11        1.4762   -19.2432    15.2292 H          2 BB2          0.0000
    34 H12       -0.1627   -18.5568    14.9960 H          2 BB2          0.0000
    35 H13        1.6386   -17.7969    11.4557 H          2 BB2          0.0000
@<TRIPOS>BOND
     1      1      2 1
     2      1     12 1
     3      1     13 1
     4      1     14 1
     5      2      3 1
     6      3      4 1
     7      3     15 1
     8      3     16 1
     9      4      5 ar
    10      4     11 ar
    11      5      6 ar
    12      5     17 1
    13      6      7 ar
    14      6     18 1
    15      7      8 1
    16      7     10 ar
    17      8      9 1
    18      9     19 1
    19      9     20 1
    20      9     21 1
    21     10     11 ar
    22     10     22 1
    23     11     23 1
    24     24     25 2
    25     25     26 1
    26     26     27 1
    27     26     31 1
    28     26     32 1
    29     27     28 1
    30     27     33 1
    31     27     34 1
    32     28     29 1
    33     29     30 2
    34     29     31 am
    35     31     35 1
    36      2     25 am
@<TRIPOS>SUBSTRUCTURE
     1 BB1           2
     2 BB2          25
@<TRIPOS>MOLECULE
EN300-06567_i001_EN300-222254_i002_11_20_1
  46   48   2   0   0
SMALL
USER_CHARGES
@<TRIPOS>ATOM
     1 C1         1.7451   -16.3017    13.1279 C.3        1 BB1          0.0000
     2 N2         1.7761   -15.7315    11.7745 N.am       1 BB1          0.0000
     3 C3         0.4033   -15.5898    11.2713 C.3        1 BB1          0.0000
     4 C4         0.4263   -14.8810     9.9416 C.ar       1 BB1          0.0000
     5 C5        -0.0833   -15.5051     8.8179 C.ar       1 BB1          0.0000
     6 C6        -0.0628   -14.8577     7.5977 C.ar       1 BB1          0.0000
     7 C7         0.4692   -13.5801     7.5005 C.ar       1 BB1          0.0000
     8 O8         0.4900   -12.9410     6.3013 O.3        1 BB1          0.0000
     9 C9         1.4636   -11.9085     6.1333 C.3        1 BB1          0.0000
    10 C10        0.9793   -12.9559     8.6295 C.ar       1 BB1          0.0000
    11 C11        0.9519   -13.6056     9.8483 C.ar       1 BB1          0.0000
    12 H12        1.2658   -17.2804    13.0990 H          1 BB1          0.0000
    13 H13        2.7637   -16.4070    13.5013 H          1 BB1          0.0000
    14 H14        1.1825   -15.6412    13.7877 H          1 BB1          0.0000
    15 H15       -0.0427   -16.5769    11.1491 H          1 BB1          0.0000
    16 H16       -0.1861   -15.0102    11.9817 H          1 BB1          0.0000
    17 H17       -0.4973   -16.4997     8.8941 H          1 BB1          0.0000
    18 H18       -0.4603   -15.3458     6.7202 H          1 BB1          0.0000
    19 H19        1.3720   -11.4819     5.1345 H          1 BB1          0.0000
    20 H20        1.2991   -11.1294     6.8777 H          1 BB1          0.0000
    21 H21        2.4622   -12.3268     6.2596 H          1 BB1          0.0000
    22 H22        1.3944   -11.9615     8.5563 H          1 BB1          0.0000
    23 H23        1.3487   -13.1199    10.7276 H          1 BB1          0.0000
    24 O1        -0.1937   -15.4726    12.3986 O.2        2 BB2          0.0000
    25 C2        -0.2904   -16.6423    12.7290 C.2        2 BB2          0.0000
    26 C4         0.4712   -17.1529    13.9248 C.3        2 BB2          0.0000
    27 C5         1.6394   -16.2452    14.3447 C.3        2 BB2          0.0000
    28 C6         2.4427   -17.5309    14.6026 C.3        2 BB2          0.0000
    29 C7         1.5260   -18.2160    13.5753 C.3        2 BB2          0.0000
    30 C8         1.1243   -19.6156    13.9636 C.ar       2 BB2          0.0000
    31 C9         0.6320   -19.8668    15.2300 C.ar       2 BB2          0.0000
    32 C10        0.2636   -21.1505    15.5872 C.ar       2 BB2          0.0000
    33 C11        0.3868   -22.1850    14.6770 C.ar       2 BB2          0.0000
    34 Cl12      -0.0766   -23.7965    15.1264 Cl         2 BB2          0.0000
    35 C13        0.8790   -21.9351    13.4085 C.ar       2 BB2          0.0000
    36 C14        1.2430   -20.6489    13.0492 C.ar       2 BB2          0.0000
    37 F15        1.7234   -20.4034    11.8106 F          2 BB2          0.0000
    38 H16       -0.1798   -17.4371    14.7515 H          2 BB2          0.0000
    39 H17        2.0357   -15.6387    13.5304 H          2 BB2          0.0000
    40 H18        1.4403   -15.6665    15.2467 H          2 BB2          0.0000
    41 H19        3.4833   -17.4666    14.2848 H          2 BB2          0.0000
    42 H20        2.3314   -17.9196    15.6148 H          2 BB2          0.0000
    43 H21        1.8913   -18.1483    12.5506 H          2 BB2          0.0000
    44 H22        0.5354   -19.0599    15.9414 H          2 BB2          0.0000
    45 H23       -0.1204   -21.3460    16.5776 H          2 BB2          0.0000
    46 H24        0.9754   -22.7424    12.6977 H          2 BB2          0.0000
@<TRIPOS>BOND
     1      1      2 1
     2      1     12 1
     3      1     13 1
     4      1     14 1
     5      2      3 1
     6      3      4 1
     7      3     15 1
     8      3     16 1
     9      4      5 ar
    10      4     11 ar
    11      5      6 ar
    12      5     17 1
    13      6      7 ar
    14      6     18 1
    15      7      8 1
    16      7     10 ar
    17      8      9 1
    18      9     19 1
    19      9     20 1
    20      9     21 1
    21     10     11 ar
    22     10     22 1
    23     11     23 1
    24     24     25 2
    25     25     26 1
    26     26     27 1
    27     26     29 1
    28     26     38 1
    29     27     28 1
    30     27     39 1
    31     27     40 1
    32     28     29 1
    33     28     41 1
    34     28     42 1
    35     29     30 1
    36     29     43 1
    37     30     31 ar
    38     30     36 ar
    39     31     32 ar
    40     31     44 1
    41     32     33 ar
    42     32     45 1
    43     33     34 1
    44     33     35 ar
    45     35     36 ar
    46     35     46 1
    47     36     37 1
    48      2     25 am
@<TRIPOS>SUBSTRUCTURE
     1 BB1           2
     2 BB2          25
@<TRIPOS>MOLECULE
EN300-06567_i001_EN300-97777_i001_12_19_1
  51   51   2   0   0
SMALL
USER_CHARGES
@<TRIPOS>ATOM
     1 C1         2.6009   -16.9328    13.2049 C.3        1 BB1          0.0000
     2 N2         2.1391   -16.1483    12.0520 N.am       1 BB1          0.0000
     3 C3         0.6706   -16.1472    12.0171 C.3        1 BB1          0.0000
     4 C4         0.1850   -14.8900    11.3428 C.ar       1 BB1          0.0000
     5 C5        -0.6980   -14.0521    11.9985 C.ar       1 BB1          0.0000
     6 C6        -1.1451   -12.8992    11.3823 C.ar       1 BB1          0.0000
     7 C7        -0.7068   -12.5823    10.1047 C.ar       1 BB1          0.0000
     8 O8        -1.1447   -11.4486     9.4967 O.3        1 BB1          0.0000
     9 C9        -1.6088   -10.3957    10.3442 C.3        1 BB1          0.0000
    10 C10        0.1796   -13.4244     9.4493 C.ar       1 BB1          0.0000
    11 C11        0.6276   -14.5734    10.0718 C.ar       1 BB1          0.0000
    12 H12        2.2388   -17.9572    13.1158 H          1 BB1          0.0000
    13 H13        3.6906   -16.9337    13.2308 H          1 BB1          0.0000
    14 H14        2.2159   -16.4900    14.1235 H          1 BB1          0.0000
    15 H15        0.3197   -17.0165    11.4609 H          1 BB1          0.0000
    16 H16        0.2829   -16.1864    13.0350 H          1 BB1          0.0000
    17 H17       -1.0389   -14.2992    12.9930 H          1 BB1          0.0000
    18 H18       -1.8353   -12.2454    11.8946 H          1 BB1          0.0000
    19 H19       -1.9284    -9.5516     9.7332 H          1 BB1          0.0000
    20 H20       -2.4493   -10.7523    10.9396 H          1 BB1          0.0000
    21 H21       -0.8025   -10.0802    11.0064 H          1 BB1          0.0000
    22 H22        0.5220   -13.1801     8.4545 H          1 BB1          0.0000
    23 H23        1.3180   -15.2291     9.5619 H          1 BB1          0.0000
    24 C1         0.0416   -20.7360    14.9060 C.3        2 BB2          0.0000
    25 C2         0.1840   -20.5981    13.3889 C.3        2 BB2          0.0000
    26 C3         1.6587   -20.7254    13.0013 C.3        2 BB2          0.0000
    27 C4        -0.6217   -21.7004    12.6986 C.3        2 BB2          0.0000
    28 O5        -0.3156   -19.3001    12.9719 O.3        2 BB2          0.0000
    29 C6        -0.1370   -18.9623    11.6808 C.2        2 BB2          0.0000
    30 O7         0.1824   -19.8090    10.8700 O.2        2 BB2          0.0000
    31 N8        -0.3127   -17.6851    11.2879 N.am       2 BB2          0.0000
    32 C9        -0.1185   -17.3176     9.8831 C.3        2 BB2          0.0000
    33 C10       -1.0017   -18.1350     9.0354 C.1        2 BB2          0.0000
    34 C11       -1.7062   -18.7868     8.3594 C.1        2 BB2          0.0000
    35 C12       -0.6979   -16.6643    12.2656 C.3        2 BB2          0.0000
    36 C13        0.4114   -16.4870    13.2702 C.2        2 BB2          0.0000
    37 O15        1.4152   -17.1751    13.1975 O.2        2 BB2          0.0000
    38 H16        0.6157   -19.9507    15.3977 H          2 BB2          0.0000
    39 H17       -1.0089   -20.6453    15.1820 H          2 BB2          0.0000
    40 H18        0.4168   -21.7104    15.2190 H          2 BB2          0.0000
    41 H19        2.0337   -21.6998    13.3144 H          2 BB2          0.0000
    42 H20        1.7601   -20.6270    11.9205 H          2 BB2          0.0000
    43 H21        2.2327   -19.9400    13.4932 H          2 BB2          0.0000
    44 H22       -1.6723   -21.6096    12.9747 H          2 BB2          0.0000
    45 H23       -0.5203   -21.6021    11.6178 H          2 BB2          0.0000
    46 H24       -0.2466   -22.6748    13.0116 H          2 BB2          0.0000
    47 H25       -0.3582   -16.2631     9.7470 H          2 BB2          0.0000
    48 H26        0.9198   -17.4935     9.6018 H          2 BB2          0.0000
    49 H27       -2.3362   -19.3699     7.7548 H          2 BB2          0.0000
    50 H28       -0.8780   -15.7195    11.7527 H          2 BB2          0.0000
    51 H29       -1.6067   -16.9778    12.7794 H          2 BB2          0.0000
@<TRIPOS>BOND
     1      1      2 1
     2      1     12 1
     3      1     13 1
     4      1     14 1
     5      2      3 1
     6      3      4 1
     7      3     15 1
     8      3     16 1
     9      4      5 ar
    10      4     11 ar
    11      5      6 ar
    12      5     17 1
    13      6      7 ar
    14      6     18 1
    15      7      8 1
    16      7     10 ar
    17      8      9 1
    18      9     19 1
    19      9     20 1
    20      9     21 1
    21     10     11 ar
    22     10     22 1
    23     11     23 1
    24     24     25 1
    25     24     38 1
    26     24     39 1
    27     24     40 1
    28     25     26 1
    29     25     27 1
    30     25     28 1
    31     26     41 1
    32     26     42 1
    33     26     43 1
    34     27     44 1
    35     27     45 1
    36     27     46 1
    37     28     29 1
    38     29     30 2
    39     29     31 am
    40     31     32 1
    41     31     35 1
    42     32     33 1
    43     32     47 1
    44     32     48 1
    45     33     34 3
    46     34     49 1
    47     35     36 1
    48     35     50 1
    49     35     51 1
    50     36     37 2
    51      2     36 am
@<TRIPOS>SUBSTRUCTURE
     1 BB1           2
     2 BB2          36
@<TRIPOS>MOLECULE
EN300-06567_i001_EN300-701715_i002_12_7_1
  49   50   2   0   0
SMALL
USER_CHARGES
@<TRIPOS>ATOM
     1 C1         2.6009   -16.9328    13.2049 C.3        1 BB1          0.0000
     2 N2         2.1391   -16.1483    12.0520 N.am       1 BB1          0.0000
     3 C3         0.6706   -16.1472    12.0171 C.3        1 BB1          0.0000
     4 C4         0.1850   -14.8900    11.3428 C.ar       1 BB1          0.0000
     5 C5        -0.6980   -14.0521    11.9985 C.ar       1 BB1          0.0000
     6 C6        -1.1451   -12.8992    11.3823 C.ar       1 BB1          0.0000
     7 C7        -0.7068   -12.5823    10.1047 C.ar       1 BB1          0.0000
     8 O8        -1.1447   -11.4486     9.4967 O.3        1 BB1          0.0000
     9 C9        -1.6088   -10.3957    10.3442 C.3        1 BB1          0.0000
    10 C10        0.1796   -13.4244     9.4493 C.ar       1 BB1          0.0000
    11 C11        0.6276   -14.5734    10.0718 C.ar       1 BB1          0.0000
    12 H12        2.2388   -17.9572    13.1158 H          1 BB1          0.0000
    13 H13        3.6906   -16.9337    13.2308 H          1 BB1          0.0000
    14 H14        2.2159   -16.4900    14.1235 H          1 BB1          0.0000
    15 H15        0.3197   -17.0165    11.4609 H          1 BB1          0.0000
    16 H16        0.2829   -16.1864    13.0350 H          1 BB1          0.0000
    17 H17       -1.0389   -14.2992    12.9930 H          1 BB1          0.0000
    18 H18       -1.8353   -12.2454    11.8946 H          1 BB1          0.0000
    19 H19       -1.9284    -9.5516     9.7332 H          1 BB1          0.0000
    20 H20       -2.4493   -10.7523    10.9396 H          1 BB1          0.0000
    21 H21       -0.8025   -10.0802    11.0064 H          1 BB1          0.0000
    22 H22        0.5220   -13.1801     8.4545 H          1 BB1          0.0000
    23 H23        1.3180   -15.2291     9.5619 H          1 BB1          0.0000
    24 C1         2.6980   -17.0935    14.3531 C.3        2 BB2          0.0000
    25 O2         2.0291   -17.9262    13.4038 O.3        2 BB2          0.0000
    26 C3         0.6511   -18.1578    13.7029 C.3        2 BB2          0.0000
    27 C4         0.5278   -18.7630    15.1027 C.3        2 BB2          0.0000
    28 C5         1.2906   -20.0882    15.1543 C.3        2 BB2          0.0000
    29 C6         0.7014   -21.0563    14.1264 C.3        2 BB2          0.0000
    30 C7         0.8248   -20.4511    12.7266 C.3        2 BB2          0.0000
    31 C8         0.2354   -21.4191    11.6988 C.3        2 BB2          0.0000
    32 C9         0.0619   -19.1258    12.6749 C.3        2 BB2          0.0000
    33 C10       -0.1002   -16.8524    13.6520 C.2        2 BB2          0.0000
    34 O11        0.1980   -15.9472    14.4124 O.2        2 BB2          0.0000
    35 H13        2.6565   -17.5592    15.3378 H          2 BB2          0.0000
    36 H14        3.7387   -16.9660    14.0551 H          2 BB2          0.0000
    37 H15        2.2090   -16.1200    14.3908 H          2 BB2          0.0000
    38 H16        0.9476   -18.0733    15.8350 H          2 BB2          0.0000
    39 H17       -0.5233   -18.9396    15.3308 H          2 BB2          0.0000
    40 H18        2.3417   -19.9116    14.9261 H          2 BB2          0.0000
    41 H19        1.2028   -20.5194    16.1515 H          2 BB2          0.0000
    42 H20        1.2448   -22.0004    14.1632 H          2 BB2          0.0000
    43 H21       -0.3497   -21.2329    14.3546 H          2 BB2          0.0000
    44 H22        1.8758   -20.2744    12.4985 H          2 BB2          0.0000
    45 H23       -0.8156   -21.5958    11.9269 H          2 BB2          0.0000
    46 H24        0.3233   -20.9879    10.7015 H          2 BB2          0.0000
    47 H25        0.7789   -22.3633    11.7356 H          2 BB2          0.0000
    48 H26       -0.9893   -19.3025    12.9031 H          2 BB2          0.0000
    49 H27        0.1497   -18.6946    11.6777 H          2 BB2          0.0000
@<TRIPOS>BOND
     1      1      2 1
     2      1     12 1
     3      1     13 1
     4      1     14 1
     5      2      3 1
     6      3      4 1
     7      3     15 1
     8      3     16 1
     9      4      5 ar
    10      4     11 ar
    11      5      6 ar
    12      5     17 1
    13      6      7 ar
    14      6     18 1
    15      7      8 1
    16      7     10 ar
    17      8      9 1
    18      9     19 1
    19      9     20 1
    20      9     21 1
    21     10     11 ar
    22     10     22 1
    23     11     23 1
    24     24     25 1
    25     24     35 1
    26     24     36 1
    27     24     37 1
    28     25     26 1
    29     26     27 1
    30     26     32 1
    31     26     33 1
    32     27     28 1
    33     27     38 1
    34     27     39 1
    35     28     29 1
    36     28     40 1
    37     28     41 1
    38     29     30 1
    39     29     42 1
    40     29     43 1
    41     30     31 1
    42     30     32 1
    43     30     44 1
    44     31     45 1
    45     31     46 1
    46     31     47 1
    47     32     48 1
    48     32     49 1
    49     33     34 2
    50      2     33 am
@<TRIPOS>SUBSTRUCTURE
     1 BB1           2
     2 BB2          33
@<TRIPOS>MOLECULE
EN300-06567_i001_EN300-218565_i001_13_20_1
  52   54   2   0   0
SMALL
USER_CHARGES
@<TRIPOS>ATOM
     1 C1        -0.3950   -17.5231    11.5008 C.3        1 BB1          0.0000
     2 N2         0.1997   -16.4618    10.6773 N.am       1 BB1          0.0000
     3 C3         0.5108   -15.3019    11.5232 C.3        1 BB1          0.0000
     4 C4        -0.1239   -14.0675    10.9364 C.ar       1 BB1          0.0000
     5 C5         0.1669   -13.6928     9.6376 C.ar       1 BB1          0.0000
     6 C6        -0.4131   -12.5613     9.0975 C.ar       1 BB1          0.0000
     7 C7        -1.2886   -11.8011     9.8593 C.ar       1 BB1          0.0000
     8 O8        -1.8609   -10.6878     9.3300 O.3        1 BB1          0.0000
     9 C9        -3.1459   -10.3172     9.8334 C.3        1 BB1          0.0000
    10 C10       -1.5792   -12.1794    11.1619 C.ar       1 BB1          0.0000
    11 C11       -1.0004   -13.3146    11.6957 C.ar       1 BB1          0.0000
    12 H12       -1.3109   -17.1543    11.9628 H          1 BB1          0.0000
    13 H13       -0.6259   -18.3837    10.8731 H          1 BB1          0.0000
    14 H14        0.3103   -17.8185    12.2776 H          1 BB1          0.0000
    15 H15        0.1202   -15.4690    12.5270 H          1 BB1          0.0000
    16 H16        1.5912   -15.1669    11.5716 H          1 BB1          0.0000
    17 H17        0.8485   -14.2850     9.0450 H          1 BB1          0.0000
    18 H18       -0.1851   -12.2687     8.0832 H          1 BB1          0.0000
    19 H19       -3.4875    -9.4140     9.3278 H          1 BB1          0.0000
    20 H20       -3.8543   -11.1254     9.6517 H          1 BB1          0.0000
    21 H21       -3.0760   -10.1294    10.9049 H          1 BB1          0.0000
    22 H22       -2.2601   -11.5890    11.7571 H          1 BB1          0.0000
    23 H23       -1.2267   -13.6097    12.7097 H          1 BB1          0.0000
    24 O1         0.5736   -15.2962    11.9704 O.2        2 BB2          0.0000
    25 C2         1.3446   -15.9926    12.6101 C.2        2 BB2          0.0000
    26 C4         0.8928   -16.6326    13.8856 C.2        2 BB2          0.0000
    27 O5         0.2662   -15.9868    14.6994 O.2        2 BB2          0.0000
    28 N6         1.1820   -17.9260    14.1300 N.am       2 BB2          0.0000
    29 C7         0.7246   -18.5817    15.3646 C.3        2 BB2          0.0000
    30 C8         0.0142   -19.8863    14.9886 C.3        2 BB2          0.0000
    31 N9         0.9023   -20.6985    14.1464 N.3        2 BB2          0.0000
    32 C10        1.2041   -20.0188    12.8796 C.3        2 BB2          0.0000
    33 C11        1.9580   -18.7211    13.1663 C.3        2 BB2          0.0000
    34 C12        0.3565   -21.9637    13.9177 C.ar       2 BB2          0.0000
    35 C13        0.7479   -23.0425    14.7004 C.ar       2 BB2          0.0000
    36 C14        0.2057   -24.2920    14.4719 C.ar       2 BB2          0.0000
    37 C15       -0.7258   -24.4698    13.4654 C.ar       2 BB2          0.0000
    38 C16       -1.1177   -23.3979    12.6845 C.ar       2 BB2          0.0000
    39 C17       -0.5834   -22.1447    12.9110 C.ar       2 BB2          0.0000
    40 H18        1.5814   -18.8016    16.0014 H          2 BB2          0.0000
    41 H19        0.0315   -17.9263    15.8920 H          2 BB2          0.0000
    42 H20       -0.2342   -20.4394    15.8944 H          2 BB2          0.0000
    43 H21       -0.8993   -19.6579    14.4394 H          2 BB2          0.0000
    44 H22        1.8188   -20.6678    12.2559 H          2 BB2          0.0000
    45 H23        0.2742   -19.7884    12.3598 H          2 BB2          0.0000
    46 H24        2.0831   -18.1582    12.2414 H          2 BB2          0.0000
    47 H25        2.9343   -18.9515    13.5929 H          2 BB2          0.0000
    48 H26        1.4756   -22.9044    15.4864 H          2 BB2          0.0000
    49 H27        0.5100   -25.1313    15.0798 H          2 BB2          0.0000
    50 H28       -1.1479   -25.4481    13.2887 H          2 BB2          0.0000
    51 H29       -1.8453   -23.5402    11.8993 H          2 BB2          0.0000
    52 H30       -0.8902   -21.3080    12.3010 H          2 BB2          0.0000
@<TRIPOS>BOND
     1      1      2 1
     2      1     12 1
     3      1     13 1
     4      1     14 1
     5      2      3 1
     6      3      4 1
     7      3     15 1
     8      3     16 1
     9      4      5 ar
    10      4     11 ar
    11      5      6 ar
    12      5     17 1
    13      6      7 ar
    14      6     18 1
    15      7      8 1
    16      7     10 ar
    17      8      9 1
    18      9     19 1
    19      9     20 1
    20      9     21 1
    21     10     11 ar
    22     10     22 1
    23     11     23 1
    24     24     25 2
    25     25     26 1
    26     26     27 2
    27     26     28 am
    28     28     29 1
    29     28     33 1
    30     29     30 1
    31     29     40 1
    32     29     41 1
    33     30     31 1
    34     30     42 1
    35     30     43 1
    36     31     32 1
    37     31     34 1
    38     32     33 1
    39     32     44 1
    40     32     45 1
    41     33     46 1
    42     33     47 1
    43     34     35 ar
    44     34     39 ar
    45     35     36 ar
    46     35     48 1
    47     36     37 ar
    48     36     49 1
    49     37     38 ar
    50     37     50 1
    51     38     39 ar
    52     38     51 1
    53     39     52 1
    54      2     25 am
@<TRIPOS>SUBSTRUCTURE
     1 BB1           2
     2 BB2          25
@<TRIPOS>MOLECULE
EN300-06567_i001_EN300-34862_i002_13_16_1
  35   36   2   0   0
SMALL
USER_CHARGES
@<TRIPOS>ATOM
     1 C1        -0.3950   -17.5231    11.5008 C.3        1 BB1          0.0000
     2 N2         0.1997   -16.4618    10.6773 N.am       1 BB1          0.0000
     3 C3         0.5108   -15.3019    11.5232 C.3        1 BB1          0.0000
     4 C4        -0.1239   -14.0675    10.9364 C.ar       1 BB1          0.0000
     5 C5         0.1669   -13.6928     9.6376 C.ar       1 BB1          0.0000
     6 C6        -0.4131   -12.5613     9.0975 C.ar       1 BB1          0.0000
     7 C7        -1.2886   -11.8011     9.8593 C.ar       1 BB1          0.0000
     8 O8        -1.8609   -10.6878     9.3300 O.3        1 BB1          0.0000
     9 C9        -3.1459   -10.3172     9.8334 C.3        1 BB1          0.0000
    10 C10       -1.5792   -12.1794    11.1619 C.ar       1 BB1          0.0000
    11 C11       -1.0004   -13.3146    11.6957 C.ar       1 BB1          0.0000
    12 H12       -1.3109   -17.1543    11.9628 H          1 BB1          0.0000
    13 H13       -0.6259   -18.3837    10.8731 H          1 BB1          0.0000
    14 H14        0.3103   -17.8185    12.2776 H          1 BB1          0.0000
    15 H15        0.1202   -15.4690    12.5270 H          1 BB1          0.0000
    16 H16        1.5912   -15.1669    11.5716 H          1 BB1          0.0000
    17 H17        0.8485   -14.2850     9.0450 H          1 BB1          0.0000
    18 H18       -0.1851   -12.2687     8.0832 H          1 BB1          0.0000
    19 H19       -3.4875    -9.4140     9.3278 H          1 BB1          0.0000
    20 H20       -3.8543   -11.1254     9.6517 H          1 BB1          0.0000
    21 H21       -3.0760   -10.1294    10.9049 H          1 BB1          0.0000
    22 H22       -2.2601   -11.5890    11.7571 H          1 BB1          0.0000
    23 H23       -1.2267   -13.6097    12.7097 H          1 BB1          0.0000
    24 O1        -0.6972   -16.6529    13.2951 O.2        2 BB2          0.0000
    25 C2         0.4752   -16.6360    13.6291 C.2        2 BB2          0.0000
    26 C4         1.3028   -17.8921    13.5381 C.3        2 BB2          0.0000
    27 C5         0.7267   -18.9418    14.4973 C.3        2 BB2          0.0000
    28 S6         0.2961   -20.3385    13.4116 S.3        2 BB2          0.0000
    29 C7         0.8294   -19.5753    11.9097 C.2        2 BB2          0.0000
    30 O8         0.7727   -20.0838    10.8064 O.2        2 BB2          0.0000
    31 N9         1.3016   -18.3596    12.1703 N.am       2 BB2          0.0000
    32 H10        2.3271   -17.6647    13.8334 H          2 BB2          0.0000
    33 H11        1.4762   -19.2432    15.2292 H          2 BB2          0.0000
    34 H12       -0.1627   -18.5568    14.9960 H          2 BB2          0.0000
    35 H13        1.6386   -17.7969    11.4557 H          2 BB2          0.0000
@<TRIPOS>BOND
     1      1      2 1
     2      1     12 1
     3      1     13 1
     4      1     14 1
     5      2      3 1
     6      3      4 1
     7      3     15 1
     8      3     16 1
     9      4      5 ar
    10      4     11 ar
    11      5      6 ar
    12      5     17 1
    13      6      7 ar
    14      6     18 1
    15      7      8 1
    16      7     10 ar
    17      8      9 1
    18      9     19 1
    19      9     20 1
    20      9     21 1
    21     10     11 ar
    22     10     22 1
    23     11     23 1
    24     24     25 2
    25     25     26 1
    26     26     27 1
    27     26     31 1
    28     26     32 1
    29     27     28 1
    30     27     33 1
    31     27     34 1
    32     28     29 1
    33     29     30 2
    34     29     31 am
    35     31     35 1
    36      2     25 am
@<TRIPOS>SUBSTRUCTURE
     1 BB1           2
     2 BB2          25
@<TRIPOS>MOLECULE
EN300-06567_i001_EN300-34862_i002_13_4_1
  35   36   2   0   0
SMALL
USER_CHARGES
@<TRIPOS>ATOM
     1 C1        -0.3950   -17.5231    11.5008 C.3        1 BB1          0.0000
     2 N2         0.1997   -16.4618    10.6773 N.am       1 BB1          0.0000
     3 C3         0.5108   -15.3019    11.5232 C.3        1 BB1          0.0000
     4 C4        -0.1239   -14.0675    10.9364 C.ar       1 BB1          0.0000
     5 C5         0.1669   -13.6928     9.6376 C.ar       1 BB1          0.0000
     6 C6        -0.4131   -12.5613     9.0975 C.ar       1 BB1          0.0000
     7 C7        -1.2886   -11.8011     9.8593 C.ar       1 BB1          0.0000
     8 O8        -1.8609   -10.6878     9.3300 O.3        1 BB1          0.0000
     9 C9        -3.1459   -10.3172     9.8334 C.3        1 BB1          0.0000
    10 C10       -1.5792   -12.1794    11.1619 C.ar       1 BB1          0.0000
    11 C11       -1.0004   -13.3146    11.6957 C.ar       1 BB1          0.0000
    12 H12       -1.3109   -17.1543    11.9628 H          1 BB1          0.0000
    13 H13       -0.6259   -18.3837    10.8731 H          1 BB1          0.0000
    14 H14        0.3103   -17.8185    12.2776 H          1 BB1          0.0000
    15 H15        0.1202   -15.4690    12.5270 H          1 BB1          0.0000
    16 H16        1.5912   -15.1669    11.5716 H          1 BB1          0.0000
    17 H17        0.8485   -14.2850     9.0450 H          1 BB1          0.0000
    18 H18       -0.1851   -12.2687     8.0832 H          1 BB1          0.0000
    19 H19       -3.4875    -9.4140     9.3278 H          1 BB1          0.0000
    20 H20       -3.8543   -11.1254     9.6517 H          1 BB1          0.0000
    21 H21       -3.0760   -10.1294    10.9049 H          1 BB1          0.0000
    22 H22       -2.2601   -11.5890    11.7571 H          1 BB1          0.0000
    23 H23       -1.2267   -13.6097    12.7097 H          1 BB1          0.0000
    24 C2         0.4217   -16.2811    13.4086 C.2        2 BB2          0.0000
    25 O3        -0.1845   -16.2055    12.3535 O.2        2 BB2          0.0000
    26 C4         1.6010   -17.2107    13.5351 C.3        2 BB2          0.0000
    27 C5         1.4164   -18.0867    14.7810 C.3        2 BB2          0.0000
    28 S6         1.4167   -19.7857    14.1264 S.3        2 BB2          0.0000
    29 C7         1.6347   -19.3303    12.4330 C.2        2 BB2          0.0000
    30 O8         1.7078   -20.1089    11.5015 O.2        2 BB2          0.0000
    31 N9         1.7057   -18.0060    12.3327 N.am       2 BB2          0.0000
    32 H10        2.5093   -16.6187    13.6480 H          2 BB2          0.0000
    33 H11        2.2449   -17.9441    15.4749 H          2 BB2          0.0000
    34 H12        0.4666   -17.8645    15.2674 H          2 BB2          0.0000
    35 H13        1.8252   -17.5817    11.4687 H          2 BB2          0.0000
@<TRIPOS>BOND
     1      1      2 1
     2      1     12 1
     3      1     13 1
     4      1     14 1
     5      2      3 1
     6      3      4 1
     7      3     15 1
     8      3     16 1
     9      4      5 ar
    10      4     11 ar
    11      5      6 ar
    12      5     17 1
    13      6      7 ar
    14      6     18 1
    15      7      8 1
    16      7     10 ar
    17      8      9 1
    18      9     19 1
    19      9     20 1
    20      9     21 1
    21     10     11 ar
    22     10     22 1
    23     11     23 1
    24     24     25 2
    25     24     26 1
    26     26     27 1
    27     26     31 1
    28     26     32 1
    29     27     28 1
    30     27     33 1
    31     27     34 1
    32     28     29 1
    33     29     30 2
    34     29     31 am
    35     31     35 1
    36      2     24 am
@<TRIPOS>SUBSTRUCTURE
     1 BB1           2
     2 BB2          24
@<TRIPOS>MOLECULE
EN300-06567_i001_EN300-222254_i002_15_20_1
  46   48   2   0   0
SMALL
USER_CHARGES
@<TRIPOS>ATOM
     1 C1        -0.6470   -17.9304    11.2193 C.3        1 BB1          0.0000
     2 N2         0.1205   -16.8689    10.5545 N.am       1 BB1          0.0000
     3 C3         0.4438   -15.8162    11.5267 C.3        1 BB1          0.0000
     4 C4         0.2423   -14.4653    10.8900 C.ar       1 BB1          0.0000
     5 C5        -0.7003   -13.5939    11.4037 C.ar       1 BB1          0.0000
     6 C6        -0.8875   -12.3551    10.8215 C.ar       1 BB1          0.0000
     7 C7        -0.1282   -11.9856     9.7207 C.ar       1 BB1          0.0000
     8 O8        -0.3101   -10.7673     9.1466 O.3        1 BB1          0.0000
     9 C9        -1.5935   -10.1596     9.3071 C.3        1 BB1          0.0000
    10 C10        0.8173   -12.8615     9.2076 C.ar       1 BB1          0.0000
    11 C11        1.0041   -14.0970     9.7965 C.ar       1 BB1          0.0000
    12 H12       -1.5695   -17.5132    11.6234 H          1 BB1          0.0000
    13 H13       -0.8869   -18.7115    10.4980 H          1 BB1          0.0000
    14 H14       -0.0542   -18.3541    12.0301 H          1 BB1          0.0000
    15 H15       -0.2091   -15.9099    12.3944 H          1 BB1          0.0000
    16 H16        1.4825   -15.9184    11.8409 H          1 BB1          0.0000
    17 H17       -1.2912   -13.8821    12.2606 H          1 BB1          0.0000
    18 H18       -1.6244   -11.6751    11.2227 H          1 BB1          0.0000
    19 H19       -1.6039    -9.1939     8.8018 H          1 BB1          0.0000
    20 H20       -2.3577   -10.8048     8.8737 H          1 BB1          0.0000
    21 H21       -1.7976   -10.0167    10.3682 H          1 BB1          0.0000
    22 H22        1.4093   -12.5762     8.3505 H          1 BB1          0.0000
    23 H23        1.7403   -14.7791     9.3975 H          1 BB1          0.0000
    24 C2        -0.2904   -16.6423    12.7290 C.2        2 BB2          0.0000
    25 O3        -0.9994   -17.3999    12.0888 O.2        2 BB2          0.0000
    26 C4         0.4712   -17.1529    13.9248 C.3        2 BB2          0.0000
    27 C5         1.6394   -16.2452    14.3447 C.3        2 BB2          0.0000
    28 C6         2.4427   -17.5309    14.6026 C.3        2 BB2          0.0000
    29 C7         1.5260   -18.2160    13.5753 C.3        2 BB2          0.0000
    30 C8         1.1243   -19.6156    13.9636 C.ar       2 BB2          0.0000
    31 C9         0.6320   -19.8668    15.2300 C.ar       2 BB2          0.0000
    32 C10        0.2636   -21.1505    15.5872 C.ar       2 BB2          0.0000
    33 C11        0.3868   -22.1850    14.6770 C.ar       2 BB2          0.0000
    34 Cl12      -0.0766   -23.7965    15.1264 Cl         2 BB2          0.0000
    35 C13        0.8790   -21.9351    13.4085 C.ar       2 BB2          0.0000
    36 C14        1.2430   -20.6489    13.0492 C.ar       2 BB2          0.0000
    37 F15        1.7234   -20.4034    11.8106 F          2 BB2          0.0000
    38 H16       -0.1798   -17.4371    14.7515 H          2 BB2          0.0000
    39 H17        2.0357   -15.6387    13.5304 H          2 BB2          0.0000
    40 H18        1.4403   -15.6665    15.2467 H          2 BB2          0.0000
    41 H19        3.4833   -17.4666    14.2848 H          2 BB2          0.0000
    42 H20        2.3314   -17.9196    15.6148 H          2 BB2          0.0000
    43 H21        1.8913   -18.1483    12.5506 H          2 BB2          0.0000
    44 H22        0.5354   -19.0599    15.9414 H          2 BB2          0.0000
    45 H23       -0.1204   -21.3460    16.5776 H          2 BB2          0.0000
    46 H24        0.9754   -22.7424    12.6977 H          2 BB2          0.0000
@<TRIPOS>BOND
     1      1      2 1
     2      1     12 1
     3      1     13 1
     4      1     14 1
     5      2      3 1
     6      3      4 1
     7      3     15 1
     8      3     16 1
     9      4      5 ar
    10      4     11 ar
    11      5      6 ar
    12      5     17 1
    13      6      7 ar
    14      6     18 1
    15      7      8 1
    16      7     10 ar
    17      8      9 1
    18      9     19 1
    19      9     20 1
    20      9     21 1
    21     10     11 ar
    22     10     22 1
    23     11     23 1
    24     24     25 2
    25     24     26 1
    26     26     27 1
    27     26     29 1
    28     26     38 1
    29     27     28 1
    30     27     39 1
    31     27     40 1
    32     28     29 1
    33     28     41 1
    34     28     42 1
    35     29     30 1
    36     29     43 1
    37     30     31 ar
    38     30     36 ar
    39     31     32 ar
    40     31     44 1
    41     32     33 ar
    42     32     45 1
    43     33     34 1
    44     33     35 ar
    45     35     36 ar
    46     35     46 1
    47     36     37 1
    48      2     24 am
@<TRIPOS>SUBSTRUCTURE
     1 BB1           2
     2 BB2          24
@<TRIPOS>MOLECULE
EN300-06567_i001_EN300-218565_i001_15_20_1
  52   54   2   0   0
SMALL
USER_CHARGES
@<TRIPOS>ATOM
     1 C1        -0.6470   -17.9304    11.2193 C.3        1 BB1          0.0000
     2 N2         0.1205   -16.8689    10.5545 N.am       1 BB1          0.0000
     3 C3         0.4438   -15.8162    11.5267 C.3        1 BB1          0.0000
     4 C4         0.2423   -14.4653    10.8900 C.ar       1 BB1          0.0000
     5 C5        -0.7003   -13.5939    11.4037 C.ar       1 BB1          0.0000
     6 C6        -0.8875   -12.3551    10.8215 C.ar       1 BB1          0.0000
     7 C7        -0.1282   -11.9856     9.7207 C.ar       1 BB1          0.0000
     8 O8        -0.3101   -10.7673     9.1466 O.3        1 BB1          0.0000
     9 C9        -1.5935   -10.1596     9.3071 C.3        1 BB1          0.0000
    10 C10        0.8173   -12.8615     9.2076 C.ar       1 BB1          0.0000
    11 C11        1.0041   -14.0970     9.7965 C.ar       1 BB1          0.0000
    12 H12       -1.5695   -17.5132    11.6234 H          1 BB1          0.0000
    13 H13       -0.8869   -18.7115    10.4980 H          1 BB1          0.0000
    14 H14       -0.0542   -18.3541    12.0301 H          1 BB1          0.0000
    15 H15       -0.2091   -15.9099    12.3944 H          1 BB1          0.0000
    16 H16        1.4825   -15.9184    11.8409 H          1 BB1          0.0000
    17 H17       -1.2912   -13.8821    12.2606 H          1 BB1          0.0000
    18 H18       -1.6244   -11.6751    11.2227 H          1 BB1          0.0000
    19 H19       -1.6039    -9.1939     8.8018 H          1 BB1          0.0000
    20 H20       -2.3577   -10.8048     8.8737 H          1 BB1          0.0000
    21 H21       -1.7976   -10.0167    10.3682 H          1 BB1          0.0000
    22 H22        1.4093   -12.5762     8.3505 H          1 BB1          0.0000
    23 H23        1.7403   -14.7791     9.3975 H          1 BB1          0.0000
    24 O1         0.5736   -15.2962    11.9704 O.2        2 BB2          0.0000
    25 C2         1.3446   -15.9926    12.6101 C.2        2 BB2          0.0000
    26 C4         0.8928   -16.6326    13.8856 C.2        2 BB2          0.0000
    27 O5         0.2662   -15.9868    14.6994 O.2        2 BB2          0.0000
    28 N6         1.1820   -17.9260    14.1300 N.am       2 BB2          0.0000
    29 C7         0.7246   -18.5817    15.3646 C.3        2 BB2          0.0000
    30 C8         0.0142   -19.8863    14.9886 C.3        2 BB2          0.0000
    31 N9         0.9023   -20.6985    14.1464 N.3        2 BB2          0.0000
    32 C10        1.2041   -20.0188    12.8796 C.3        2 BB2          0.0000
    33 C11        1.9580   -18.7211    13.1663 C.3        2 BB2          0.0000
    34 C12        0.3565   -21.9637    13.9177 C.ar       2 BB2          0.0000
    35 C13        0.7479   -23.0425    14.7004 C.ar       2 BB2          0.0000
    36 C14        0.2057   -24.2920    14.4719 C.ar       2 BB2          0.0000
    37 C15       -0.7258   -24.4698    13.4654 C.ar       2 BB2          0.0000
    38 C16       -1.1177   -23.3979    12.6845 C.ar       2 BB2          0.0000
    39 C17       -0.5834   -22.1447    12.9110 C.ar       2 BB2          0.0000
    40 H18        1.5814   -18.8016    16.0014 H          2 BB2          0.0000
    41 H19        0.0315   -17.9263    15.8920 H          2 BB2          0.0000
    42 H20       -0.2342   -20.4394    15.8944 H          2 BB2          0.0000
    43 H21       -0.8993   -19.6579    14.4394 H          2 BB2          0.0000
    44 H22        1.8188   -20.6678    12.2559 H          2 BB2          0.0000
    45 H23        0.2742   -19.7884    12.3598 H          2 BB2          0.0000
    46 H24        2.0831   -18.1582    12.2414 H          2 BB2          0.0000
    47 H25        2.9343   -18.9515    13.5929 H          2 BB2          0.0000
    48 H26        1.4756   -22.9044    15.4864 H          2 BB2          0.0000
    49 H27        0.5100   -25.1313    15.0798 H          2 BB2          0.0000
    50 H28       -1.1479   -25.4481    13.2887 H          2 BB2          0.0000
    51 H29       -1.8453   -23.5402    11.8993 H          2 BB2          0.0000
    52 H30       -0.8902   -21.3080    12.3010 H          2 BB2          0.0000
@<TRIPOS>BOND
     1      1      2 1
     2      1     12 1
     3      1     13 1
     4      1     14 1
     5      2      3 1
     6      3      4 1
     7      3     15 1
     8      3     16 1
     9      4      5 ar
    10      4     11 ar
    11      5      6 ar
    12      5     17 1
    13      6      7 ar
    14      6     18 1
    15      7      8 1
    16      7     10 ar
    17      8      9 1
    18      9     19 1
    19      9     20 1
    20      9     21 1
    21     10     11 ar
    22     10     22 1
    23     11     23 1
    24     24     25 2
    25     25     26 1
    26     26     27 2
    27     26     28 am
    28     28     29 1
    29     28     33 1
    30     29     30 1
    31     29     40 1
    32     29     41 1
    33     30     31 1
    34     30     42 1
    35     30     43 1
    36     31     32 1
    37     31     34 1
    38     32     33 1
    39     32     44 1
    40     32     45 1
    41     33     46 1
    42     33     47 1
    43     34     35 ar
    44     34     39 ar
    45     35     36 ar
    46     35     48 1
    47     36     37 ar
    48     36     49 1
    49     37     38 ar
    50     37     50 1
    51     38     39 ar
    52     38     51 1
    53     39     52 1
    54      2     25 am
@<TRIPOS>SUBSTRUCTURE
     1 BB1           2
     2 BB2          25
@<TRIPOS>MOLECULE
EN300-06567_i001_EN300-1231025_i001_19_11_1
  38   38   2   0   0
SMALL
USER_CHARGES
@<TRIPOS>ATOM
     1 C1         0.8251   -14.3852     8.0238 C.3        1 BB1          0.0000
     2 N2         0.7774   -15.2300     9.2246 N.am       1 BB1          0.0000
     3 C3         1.1468   -14.4308    10.4005 C.3        1 BB1          0.0000
     4 C4         1.1086   -15.3001    11.6309 C.ar       1 BB1          0.0000
     5 C5        -0.1064   -15.6658    12.1802 C.ar       1 BB1          0.0000
     6 C6        -0.1441   -16.4622    13.3084 C.ar       1 BB1          0.0000
     7 C7         1.0387   -16.8956    13.8899 C.ar       1 BB1          0.0000
     8 O8         1.0042   -17.6795    14.9995 O.3        1 BB1          0.0000
     9 C9        -0.1295   -18.5356    15.1539 C.3        1 BB1          0.0000
    10 C10        2.2564   -16.5277    13.3365 C.ar       1 BB1          0.0000
    11 C11        2.2886   -15.7354    12.2053 C.ar       1 BB1          0.0000
    12 H12        1.8344   -13.9939     7.8947 H          1 BB1          0.0000
    13 H13        0.5512   -14.9782     7.1512 H          1 BB1          0.0000
    14 H14        0.1256   -13.5566     8.1344 H          1 BB1          0.0000
    15 H15        2.1528   -14.0328    10.2680 H          1 BB1          0.0000
    16 H16        0.4424   -13.6070    10.5158 H          1 BB1          0.0000
    17 H17       -1.0268   -15.3282    11.7271 H          1 BB1          0.0000
    18 H18       -1.0933   -16.7470    13.7374 H          1 BB1          0.0000
    19 H19       -0.0316   -19.1049    16.0782 H          1 BB1          0.0000
    20 H20       -1.0371   -17.9333    15.1924 H          1 BB1          0.0000
    21 H21       -0.1844   -19.2218    14.3087 H          1 BB1          0.0000
    22 H22        3.1785   -16.8634    13.7876 H          1 BB1          0.0000
    23 H23        3.2364   -15.4490    11.7740 H          1 BB1          0.0000
    24 O1         0.8403   -11.0486     9.0139 O.3        2 BB2          0.0000
    25 C2        -0.3649   -11.8043     9.1498 C.3        2 BB2          0.0000
    26 C3        -1.4329   -10.9436     9.8274 C.3        2 BB2          0.0000
    27 C4        -2.8126   -11.5599     9.5870 C.3        2 BB2          0.0000
    28 C5        -3.8547   -10.5786     9.9302 C.1        2 BB2          0.0000
    29 C6        -4.6859    -9.7960    10.2040 C.1        2 BB2          0.0000
    30 C7        -0.0988   -13.0277     9.9887 C.2        2 BB2          0.0000
    31 O9         0.7171   -13.8548     9.6189 O.2        2 BB2          0.0000
    32 H10       -0.7156   -12.1093     8.1638 H          2 BB2          0.0000
    33 H11       -1.2370   -10.8980    10.8987 H          2 BB2          0.0000
    34 H12       -1.4069    -9.9370     9.4101 H          2 BB2          0.0000
    35 H13       -2.9079   -11.8391     8.5378 H          2 BB2          0.0000
    36 H14       -2.9284   -12.4461    10.2110 H          2 BB2          0.0000
    37 H15       -5.4294    -9.0961    10.4488 H          2 BB2          0.0000
    38 H16        1.5025   -11.4632     8.4441 H          2 BB2          0.0000
@<TRIPOS>BOND
     1      1      2 1
     2      1     12 1
     3      1     13 1
     4      1     14 1
     5      2      3 1
     6      3      4 1
     7      3     15 1
     8      3     16 1
     9      4      5 ar
    10      4     11 ar
    11      5      6 ar
    12      5     17 1
    13      6      7 ar
    14      6     18 1
    15      7      8 1
    16      7     10 ar
    17      8      9 1
    18      9     19 1
    19      9     20 1
    20      9     21 1
    21     10     11 ar
    22     10     22 1
    23     11     23 1
    24     24     25 1
    25     24     38 1
    26     25     26 1
    27     25     30 1
    28     25     32 1
    29     26     27 1
    30     26     33 1
    31     26     34 1
    32     27     28 1
    33     27     35 1
    34     27     36 1
    35     28     29 3
    36     29     37 1
    37     30     31 2
    38      2     30 am
@<TRIPOS>SUBSTRUCTURE
     1 BB1           2
     2 BB2          30
@<TRIPOS>MOLECULE
EN300-06567_i001_EN300-307464_i001_19_13_1
  40   41   2   0   0
SMALL
USER_CHARGES
@<TRIPOS>ATOM
     1 C1         0.8251   -14.3852     8.0238 C.3        1 BB1          0.0000
     2 N2         0.7774   -15.2300     9.2246 N.am       1 BB1          0.0000
     3 C3         1.1468   -14.4308    10.4005 C.3        1 BB1          0.0000
     4 C4         1.1086   -15.3001    11.6309 C.ar       1 BB1          0.0000
     5 C5        -0.1064   -15.6658    12.1802 C.ar       1 BB1          0.0000
     6 C6        -0.1441   -16.4622    13.3084 C.ar       1 BB1          0.0000
     7 C7         1.0387   -16.8956    13.8899 C.ar       1 BB1          0.0000
     8 O8         1.0042   -17.6795    14.9995 O.3        1 BB1          0.0000
     9 C9        -0.1295   -18.5356    15.1539 C.3        1 BB1          0.0000
    10 C10        2.2564   -16.5277    13.3365 C.ar       1 BB1          0.0000
    11 C11        2.2886   -15.7354    12.2053 C.ar       1 BB1          0.0000
    12 H12        1.8344   -13.9939     7.8947 H          1 BB1          0.0000
    13 H13        0.5512   -14.9782     7.1512 H          1 BB1          0.0000
    14 H14        0.1256   -13.5566     8.1344 H          1 BB1          0.0000
    15 H15        2.1528   -14.0328    10.2680 H          1 BB1          0.0000
    16 H16        0.4424   -13.6070    10.5158 H          1 BB1          0.0000
    17 H17       -1.0268   -15.3282    11.7271 H          1 BB1          0.0000
    18 H18       -1.0933   -16.7470    13.7374 H          1 BB1          0.0000
    19 H19       -0.0316   -19.1049    16.0782 H          1 BB1          0.0000
    20 H20       -1.0371   -17.9333    15.1924 H          1 BB1          0.0000
    21 H21       -0.1844   -19.2218    14.3087 H          1 BB1          0.0000
    22 H22        3.1785   -16.8634    13.7876 H          1 BB1          0.0000
    23 H23        3.2364   -15.4490    11.7740 H          1 BB1          0.0000
    24 C2        -0.3993   -13.5023    10.5493 C.2        2 BB2          0.0000
    25 O3         0.2983   -14.1479     9.7785 O.2        2 BB2          0.0000
    26 C4        -0.9088   -12.1859    10.1499 C.2        2 BB2          0.0000
    27 C5        -0.6910   -11.7335     8.9156 C.2        2 BB2          0.0000
    28 C6        -1.6786   -11.3451    11.1356 C.3        2 BB2          0.0000
    29 N7        -2.9047   -10.8515    10.5037 N.pl3      2 BB2          0.0000
    30 C8        -4.0165   -11.5902    10.2008 C.2        2 BB2          0.0000
    31 C9        -4.9014   -10.7480     9.6340 C.2        2 BB2          0.0000
    32 N10       -4.3450    -9.5283     9.5919 N.2        2 BB2          0.0000
    33 C11       -3.1512    -9.5815    10.1165 C.2        2 BB2          0.0000
    34 H12       -1.0661   -10.7644     8.6216 H          2 BB2          0.0000
    35 H13       -0.1393   -12.3361     8.2092 H          2 BB2          0.0000
    36 H14       -1.9360   -11.9494    12.0054 H          2 BB2          0.0000
    37 H15       -1.0657   -10.4999    11.4489 H          2 BB2          0.0000
    38 H16       -4.1569   -12.6458    10.3811 H          2 BB2          0.0000
    39 H17       -5.8863   -11.0089     9.2761 H          2 BB2          0.0000
    40 H18       -2.4704    -8.7492    10.2173 H          2 BB2          0.0000
@<TRIPOS>BOND
     1      1      2 1
     2      1     12 1
     3      1     13 1
     4      1     14 1
     5      2      3 1
     6      3      4 1
     7      3     15 1
     8      3     16 1
     9      4      5 ar
    10      4     11 ar
    11      5      6 ar
    12      5     17 1
    13      6      7 ar
    14      6     18 1
    15      7      8 1
    16      7     10 ar
    17      8      9 1
    18      9     19 1
    19      9     20 1
    20      9     21 1
    21     10     11 ar
    22     10     22 1
    23     11     23 1
    24     24     25 2
    25     24     26 1
    26     26     27 2
    27     26     28 1
    28     27     34 1
    29     27     35 1
    30     28     29 1
    31     28     36 1
    32     28     37 1
    33     29     30 1
    34     29     33 1
    35     30     31 2
    36     30     38 1
    37     31     32 1
    38     31     39 1
    39     32     33 2
    40     33     40 1
    41      2     24 am
@<TRIPOS>SUBSTRUCTURE
     1 BB1           2
     2 BB2          24
@<TRIPOS>MOLECULE
EN300-06567_i001_EN300-15782_i003_20_11_1
  57   58   2   0   0
SMALL
USER_CHARGES
@<TRIPOS>ATOM
     1 C1        -0.6562   -17.1215     9.3582 C.3        1 BB1          0.0000
     2 N2         0.4343   -16.1691     9.1100 N.am       1 BB1          0.0000
     3 C3         0.5949   -15.2932    10.2783 C.3        1 BB1          0.0000
     4 C4         0.1430   -13.8992     9.9270 C.ar       1 BB1          0.0000
     5 C5         0.5808   -13.3060     8.7572 C.ar       1 BB1          0.0000
     6 C6         0.1685   -12.0280     8.4331 C.ar       1 BB1          0.0000
     7 C7        -0.6860   -11.3398     9.2823 C.ar       1 BB1          0.0000
     8 O8        -1.0934   -10.0826     8.9654 O.3        1 BB1          0.0000
     9 C9        -2.3173    -9.6310     9.5488 C.3        1 BB1          0.0000
    10 C10       -1.1242   -11.9374    10.4551 C.ar       1 BB1          0.0000
    11 C11       -0.7130   -13.2176    10.7721 C.ar       1 BB1          0.0000
    12 H12       -1.5831   -16.5751     9.5328 H          1 BB1          0.0000
    13 H13       -0.7754   -17.7714     8.4913 H          1 BB1          0.0000
    14 H14       -0.4194   -17.7247    10.2347 H          1 BB1          0.0000
    15 H15       -0.0078   -15.6735    11.1031 H          1 BB1          0.0000
    16 H16        1.6436   -15.2714    10.5746 H          1 BB1          0.0000
    17 H17        1.2459   -13.8422     8.0965 H          1 BB1          0.0000
    18 H18        0.5112   -11.5648     7.5197 H          1 BB1          0.0000
    19 H19       -2.5258    -8.6148     9.2144 H          1 BB1          0.0000
    20 H20       -3.1305   -10.2886     9.2418 H          1 BB1          0.0000
    21 H21       -2.2290    -9.6452    10.6351 H          1 BB1          0.0000
    22 H22       -1.7891   -11.4036    11.1180 H          1 BB1          0.0000
    23 H23       -1.0541   -13.6833    11.6849 H          1 BB1          0.0000
    24 C1         2.3888   -16.8238    14.4189 C.3        2 BB2          0.0000
    25 C2         1.9103   -16.1792    13.1165 C.3        2 BB2          0.0000
    26 O3         2.9070   -16.3493    12.1065 O.3        2 BB2          0.0000
    27 C4         0.6087   -16.8453    12.6658 C.3        2 BB2          0.0000
    28 N5         0.8534   -18.2651    12.4000 N.pl3      2 BB2          0.0000
    29 S6        -0.3647   -19.2187    11.8092 S.o2       2 BB2          0.0000
    30 O7        -1.5814   -18.6453    12.2674 O.2        2 BB2          0.0000
    31 O8        -0.0757   -19.4327    10.4344 O.2        2 BB2          0.0000
    32 C9        -0.2267   -20.7888    12.5969 C.ar       2 BB2          0.0000
    33 C10        0.9570   -21.1520    13.2110 C.ar       2 BB2          0.0000
    34 C11        1.0653   -22.3840    13.8291 C.ar       2 BB2          0.0000
    35 C12       -0.0101   -23.2521    13.8331 C.ar       2 BB2          0.0000
    36 C13        0.1082   -24.5951    14.5064 C.3        2 BB2          0.0000
    37 C14       -1.1946   -22.8882    13.2199 C.ar       2 BB2          0.0000
    38 C15       -2.3673   -23.8345    13.2247 C.3        2 BB2          0.0000
    39 C16       -1.3041   -21.6550    12.6054 C.ar       2 BB2          0.0000
    40 C17        0.1114   -16.1775    11.4097 C.2        2 BB2          0.0000
    41 O19       -0.1342   -16.8460    10.4202 O.2        2 BB2          0.0000
    42 H20        3.3161   -16.3492    14.7399 H          2 BB2          0.0000
    43 H21        1.6286   -16.6940    15.1892 H          2 BB2          0.0000
    44 H22        2.5626   -17.8873    14.2555 H          2 BB2          0.0000
    45 H23        1.7365   -15.1155    13.2799 H          2 BB2          0.0000
    46 H24       -0.1407   -16.7465    13.4510 H          2 BB2          0.0000
    47 H25        1.7974   -20.4736    13.2080 H          2 BB2          0.0000
    48 H26        1.9905   -22.6682    14.3085 H          2 BB2          0.0000
    49 H27       -0.1932   -24.5062    15.5500 H          2 BB2          0.0000
    50 H28       -0.5383   -25.3129    14.0014 H          2 BB2          0.0000
    51 H29        1.1417   -24.9378    14.4545 H          2 BB2          0.0000
    52 H30       -2.9797   -23.6499    14.1073 H          2 BB2          0.0000
    53 H31       -2.9659   -23.6760    12.3276 H          2 BB2          0.0000
    54 H32       -2.0048   -24.8623    13.2426 H          2 BB2          0.0000
    55 H33       -2.2295   -21.3707    12.1264 H          2 BB2          0.0000
    56 H34        2.5702   -16.7226    11.2806 H          2 BB2          0.0000
    57 H35        1.7288   -18.6466    12.5701 H          2 BB2          0.0000
@<TRIPOS>BOND
     1      1      2 1
     2      1     12 1
     3      1     13 1
     4      1     14 1
     5      2      3 1
     6      3      4 1
     7      3     15 1
     8      3     16 1
     9      4      5 ar
    10      4     11 ar
    11      5      6 ar
    12      5     17 1
    13      6      7 ar
    14      6     18 1
    15      7      8 1
    16      7     10 ar
    17      8      9 1
    18      9     19 1
    19      9     20 1
    20      9     21 1
    21     10     11 ar
    22     10     22 1
    23     11     23 1
    24     24     25 1
    25     24     42 1
    26     24     43 1
    27     24     44 1
    28     25     26 1
    29     25     27 1
    30     25     45 1
    31     26     56 1
    32     27     28 1
    33     27     40 1
    34     27     46 1
    35     28     29 1
    36     28     57 1
    37     29     30 2
    38     29     31 2
    39     29     32 1
    40     32     33 ar
    41     32     39 ar
    42     33     34 ar
    43     33     47 1
    44     34     35 ar
    45     34     48 1
    46     35     36 1
    47     35     37 ar
    48     36     49 1
    49     36     50 1
    50     36     51 1
    51     37     38 1
    52     37     39 ar
    53     38     52 1
    54     38     53 1
    55     38     54 1
    56     39     55 1
    57     40     41 2
    58      2     40 am
@<TRIPOS>SUBSTRUCTURE
     1 BB1           2
     2 BB2          40
@<TRIPOS>MOLECULE
EN300-06567_i001_EN300-15782_i003_20_6_1
  57   58   2   0   0
SMALL
USER_CHARGES
@<TRIPOS>ATOM
     1 C1        -0.6562   -17.1215     9.3582 C.3        1 BB1          0.0000
     2 N2         0.4343   -16.1691     9.1100 N.am       1 BB1          0.0000
     3 C3         0.5949   -15.2932    10.2783 C.3        1 BB1          0.0000
     4 C4         0.1430   -13.8992     9.9270 C.ar       1 BB1          0.0000
     5 C5         0.5808   -13.3060     8.7572 C.ar       1 BB1          0.0000
     6 C6         0.1685   -12.0280     8.4331 C.ar       1 BB1          0.0000
     7 C7        -0.6860   -11.3398     9.2823 C.ar       1 BB1          0.0000
     8 O8        -1.0934   -10.0826     8.9654 O.3        1 BB1          0.0000
     9 C9        -2.3173    -9.6310     9.5488 C.3        1 BB1          0.0000
    10 C10       -1.1242   -11.9374    10.4551 C.ar       1 BB1          0.0000
    11 C11       -0.7130   -13.2176    10.7721 C.ar       1 BB1          0.0000
    12 H12       -1.5831   -16.5751     9.5328 H          1 BB1          0.0000
    13 H13       -0.7754   -17.7714     8.4913 H          1 BB1          0.0000
    14 H14       -0.4194   -17.7247    10.2347 H          1 BB1          0.0000
    15 H15       -0.0078   -15.6735    11.1031 H          1 BB1          0.0000
    16 H16        1.6436   -15.2714    10.5746 H          1 BB1          0.0000
    17 H17        1.2459   -13.8422     8.0965 H          1 BB1          0.0000
    18 H18        0.5112   -11.5648     7.5197 H          1 BB1          0.0000
    19 H19       -2.5258    -8.6148     9.2144 H          1 BB1          0.0000
    20 H20       -3.1305   -10.2886     9.2418 H          1 BB1          0.0000
    21 H21       -2.2290    -9.6452    10.6351 H          1 BB1          0.0000
    22 H22       -1.7891   -11.4036    11.1180 H          1 BB1          0.0000
    23 H23       -1.0541   -13.6833    11.6849 H          1 BB1          0.0000
    24 C1         2.0709   -17.5199    14.3312 C.3        2 BB2          0.0000
    25 C2         2.1075   -16.5245    13.1698 C.3        2 BB2          0.0000
    26 O3         3.2140   -16.8273    12.3176 O.3        2 BB2          0.0000
    27 C4         0.8063   -16.6246    12.3711 C.3        2 BB2          0.0000
    28 N5         0.9157   -17.7103    11.3936 N.pl3      2 BB2          0.0000
    29 S6        -0.3271   -18.7896    11.2125 S.o2       2 BB2          0.0000
    30 O7        -1.4574   -18.2108    11.8500 O.2        2 BB2          0.0000
    31 O8        -0.3215   -19.1825     9.8469 O.2        2 BB2          0.0000
    32 C9         0.0891   -20.2255    12.1449 C.ar       2 BB2          0.0000
    33 C10        1.2108   -20.2238    12.9525 C.ar       2 BB2          0.0000
    34 C11        1.5374   -21.3506    13.6842 C.ar       2 BB2          0.0000
    35 C12        0.7421   -22.4784    13.6083 C.ar       2 BB2          0.0000
    36 C13        1.0985   -23.7067    14.4054 C.3        2 BB2          0.0000
    37 C14       -0.3806   -22.4796    12.8015 C.ar       2 BB2          0.0000
    38 C15       -1.2480   -23.7091    12.7192 C.3        2 BB2          0.0000
    39 C16       -0.7093   -21.3519    12.0731 C.ar       2 BB2          0.0000
    40 C17        0.5573   -15.3240    11.6517 C.2        2 BB2          0.0000
    41 O18        1.3334   -14.9451    10.7910 O.2        2 BB2          0.0000
    42 H20        2.9979   -17.4487    14.9001 H          2 BB2          0.0000
    43 H21        1.2269   -17.2891    14.9811 H          2 BB2          0.0000
    44 H22        1.9618   -18.5313    13.9395 H          2 BB2          0.0000
    45 H23        2.2166   -15.5131    13.5614 H          2 BB2          0.0000
    46 H24       -0.0217   -16.8287    13.0498 H          2 BB2          0.0000
    47 H25        1.8323   -19.3425    13.0118 H          2 BB2          0.0000
    48 H26        2.4143   -21.3496    14.3147 H          2 BB2          0.0000
    49 H27        0.6192   -23.6571    15.3831 H          2 BB2          0.0000
    50 H28        0.7542   -24.5955    13.8767 H          2 BB2          0.0000
    51 H29        2.1799   -23.7560    14.5330 H          2 BB2          0.0000
    52 H30       -2.0221   -23.6597    13.4850 H          2 BB2          0.0000
    53 H31       -1.7135   -23.7602    11.7349 H          2 BB2          0.0000
    54 H32       -0.6359   -24.5969    12.8782 H          2 BB2          0.0000
    55 H33       -1.5864   -21.3528    11.4429 H          2 BB2          0.0000
    56 H34        2.9957   -16.8297    11.3756 H          2 BB2          0.0000
    57 H35        1.7160   -17.7969    10.8524 H          2 BB2          0.0000
@<TRIPOS>BOND
     1      1      2 1
     2      1     12 1
     3      1     13 1
     4      1     14 1
     5      2      3 1
     6      3      4 1
     7      3     15 1
     8      3     16 1
     9      4      5 ar
    10      4     11 ar
    11      5      6 ar
    12      5     17 1
    13      6      7 ar
    14      6     18 1
    15      7      8 1
    16      7     10 ar
    17      8      9 1
    18      9     19 1
    19      9     20 1
    20      9     21 1
    21     10     11 ar
    22     10     22 1
    23     11     23 1
    24     24     25 1
    25     24     42 1
    26     24     43 1
    27     24     44 1
    28     25     26 1
    29     25     27 1
    30     25     45 1
    31     26     56 1
    32     27     28 1
    33     27     40 1
    34     27     46 1
    35     28     29 1
    36     28     57 1
    37     29     30 2
    38     29     31 2
    39     29     32 1
    40     32     33 ar
    41     32     39 ar
    42     33     34 ar
    43     33     47 1
    44     34     35 ar
    45     34     48 1
    46     35     36 1
    47     35     37 ar
    48     36     49 1
    49     36     50 1
    50     36     51 1
    51     37     38 1
    52     37     39 ar
    53     38     52 1
    54     38     53 1
    55     38     54 1
    56     39     55 1
    57     40     41 2
    58      2     40 am
@<TRIPOS>SUBSTRUCTURE
     1 BB1           2
     2 BB2          40
@<TRIPOS>MOLECULE
EN300-06567_i001_EN300-15782_i003_4_11_1
  57   58   2   0   0
SMALL
USER_CHARGES
@<TRIPOS>ATOM
     1 C1        -0.7005   -18.0787     8.4020 C.3        1 BB1          0.0000
     2 N2        -0.1098   -16.8342     8.9121 N.am       1 BB1          0.0000
     3 C3         0.2459   -15.9627     7.7843 C.3        1 BB1          0.0000
     4 C4         0.2509   -14.5267     8.2412 C.ar       1 BB1          0.0000
     5 C5         0.2652   -14.2323     9.5921 C.ar       1 BB1          0.0000
     6 C6         0.2693   -12.9167    10.0136 C.ar       1 BB1          0.0000
     7 C7         0.2596   -11.8905     9.0801 C.ar       1 BB1          0.0000
     8 O8         0.2640   -10.5955     9.4922 O.3        1 BB1          0.0000
     9 C9        -0.2565   -10.3278    10.7959 C.3        1 BB1          0.0000
    10 C10        0.2458   -12.1885     7.7253 C.ar       1 BB1          0.0000
    11 C11        0.2469   -13.5057     7.3089 C.ar       1 BB1          0.0000
    12 H12        0.0208   -18.5879     7.7626 H          1 BB1          0.0000
    13 H13       -0.9643   -18.7254     9.2388 H          1 BB1          0.0000
    14 H14       -1.5961   -17.8463     7.8258 H          1 BB1          0.0000
    15 H15        1.2364   -16.2304     7.4165 H          1 BB1          0.0000
    16 H16       -0.4844   -16.0870     6.9847 H          1 BB1          0.0000
    17 H17        0.2728   -15.0316    10.3184 H          1 BB1          0.0000
    18 H18        0.2798   -12.6873    11.0689 H          1 BB1          0.0000
    19 H19       -0.1943    -9.2588    10.9994 H          1 BB1          0.0000
    20 H20       -1.2976   -10.6470    10.8440 H          1 BB1          0.0000
    21 H21        0.3255   -10.8736    11.5385 H          1 BB1          0.0000
    22 H22        0.2378   -11.3914     6.9966 H          1 BB1          0.0000
    23 H23        0.2365   -13.7382     6.2542 H          1 BB1          0.0000
    24 C1         2.3888   -16.8238    14.4189 C.3        2 BB2          0.0000
    25 C2         1.9103   -16.1792    13.1165 C.3        2 BB2          0.0000
    26 O3         2.9070   -16.3493    12.1065 O.3        2 BB2          0.0000
    27 C4         0.6087   -16.8453    12.6658 C.3        2 BB2          0.0000
    28 N5         0.8534   -18.2651    12.4000 N.pl3      2 BB2          0.0000
    29 S6        -0.3647   -19.2187    11.8092 S.o2       2 BB2          0.0000
    30 O7        -1.5814   -18.6453    12.2674 O.2        2 BB2          0.0000
    31 O8        -0.0757   -19.4327    10.4344 O.2        2 BB2          0.0000
    32 C9        -0.2267   -20.7888    12.5969 C.ar       2 BB2          0.0000
    33 C10        0.9570   -21.1520    13.2110 C.ar       2 BB2          0.0000
    34 C11        1.0653   -22.3840    13.8291 C.ar       2 BB2          0.0000
    35 C12       -0.0101   -23.2521    13.8331 C.ar       2 BB2          0.0000
    36 C13        0.1082   -24.5951    14.5064 C.3        2 BB2          0.0000
    37 C14       -1.1946   -22.8882    13.2199 C.ar       2 BB2          0.0000
    38 C15       -2.3673   -23.8345    13.2247 C.3        2 BB2          0.0000
    39 C16       -1.3041   -21.6550    12.6054 C.ar       2 BB2          0.0000
    40 C17        0.1114   -16.1775    11.4097 C.2        2 BB2          0.0000
    41 O19       -0.1342   -16.8460    10.4202 O.2        2 BB2          0.0000
    42 H20        3.3161   -16.3492    14.7399 H          2 BB2          0.0000
    43 H21        1.6286   -16.6940    15.1892 H          2 BB2          0.0000
    44 H22        2.5626   -17.8873    14.2555 H          2 BB2          0.0000
    45 H23        1.7365   -15.1155    13.2799 H          2 BB2          0.0000
    46 H24       -0.1407   -16.7465    13.4510 H          2 BB2          0.0000
    47 H25        1.7974   -20.4736    13.2080 H          2 BB2          0.0000
    48 H26        1.9905   -22.6682    14.3085 H          2 BB2          0.0000
    49 H27       -0.1932   -24.5062    15.5500 H          2 BB2          0.0000
    50 H28       -0.5383   -25.3129    14.0014 H          2 BB2          0.0000
    51 H29        1.1417   -24.9378    14.4545 H          2 BB2          0.0000
    52 H30       -2.9797   -23.6499    14.1073 H          2 BB2          0.0000
    53 H31       -2.9659   -23.6760    12.3276 H          2 BB2          0.0000
    54 H32       -2.0048   -24.8623    13.2426 H          2 BB2          0.0000
    55 H33       -2.2295   -21.3707    12.1264 H          2 BB2          0.0000
    56 H34        2.5702   -16.7226    11.2806 H          2 BB2          0.0000
    57 H35        1.7288   -18.6466    12.5701 H          2 BB2          0.0000
@<TRIPOS>BOND
     1      1      2 1
     2      1     12 1
     3      1     13 1
     4      1     14 1
     5      2      3 1
     6      3      4 1
     7      3     15 1
     8      3     16 1
     9      4      5 ar
    10      4     11 ar
    11      5      6 ar
    12      5     17 1
    13      6      7 ar
    14      6     18 1
    15      7      8 1
    16      7     10 ar
    17      8      9 1
    18      9     19 1
    19      9     20 1
    20      9     21 1
    21     10     11 ar
    22     10     22 1
    23     11     23 1
    24     24     25 1
    25     24     42 1
    26     24     43 1
    27     24     44 1
    28     25     26 1
    29     25     27 1
    30     25     45 1
    31     26     56 1
    32     27     28 1
    33     27     40 1
    34     27     46 1
    35     28     29 1
    36     28     57 1
    37     29     30 2
    38     29     31 2
    39     29     32 1
    40     32     33 ar
    41     32     39 ar
    42     33     34 ar
    43     33     47 1
    44     34     35 ar
    45     34     48 1
    46     35     36 1
    47     35     37 ar
    48     36     49 1
    49     36     50 1
    50     36     51 1
    51     37     38 1
    52     37     39 ar
    53     38     52 1
    54     38     53 1
    55     38     54 1
    56     39     55 1
    57     40     41 2
    58      2     40 am
@<TRIPOS>SUBSTRUCTURE
     1 BB1           2
     2 BB2          40
@<TRIPOS>MOLECULE
EN300-06567_i001_EN300-222254_i002_5_20_1
  46   48   2   0   0
SMALL
USER_CHARGES
@<TRIPOS>ATOM
     1 C1         1.6971   -16.2531    13.0487 C.3        1 BB1          0.0000
     2 N2         1.7631   -15.6576    11.7075 N.am       1 BB1          0.0000
     3 C3         0.4111   -15.2854    11.2698 C.3        1 BB1          0.0000
     4 C4         0.5021   -14.2146    10.2134 C.ar       1 BB1          0.0000
     5 C5         1.3093   -14.4035     9.1069 C.ar       1 BB1          0.0000
     6 C6         1.3949   -13.4232     8.1373 C.ar       1 BB1          0.0000
     7 C7         0.6695   -12.2485     8.2743 C.ar       1 BB1          0.0000
     8 O8         0.7516   -11.2829     7.3216 O.3        1 BB1          0.0000
     9 C9         1.1245   -11.6992     6.0064 C.3        1 BB1          0.0000
    10 C10       -0.1401   -12.0616     9.3852 C.ar       1 BB1          0.0000
    11 C11       -0.2261   -13.0471    10.3495 C.ar       1 BB1          0.0000
    12 H12        1.0666   -17.1420    13.0209 H          1 BB1          0.0000
    13 H13        2.7002   -16.5294    13.3734 H          1 BB1          0.0000
    14 H14        1.2752   -15.5302    13.7469 H          1 BB1          0.0000
    15 H15       -0.0912   -16.1605    10.8578 H          1 BB1          0.0000
    16 H16       -0.1555   -14.9085    12.1213 H          1 BB1          0.0000
    17 H17        1.8738   -15.3181     9.0006 H          1 BB1          0.0000
    18 H18        2.0260   -13.5709     7.2735 H          1 BB1          0.0000
    19 H19        1.1524   -10.8330     5.3454 H          1 BB1          0.0000
    20 H20        2.1099   -12.1640     6.0381 H          1 BB1          0.0000
    21 H21        0.3955   -12.4182     5.6326 H          1 BB1          0.0000
    22 H22       -0.7055   -11.1479     9.4944 H          1 BB1          0.0000
    23 H23       -0.8566   -12.9022    11.2143 H          1 BB1          0.0000
    24 O1        -0.1937   -15.4726    12.3986 O.2        2 BB2          0.0000
    25 C2        -0.2904   -16.6423    12.7290 C.2        2 BB2          0.0000
    26 C4         0.4712   -17.1529    13.9248 C.3        2 BB2          0.0000
    27 C5         1.6394   -16.2452    14.3447 C.3        2 BB2          0.0000
    28 C6         2.4427   -17.5309    14.6026 C.3        2 BB2          0.0000
    29 C7         1.5260   -18.2160    13.5753 C.3        2 BB2          0.0000
    30 C8         1.1243   -19.6156    13.9636 C.ar       2 BB2          0.0000
    31 C9         0.6320   -19.8668    15.2300 C.ar       2 BB2          0.0000
    32 C10        0.2636   -21.1505    15.5872 C.ar       2 BB2          0.0000
    33 C11        0.3868   -22.1850    14.6770 C.ar       2 BB2          0.0000
    34 Cl12      -0.0766   -23.7965    15.1264 Cl         2 BB2          0.0000
    35 C13        0.8790   -21.9351    13.4085 C.ar       2 BB2          0.0000
    36 C14        1.2430   -20.6489    13.0492 C.ar       2 BB2          0.0000
    37 F15        1.7234   -20.4034    11.8106 F          2 BB2          0.0000
    38 H16       -0.1798   -17.4371    14.7515 H          2 BB2          0.0000
    39 H17        2.0357   -15.6387    13.5304 H          2 BB2          0.0000
    40 H18        1.4403   -15.6665    15.2467 H          2 BB2          0.0000
    41 H19        3.4833   -17.4666    14.2848 H          2 BB2          0.0000
    42 H20        2.3314   -17.9196    15.6148 H          2 BB2          0.0000
    43 H21        1.8913   -18.1483    12.5506 H          2 BB2          0.0000
    44 H22        0.5354   -19.0599    15.9414 H          2 BB2          0.0000
    45 H23       -0.1204   -21.3460    16.5776 H          2 BB2          0.0000
    46 H24        0.9754   -22.7424    12.6977 H          2 BB2          0.0000
@<TRIPOS>BOND
     1      1      2 1
     2      1     12 1
     3      1     13 1
     4      1     14 1
     5      2      3 1
     6      3      4 1
     7      3     15 1
     8      3     16 1
     9      4      5 ar
    10      4     11 ar
    11      5      6 ar
    12      5     17 1
    13      6      7 ar
    14      6     18 1
    15      7      8 1
    16      7     10 ar
    17      8      9 1
    18      9     19 1
    19      9     20 1
    20      9     21 1
    21     10     11 ar
    22     10     22 1
    23     11     23 1
    24     24     25 2
    25     25     26 1
    26     26     27 1
    27     26     29 1
    28     26     38 1
    29     27     28 1
    30     27     39 1
    31     27     40 1
    32     28     29 1
    33     28     41 1
    34     28     42 1
    35     29     30 1
    36     29     43 1
    37     30     31 ar
    38     30     36 ar
    39     31     32 ar
    40     31     44 1
    41     32     33 ar
    42     32     45 1
    43     33     34 1
    44     33     35 ar
    45     35     36 ar
    46     35     46 1
    47     36     37 1
    48      2     25 am
@<TRIPOS>SUBSTRUCTURE
     1 BB1           2
     2 BB2          25
@<TRIPOS>MOLECULE
EN300-06567_i001_EN300-222254_i002_7_20_1
  46   48   2   0   0
SMALL
USER_CHARGES
@<TRIPOS>ATOM
     1 C1         1.8640   -16.2358    13.0200 C.3        1 BB1          0.0000
     2 N2         1.6258   -15.6735    11.6839 N.am       1 BB1          0.0000
     3 C3         0.1830   -15.4854    11.4819 C.3        1 BB1          0.0000
     4 C4        -0.0626   -14.1515    10.8252 C.ar       1 BB1          0.0000
     5 C5        -0.9500   -13.2558    11.3928 C.ar       1 BB1          0.0000
     6 C6        -1.1774   -12.0325    10.7926 C.ar       1 BB1          0.0000
     7 C7        -0.5140   -11.7028     9.6195 C.ar       1 BB1          0.0000
     8 O8        -0.7357   -10.4998     9.0274 O.3        1 BB1          0.0000
     9 C9        -1.9771    -9.8536     9.3161 C.3        1 BB1          0.0000
    10 C10        0.3762   -12.6030     9.0523 C.ar       1 BB1          0.0000
    11 C11        0.6039   -13.8229     9.6593 C.ar       1 BB1          0.0000
    12 H12        1.3568   -17.1970    13.1054 H          1 BB1          0.0000
    13 H13        2.9345   -16.3754    13.1699 H          1 BB1          0.0000
    14 H14        1.4771   -15.5525    13.7760 H          1 BB1          0.0000
    15 H15       -0.2012   -16.2809    10.8433 H          1 BB1          0.0000
    16 H16       -0.3257   -15.5153    12.4453 H          1 BB1          0.0000
    17 H17       -1.4661   -13.5130    12.3060 H          1 BB1          0.0000
    18 H18       -1.8711   -11.3336    11.2359 H          1 BB1          0.0000
    19 H19       -2.0260    -8.9052     8.7812 H          1 BB1          0.0000
    20 H20       -2.8015   -10.4924     8.9994 H          1 BB1          0.0000
    21 H21       -2.0506    -9.6704    10.3881 H          1 BB1          0.0000
    22 H22        0.8935   -12.3488     8.1390 H          1 BB1          0.0000
    23 H23        1.2971   -14.5239     9.2182 H          1 BB1          0.0000
    24 O1        -0.1937   -15.4726    12.3986 O.2        2 BB2          0.0000
    25 C2        -0.2904   -16.6423    12.7290 C.2        2 BB2          0.0000
    26 C4         0.4712   -17.1529    13.9248 C.3        2 BB2          0.0000
    27 C5         1.6394   -16.2452    14.3447 C.3        2 BB2          0.0000
    28 C6         2.4427   -17.5309    14.6026 C.3        2 BB2          0.0000
    29 C7         1.5260   -18.2160    13.5753 C.3        2 BB2          0.0000
    30 C8         1.1243   -19.6156    13.9636 C.ar       2 BB2          0.0000
    31 C9         0.6320   -19.8668    15.2300 C.ar       2 BB2          0.0000
    32 C10        0.2636   -21.1505    15.5872 C.ar       2 BB2          0.0000
    33 C11        0.3868   -22.1850    14.6770 C.ar       2 BB2          0.0000
    34 Cl12      -0.0766   -23.7965    15.1264 Cl         2 BB2          0.0000
    35 C13        0.8790   -21.9351    13.4085 C.ar       2 BB2          0.0000
    36 C14        1.2430   -20.6489    13.0492 C.ar       2 BB2          0.0000
    37 F15        1.7234   -20.4034    11.8106 F          2 BB2          0.0000
    38 H16       -0.1798   -17.4371    14.7515 H          2 BB2          0.0000
    39 H17        2.0357   -15.6387    13.5304 H          2 BB2          0.0000
    40 H18        1.4403   -15.6665    15.2467 H          2 BB2          0.0000
    41 H19        3.4833   -17.4666    14.2848 H          2 BB2          0.0000
    42 H20        2.3314   -17.9196    15.6148 H          2 BB2          0.0000
    43 H21        1.8913   -18.1483    12.5506 H          2 BB2          0.0000
    44 H22        0.5354   -19.0599    15.9414 H          2 BB2          0.0000
    45 H23       -0.1204   -21.3460    16.5776 H          2 BB2          0.0000
    46 H24        0.9754   -22.7424    12.6977 H          2 BB2          0.0000
@<TRIPOS>BOND
     1      1      2 1
     2      1     12 1
     3      1     13 1
     4      1     14 1
     5      2      3 1
     6      3      4 1
     7      3     15 1
     8      3     16 1
     9      4      5 ar
    10      4     11 ar
    11      5      6 ar
    12      5     17 1
    13      6      7 ar
    14      6     18 1
    15      7      8 1
    16      7     10 ar
    17      8      9 1
    18      9     19 1
    19      9     20 1
    20      9     21 1
    21     10     11 ar
    22     10     22 1
    23     11     23 1
    24     24     25 2
    25     25     26 1
    26     26     27 1
    27     26     29 1
    28     26     38 1
    29     27     28 1
    30     27     39 1
    31     27     40 1
    32     28     29 1
    33     28     41 1
    34     28     42 1
    35     29     30 1
    36     29     43 1
    37     30     31 ar
    38     30     36 ar
    39     31     32 ar
    40     31     44 1
    41     32     33 ar
    42     32     45 1
    43     33     34 1
    44     33     35 ar
    45     35     36 ar
    46     35     46 1
    47     36     37 1
    48      2     25 am
@<TRIPOS>SUBSTRUCTURE
     1 BB1           2
     2 BB2          25
@<TRIPOS>MOLECULE
EN300-06567_i001_EN300-344045_i001_7_10_1
  52   54   2   0   0
SMALL
USER_CHARGES
@<TRIPOS>ATOM
     1 C1         1.8640   -16.2358    13.0200 C.3        1 BB1          0.0000
     2 N2         1.6258   -15.6735    11.6839 N.am       1 BB1          0.0000
     3 C3         0.1830   -15.4854    11.4819 C.3        1 BB1          0.0000
     4 C4        -0.0626   -14.1515    10.8252 C.ar       1 BB1          0.0000
     5 C5        -0.9500   -13.2558    11.3928 C.ar       1 BB1          0.0000
     6 C6        -1.1774   -12.0325    10.7926 C.ar       1 BB1          0.0000
     7 C7        -0.5140   -11.7028     9.6195 C.ar       1 BB1          0.0000
     8 O8        -0.7357   -10.4998     9.0274 O.3        1 BB1          0.0000
     9 C9        -1.9771    -9.8536     9.3161 C.3        1 BB1          0.0000
    10 C10        0.3762   -12.6030     9.0523 C.ar       1 BB1          0.0000
    11 C11        0.6039   -13.8229     9.6593 C.ar       1 BB1          0.0000
    12 H12        1.3568   -17.1970    13.1054 H          1 BB1          0.0000
    13 H13        2.9345   -16.3754    13.1699 H          1 BB1          0.0000
    14 H14        1.4771   -15.5525    13.7760 H          1 BB1          0.0000
    15 H15       -0.2012   -16.2809    10.8433 H          1 BB1          0.0000
    16 H16       -0.3257   -15.5153    12.4453 H          1 BB1          0.0000
    17 H17       -1.4661   -13.5130    12.3060 H          1 BB1          0.0000
    18 H18       -1.8711   -11.3336    11.2359 H          1 BB1          0.0000
    19 H19       -2.0260    -8.9052     8.7812 H          1 BB1          0.0000
    20 H20       -2.8015   -10.4924     8.9994 H          1 BB1          0.0000
    21 H21       -2.0506    -9.6704    10.3881 H          1 BB1          0.0000
    22 H22        0.8935   -12.3488     8.1390 H          1 BB1          0.0000
    23 H23        1.2971   -14.5239     9.2182 H          1 BB1          0.0000
    24 O1        -0.1020   -15.4251    12.3109 O.2        2 BB2          0.0000
    25 C2        -0.1552   -16.1642    13.2791 C.2        2 BB2          0.0000
    26 C4        -0.2949   -17.6520    13.0845 C.3        2 BB2          0.0000
    27 C5         1.0177   -18.3411    13.4627 C.3        2 BB2          0.0000
    28 C6         2.1466   -17.8837    12.5159 C.3        2 BB2          0.0000
    29 C7         2.8436   -16.7333    13.2840 C.3        2 BB2          0.0000
    30 C8         2.8113   -17.2322    14.7500 C.3        2 BB2          0.0000
    31 C9         1.4404   -17.9270    14.8830 C.3        2 BB2          0.0000
    32 C10        0.8553   -19.8375    13.3870 C.ar       2 BB2          0.0000
    33 C11        0.3498   -20.4207    12.2402 C.ar       2 BB2          0.0000
    34 C12        0.2007   -21.7932    12.1708 C.ar       2 BB2          0.0000
    35 C13        0.5577   -22.5826    13.2481 C.ar       2 BB2          0.0000
    36 C14        1.0640   -21.9994    14.3945 C.ar       2 BB2          0.0000
    37 C15        1.2171   -20.6272    14.4623 C.ar       2 BB2          0.0000
    38 H16       -1.0982   -18.0276    13.7185 H          2 BB2          0.0000
    39 H17       -0.5277   -17.8617    12.0405 H          2 BB2          0.0000
    40 H18        2.8460   -18.6997    12.3341 H          2 BB2          0.0000
    41 H19        1.7321   -17.5187    11.5762 H          2 BB2          0.0000
    42 H20        3.8707   -16.6068    12.9415 H          2 BB2          0.0000
    43 H21        2.2833   -15.8041    13.1798 H          2 BB2          0.0000
    44 H22        3.6181   -17.9430    14.9289 H          2 BB2          0.0000
    45 H23        2.8818   -16.3919    15.4406 H          2 BB2          0.0000
    46 H24        0.7104   -17.2350    15.3030 H          2 BB2          0.0000
    47 H25        1.5285   -18.8083    15.5183 H          2 BB2          0.0000
    48 H26        0.0709   -19.8041    11.3986 H          2 BB2          0.0000
    49 H27       -0.1949   -22.2488    11.2751 H          2 BB2          0.0000
    50 H28        0.4406   -23.6548    13.1941 H          2 BB2          0.0000
    51 H29        1.3426   -22.6160    15.2363 H          2 BB2          0.0000
    52 H30        1.6128   -20.1715    15.3580 H          2 BB2          0.0000
@<TRIPOS>BOND
     1      1      2 1
     2      1     12 1
     3      1     13 1
     4      1     14 1
     5      2      3 1
     6      3      4 1
     7      3     15 1
     8      3     16 1
     9      4      5 ar
    10      4     11 ar
    11      5      6 ar
    12      5     17 1
    13      6      7 ar
    14      6     18 1
    15      7      8 1
    16      7     10 ar
    17      8      9 1
    18      9     19 1
    19      9     20 1
    20      9     21 1
    21     10     11 ar
    22     10     22 1
    23     11     23 1
    24     24     25 2
    25     25     26 1
    26     26     27 1
    27     26     38 1
    28     26     39 1
    29     27     28 1
    30     27     31 1
    31     27     32 1
    32     28     29 1
    33     28     40 1
    34     28     41 1
    35     29     30 1
    36     29     42 1
    37     29     43 1
    38     30     31 1
    39     30     44 1
    40     30     45 1
    41     31     46 1
    42     31     47 1
    43     32     33 ar
    44     32     37 ar
    45     33     34 ar
    46     33     48 1
    47     34     35 ar
    48     34     49 1
    49     35     36 ar
    50     35     50 1
    51     36     37 ar
    52     36     51 1
    53     37     52 1
    54      2     25 am
@<TRIPOS>SUBSTRUCTURE
     1 BB1           2
     2 BB2          25
@<TRIPOS>MOLECULE
EN300-06567_i001_EN300-344045_i001_7_8_1
  52   54   2   0   0
SMALL
USER_CHARGES
@<TRIPOS>ATOM
     1 C1         1.8640   -16.2358    13.0200 C.3        1 BB1          0.0000
     2 N2         1.6258   -15.6735    11.6839 N.am       1 BB1          0.0000
     3 C3         0.1830   -15.4854    11.4819 C.3        1 BB1          0.0000
     4 C4        -0.0626   -14.1515    10.8252 C.ar       1 BB1          0.0000
     5 C5        -0.9500   -13.2558    11.3928 C.ar       1 BB1          0.0000
     6 C6        -1.1774   -12.0325    10.7926 C.ar       1 BB1          0.0000
     7 C7        -0.5140   -11.7028     9.6195 C.ar       1 BB1          0.0000
     8 O8        -0.7357   -10.4998     9.0274 O.3        1 BB1          0.0000
     9 C9        -1.9771    -9.8536     9.3161 C.3        1 BB1          0.0000
    10 C10        0.3762   -12.6030     9.0523 C.ar       1 BB1          0.0000
    11 C11        0.6039   -13.8229     9.6593 C.ar       1 BB1          0.0000
    12 H12        1.3568   -17.1970    13.1054 H          1 BB1          0.0000
    13 H13        2.9345   -16.3754    13.1699 H          1 BB1          0.0000
    14 H14        1.4771   -15.5525    13.7760 H          1 BB1          0.0000
    15 H15       -0.2012   -16.2809    10.8433 H          1 BB1          0.0000
    16 H16       -0.3257   -15.5153    12.4453 H          1 BB1          0.0000
    17 H17       -1.4661   -13.5130    12.3060 H          1 BB1          0.0000
    18 H18       -1.8711   -11.3336    11.2359 H          1 BB1          0.0000
    19 H19       -2.0260    -8.9052     8.7812 H          1 BB1          0.0000
    20 H20       -2.8015   -10.4924     8.9994 H          1 BB1          0.0000
    21 H21       -2.0506    -9.6704    10.3881 H          1 BB1          0.0000
    22 H22        0.8935   -12.3488     8.1390 H          1 BB1          0.0000
    23 H23        1.2971   -14.5239     9.2182 H          1 BB1          0.0000
    24 O1         0.1977   -15.0634    12.4746 O.2        2 BB2          0.0000
    25 C2        -0.1011   -15.8922    13.3172 C.2        2 BB2          0.0000
    26 C4        -0.5242   -17.2760    12.8963 C.3        2 BB2          0.0000
    27 C5         0.5490   -18.2852    13.3093 C.3        2 BB2          0.0000
    28 C6         1.8848   -17.9504    12.6139 C.3        2 BB2          0.0000
    29 C7         2.6573   -17.1093    13.6602 C.3        2 BB2          0.0000
    30 C8         2.2891   -17.8025    14.9954 C.3        2 BB2          0.0000
    31 C9         0.8061   -18.1912    14.8234 C.3        2 BB2          0.0000
    32 C10        0.1126   -19.6807    12.9444 C.ar       2 BB2          0.0000
    33 C11       -1.0025   -20.2352    13.5441 C.ar       2 BB2          0.0000
    34 C12       -1.4027   -21.5153    13.2094 C.ar       2 BB2          0.0000
    35 C13       -0.6881   -22.2407    12.2744 C.ar       2 BB2          0.0000
    36 C14        0.4266   -21.6858    11.6741 C.ar       2 BB2          0.0000
    37 C15        0.8243   -20.4040    12.0056 C.ar       2 BB2          0.0000
    38 H16       -1.4675   -17.5304    13.3797 H          2 BB2          0.0000
    39 H17       -0.6516   -17.3036    11.8140 H          2 BB2          0.0000
    40 H18        2.4319   -18.8634    12.3791 H          2 BB2          0.0000
    41 H19        1.7087   -17.3669    11.7102 H          2 BB2          0.0000
    42 H20        3.7313   -17.1616    13.4811 H          2 BB2          0.0000
    43 H21        2.3136   -16.0749    13.6543 H          2 BB2          0.0000
    44 H22        2.9015   -18.6917    15.1453 H          2 BB2          0.0000
    45 H23        2.4080   -17.1112    15.8297 H          2 BB2          0.0000
    46 H24        0.1663   -17.4266    15.2641 H          2 BB2          0.0000
    47 H25        0.6156   -19.1552    15.2951 H          2 BB2          0.0000
    48 H26       -1.5609   -19.6686    14.2745 H          2 BB2          0.0000
    49 H27       -2.2735   -21.9489    13.6785 H          2 BB2          0.0000
    50 H28       -1.0003   -23.2410    12.0135 H          2 BB2          0.0000
    51 H29        0.9852   -22.2526    10.9438 H          2 BB2          0.0000
    52 H30        1.6951   -19.9705    11.5365 H          2 BB2          0.0000
@<TRIPOS>BOND
     1      1      2 1
     2      1     12 1
     3      1     13 1
     4      1     14 1
     5      2      3 1
     6      3      4 1
     7      3     15 1
     8      3     16 1
     9      4      5 ar
    10      4     11 ar
    11      5      6 ar
    12      5     17 1
    13      6      7 ar
    14      6     18 1
    15      7      8 1
    16      7     10 ar
    17      8      9 1
    18      9     19 1
    19      9     20 1
    20      9     21 1
    21     10     11 ar
    22     10     22 1
    23     11     23 1
    24     24     25 2
    25     25     26 1
    26     26     27 1
    27     26     38 1
    28     26     39 1
    29     27     28 1
    30     27     31 1
    31     27     32 1
    32     28     29 1
    33     28     40 1
    34     28     41 1
    35     29     30 1
    36     29     42 1
    37     29     43 1
    38     30     31 1
    39     30     44 1
    40     30     45 1
    41     31     46 1
    42     31     47 1
    43     32     33 ar
    44     32     37 ar
    45     33     34 ar
    46     33     48 1
    47     34     35 ar
    48     34     49 1
    49     35     36 ar
    50     35     50 1
    51     36     37 ar
    52     36     51 1
    53     37     52 1
    54      2     25 am
@<TRIPOS>SUBSTRUCTURE
     1 BB1           2
     2 BB2          25
@<TRIPOS>MOLECULE
EN300-06567_i001_EN300-222254_i002_8_20_1
  46   48   2   0   0
SMALL
USER_CHARGES
@<TRIPOS>ATOM
     1 C1        -0.6681   -18.9616    10.3813 C.3        1 BB1          0.0000
     2 N2        -0.0125   -17.7114     9.9751 N.am       1 BB1          0.0000
     3 C3        -0.6506   -17.1974     8.7559 C.3        1 BB1          0.0000
     4 C4        -0.1019   -15.8299     8.4399 C.ar       1 BB1          0.0000
     5 C5        -0.1005   -14.8455     9.4107 C.ar       1 BB1          0.0000
     6 C6         0.4015   -13.5909     9.1234 C.ar       1 BB1          0.0000
     7 C7         0.9050   -13.3194     7.8595 C.ar       1 BB1          0.0000
     8 O8         1.3999   -12.0862     7.5745 O.3        1 BB1          0.0000
     9 C9         1.4203   -11.6972     6.1996 C.3        1 BB1          0.0000
    10 C10        0.9030   -14.3090     6.8873 C.ar       1 BB1          0.0000
    11 C11        0.4045   -15.5634     7.1812 C.ar       1 BB1          0.0000
    12 H12       -0.5727   -19.6979     9.5831 H          1 BB1          0.0000
    13 H13       -0.1946   -19.3430    11.2859 H          1 BB1          0.0000
    14 H14       -1.7237   -18.7716    10.5760 H          1 BB1          0.0000
    15 H15       -0.4443   -17.8725     7.9254 H          1 BB1          0.0000
    16 H16       -1.7275   -17.1299     8.9103 H          1 BB1          0.0000
    17 H17       -0.4926   -15.0574    10.3945 H          1 BB1          0.0000
    18 H18        0.4017   -12.8221     9.8819 H          1 BB1          0.0000
    19 H19        1.8379   -10.6943     6.1119 H          1 BB1          0.0000
    20 H20        2.0342   -12.3973     5.6330 H          1 BB1          0.0000
    21 H21        0.4041   -11.7034     5.8052 H          1 BB1          0.0000
    22 H22        1.2940   -14.1000     5.9025 H          1 BB1          0.0000
    23 H23        0.4031   -16.3343     6.4247 H          1 BB1          0.0000
    24 C2        -0.2904   -16.6423    12.7290 C.2        2 BB2          0.0000
    25 O3        -0.9994   -17.3999    12.0888 O.2        2 BB2          0.0000
    26 C4         0.4712   -17.1529    13.9248 C.3        2 BB2          0.0000
    27 C5         1.6394   -16.2452    14.3447 C.3        2 BB2          0.0000
    28 C6         2.4427   -17.5309    14.6026 C.3        2 BB2          0.0000
    29 C7         1.5260   -18.2160    13.5753 C.3        2 BB2          0.0000
    30 C8         1.1243   -19.6156    13.9636 C.ar       2 BB2          0.0000
    31 C9         0.6320   -19.8668    15.2300 C.ar       2 BB2          0.0000
    32 C10        0.2636   -21.1505    15.5872 C.ar       2 BB2          0.0000
    33 C11        0.3868   -22.1850    14.6770 C.ar       2 BB2          0.0000
    34 Cl12      -0.0766   -23.7965    15.1264 Cl         2 BB2          0.0000
    35 C13        0.8790   -21.9351    13.4085 C.ar       2 BB2          0.0000
    36 C14        1.2430   -20.6489    13.0492 C.ar       2 BB2          0.0000
    37 F15        1.7234   -20.4034    11.8106 F          2 BB2          0.0000
    38 H16       -0.1798   -17.4371    14.7515 H          2 BB2          0.0000
    39 H17        2.0357   -15.6387    13.5304 H          2 BB2          0.0000
    40 H18        1.4403   -15.6665    15.2467 H          2 BB2          0.0000
    41 H19        3.4833   -17.4666    14.2848 H          2 BB2          0.0000
    42 H20        2.3314   -17.9196    15.6148 H          2 BB2          0.0000
    43 H21        1.8913   -18.1483    12.5506 H          2 BB2          0.0000
    44 H22        0.5354   -19.0599    15.9414 H          2 BB2          0.0000
    45 H23       -0.1204   -21.3460    16.5776 H          2 BB2          0.0000
    46 H24        0.9754   -22.7424    12.6977 H          2 BB2          0.0000
@<TRIPOS>BOND
     1      1      2 1
     2      1     12 1
     3      1     13 1
     4      1     14 1
     5      2      3 1
     6      3      4 1
     7      3     15 1
     8      3     16 1
     9      4      5 ar
    10      4     11 ar
    11      5      6 ar
    12      5     17 1
    13      6      7 ar
    14      6     18 1
    15      7      8 1
    16      7     10 ar
    17      8      9 1
    18      9     19 1
    19      9     20 1
    20      9     21 1
    21     10     11 ar
    22     10     22 1
    23     11     23 1
    24     24     25 2
    25     24     26 1
    26     26     27 1
    27     26     29 1
    28     26     38 1
    29     27     28 1
    30     27     39 1
    31     27     40 1
    32     28     29 1
    33     28     41 1
    34     28     42 1
    35     29     30 1
    36     29     43 1
    37     30     31 ar
    38     30     36 ar
    39     31     32 ar
    40     31     44 1
    41     32     33 ar
    42     32     45 1
    43     33     34 1
    44     33     35 ar
    45     35     36 ar
    46     35     46 1
    47     36     37 1
    48      2     24 am
@<TRIPOS>SUBSTRUCTURE
     1 BB1           2
     2 BB2          24
@<TRIPOS>MOLECULE
EN300-06567_i001_EN300-107901_i001_8_12_1
  49   51   2   0   0
SMALL
USER_CHARGES
@<TRIPOS>ATOM
     1 C1        -0.6681   -18.9616    10.3813 C.3        1 BB1          0.0000
     2 N2        -0.0125   -17.7114     9.9751 N.am       1 BB1          0.0000
     3 C3        -0.6506   -17.1974     8.7559 C.3        1 BB1          0.0000
     4 C4        -0.1019   -15.8299     8.4399 C.ar       1 BB1          0.0000
     5 C5        -0.1005   -14.8455     9.4107 C.ar       1 BB1          0.0000
     6 C6         0.4015   -13.5909     9.1234 C.ar       1 BB1          0.0000
     7 C7         0.9050   -13.3194     7.8595 C.ar       1 BB1          0.0000
     8 O8         1.3999   -12.0862     7.5745 O.3        1 BB1          0.0000
     9 C9         1.4203   -11.6972     6.1996 C.3        1 BB1          0.0000
    10 C10        0.9030   -14.3090     6.8873 C.ar       1 BB1          0.0000
    11 C11        0.4045   -15.5634     7.1812 C.ar       1 BB1          0.0000
    12 H12       -0.5727   -19.6979     9.5831 H          1 BB1          0.0000
    13 H13       -0.1946   -19.3430    11.2859 H          1 BB1          0.0000
    14 H14       -1.7237   -18.7716    10.5760 H          1 BB1          0.0000
    15 H15       -0.4443   -17.8725     7.9254 H          1 BB1          0.0000
    16 H16       -1.7275   -17.1299     8.9103 H          1 BB1          0.0000
    17 H17       -0.4926   -15.0574    10.3945 H          1 BB1          0.0000
    18 H18        0.4017   -12.8221     9.8819 H          1 BB1          0.0000
    19 H19        1.8379   -10.6943     6.1119 H          1 BB1          0.0000
    20 H20        2.0342   -12.3973     5.6330 H          1 BB1          0.0000
    21 H21        0.4041   -11.7034     5.8052 H          1 BB1          0.0000
    22 H22        1.2940   -14.1000     5.9025 H          1 BB1          0.0000
    23 H23        0.4031   -16.3343     6.4247 H          1 BB1          0.0000
    24 O1        -0.1040   -16.8127    10.9419 O.2        2 BB2          0.0000
    25 C2        -0.6586   -17.0647    11.9980 C.2        2 BB2          0.0000
    26 C4        -0.5081   -16.1395    13.1591 C.3        2 BB2          0.0000
    27 C5         0.8714   -15.6148    13.5202 C.3        2 BB2          0.0000
    28 C6         2.0718   -15.9927    12.6993 C.3        2 BB2          0.0000
    29 C7         2.9006   -17.0996    13.4447 C.3        2 BB2          0.0000
    30 C8         2.5304   -18.3463    12.5651 C.3        2 BB2          0.0000
    31 C9         1.3193   -19.1710    12.9337 C.3        2 BB2          0.0000
    32 C10        0.3748   -18.9766    14.0680 C.3        2 BB2          0.0000
    33 C11        0.7279   -17.7895    14.9401 C.3        2 BB2          0.0000
    34 C12        0.1108   -16.4913    14.4829 C.3        2 BB2          0.0000
    35 H13       -1.3221   -15.3755    13.1908 H          2 BB2          0.0000
    36 H14        0.8986   -14.5156    13.7853 H          2 BB2          0.0000
    37 H15        1.8115   -16.3477    11.7082 H          2 BB2          0.0000
    38 H16        2.7334   -15.1198    12.5839 H          2 BB2          0.0000
    39 H17        3.9712   -16.8793    13.2373 H          2 BB2          0.0000
    40 H18        2.7591   -17.1473    14.4662 H          2 BB2          0.0000
    41 H19        2.4322   -17.9925    11.5342 H          2 BB2          0.0000
    42 H20        3.4173   -18.9981    12.5812 H          2 BB2          0.0000
    43 H21        0.7203   -19.2946    12.0023 H          2 BB2          0.0000
    44 H22        1.7166   -20.2196    13.0503 H          2 BB2          0.0000
    45 H23       -0.6753   -18.9302    13.7299 H          2 BB2          0.0000
    46 H24        0.3881   -19.9005    14.7055 H          2 BB2          0.0000
    47 H25        0.2169   -18.0196    15.9493 H          2 BB2          0.0000
    48 H26        1.7414   -17.7849    15.3103 H          2 BB2          0.0000
    49 H27       -0.3766   -15.9447    15.3713 H          2 BB2          0.0000
@<TRIPOS>BOND
     1      1      2 1
     2      1     12 1
     3      1     13 1
     4      1     14 1
     5      2      3 1
     6      3      4 1
     7      3     15 1
     8      3     16 1
     9      4      5 ar
    10      4     11 ar
    11      5      6 ar
    12      5     17 1
    13      6      7 ar
    14      6     18 1
    15      7      8 1
    16      7     10 ar
    17      8      9 1
    18      9     19 1
    19      9     20 1
    20      9     21 1
    21     10     11 ar
    22     10     22 1
    23     11     23 1
    24     24     25 2
    25     25     26 1
    26     26     27 1
    27     26     34 1
    28     26     35 1
    29     27     28 1
    30     27     34 1
    31     27     36 1
    32     28     29 1
    33     28     37 1
    34     28     38 1
    35     29     30 1
    36     29     39 1
    37     29     40 1
    38     30     31 1
    39     30     41 1
    40     30     42 1
    41     31     32 1
    42     31     43 1
    43     31     44 1
    44     32     33 1
    45     32     45 1
    46     32     46 1
    47     33     34 1
    48     33     47 1
    49     33     48 1
    50     34     49 1
    51      2     25 am
@<TRIPOS>SUBSTRUCTURE
     1 BB1           2
     2 BB2          25
@<TRIPOS>MOLECULE
EN300-06567_i001_EN300-15782_i003_8_11_1
  57   58   2   0   0
SMALL
USER_CHARGES
@<TRIPOS>ATOM
     1 C1        -0.6681   -18.9616    10.3813 C.3        1 BB1          0.0000
     2 N2        -0.0125   -17.7114     9.9751 N.am       1 BB1          0.0000
     3 C3        -0.6506   -17.1974     8.7559 C.3        1 BB1          0.0000
     4 C4        -0.1019   -15.8299     8.4399 C.ar       1 BB1          0.0000
     5 C5        -0.1005   -14.8455     9.4107 C.ar       1 BB1          0.0000
     6 C6         0.4015   -13.5909     9.1234 C.ar       1 BB1          0.0000
     7 C7         0.9050   -13.3194     7.8595 C.ar       1 BB1          0.0000
     8 O8         1.3999   -12.0862     7.5745 O.3        1 BB1          0.0000
     9 C9         1.4203   -11.6972     6.1996 C.3        1 BB1          0.0000
    10 C10        0.9030   -14.3090     6.8873 C.ar       1 BB1          0.0000
    11 C11        0.4045   -15.5634     7.1812 C.ar       1 BB1          0.0000
    12 H12       -0.5727   -19.6979     9.5831 H          1 BB1          0.0000
    13 H13       -0.1946   -19.3430    11.2859 H          1 BB1          0.0000
    14 H14       -1.7237   -18.7716    10.5760 H          1 BB1          0.0000
    15 H15       -0.4443   -17.8725     7.9254 H          1 BB1          0.0000
    16 H16       -1.7275   -17.1299     8.9103 H          1 BB1          0.0000
    17 H17       -0.4926   -15.0574    10.3945 H          1 BB1          0.0000
    18 H18        0.4017   -12.8221     9.8819 H          1 BB1          0.0000
    19 H19        1.8379   -10.6943     6.1119 H          1 BB1          0.0000
    20 H20        2.0342   -12.3973     5.6330 H          1 BB1          0.0000
    21 H21        0.4041   -11.7034     5.8052 H          1 BB1          0.0000
    22 H22        1.2940   -14.1000     5.9025 H          1 BB1          0.0000
    23 H23        0.4031   -16.3343     6.4247 H          1 BB1          0.0000
    24 C1         2.3888   -16.8238    14.4189 C.3        2 BB2          0.0000
    25 C2         1.9103   -16.1792    13.1165 C.3        2 BB2          0.0000
    26 O3         2.9070   -16.3493    12.1065 O.3        2 BB2          0.0000
    27 C4         0.6087   -16.8453    12.6658 C.3        2 BB2          0.0000
    28 N5         0.8534   -18.2651    12.4000 N.pl3      2 BB2          0.0000
    29 S6        -0.3647   -19.2187    11.8092 S.o2       2 BB2          0.0000
    30 O7        -1.5814   -18.6453    12.2674 O.2        2 BB2          0.0000
    31 O8        -0.0757   -19.4327    10.4344 O.2        2 BB2          0.0000
    32 C9        -0.2267   -20.7888    12.5969 C.ar       2 BB2          0.0000
    33 C10        0.9570   -21.1520    13.2110 C.ar       2 BB2          0.0000
    34 C11        1.0653   -22.3840    13.8291 C.ar       2 BB2          0.0000
    35 C12       -0.0101   -23.2521    13.8331 C.ar       2 BB2          0.0000
    36 C13        0.1082   -24.5951    14.5064 C.3        2 BB2          0.0000
    37 C14       -1.1946   -22.8882    13.2199 C.ar       2 BB2          0.0000
    38 C15       -2.3673   -23.8345    13.2247 C.3        2 BB2          0.0000
    39 C16       -1.3041   -21.6550    12.6054 C.ar       2 BB2          0.0000
    40 C17        0.1114   -16.1775    11.4097 C.2        2 BB2          0.0000
    41 O19       -0.1342   -16.8460    10.4202 O.2        2 BB2          0.0000
    42 H20        3.3161   -16.3492    14.7399 H          2 BB2          0.0000
    43 H21        1.6286   -16.6940    15.1892 H          2 BB2          0.0000
    44 H22        2.5626   -17.8873    14.2555 H          2 BB2          0.0000
    45 H23        1.7365   -15.1155    13.2799 H          2 BB2          0.0000
    46 H24       -0.1407   -16.7465    13.4510 H          2 BB2          0.0000
    47 H25        1.7974   -20.4736    13.2080 H          2 BB2          0.0000
    48 H26        1.9905   -22.6682    14.3085 H          2 BB2          0.0000
    49 H27       -0.1932   -24.5062    15.5500 H          2 BB2          0.0000
    50 H28       -0.5383   -25.3129    14.0014 H          2 BB2          0.0000
    51 H29        1.1417   -24.9378    14.4545 H          2 BB2          0.0000
    52 H30       -2.9797   -23.6499    14.1073 H          2 BB2          0.0000
    53 H31       -2.9659   -23.6760    12.3276 H          2 BB2          0.0000
    54 H32       -2.0048   -24.8623    13.2426 H          2 BB2          0.0000
    55 H33       -2.2295   -21.3707    12.1264 H          2 BB2          0.0000
    56 H34        2.5702   -16.7226    11.2806 H          2 BB2          0.0000
    57 H35        1.7288   -18.6466    12.5701 H          2 BB2          0.0000
@<TRIPOS>BOND
     1      1      2 1
     2      1     12 1
     3      1     13 1
     4      1     14 1
     5      2      3 1
     6      3      4 1
     7      3     15 1
     8      3     16 1
     9      4      5 ar
    10      4     11 ar
    11      5      6 ar
    12      5     17 1
    13      6      7 ar
    14      6     18 1
    15      7      8 1
    16      7     10 ar
    17      8      9 1
    18      9     19 1
    19      9     20 1
    20      9     21 1
    21     10     11 ar
    22     10     22 1
    23     11     23 1
    24     24     25 1
    25     24     42 1
    26     24     43 1
    27     24     44 1
    28     25     26 1
    29     25     27 1
    30     25     45 1
    31     26     56 1
    32     27     28 1
    33     27     40 1
    34     27     46 1
    35     28     29 1
    36     28     57 1
    37     29     30 2
    38     29     31 2
    39     29     32 1
    40     32     33 ar
    41     32     39 ar
    42     33     34 ar
    43     33     47 1
    44     34     35 ar
    45     34     48 1
    46     35     36 1
    47     35     37 ar
    48     36     49 1
    49     36     50 1
    50     36     51 1
    51     37     38 1
    52     37     39 ar
    53     38     52 1
    54     38     53 1
    55     38     54 1
    56     39     55 1
    57     40     41 2
    58      2     40 am
@<TRIPOS>SUBSTRUCTURE
     1 BB1           2
     2 BB2          40
@<TRIPOS>MOLECULE
EN300-98433_i002_EN300-34862_i002_10_10_1
  41   43   2   0   0
SMALL
USER_CHARGES
@<TRIPOS>ATOM
     1 C1        -1.2402   -11.1136    11.4954 C.3        1 BB1          0.0000
     2 N2        -0.5671   -11.9461    10.4952 N.pl3      1 BB1          0.0000
     3 C3        -0.0225   -11.5172     9.3150 C.2        1 BB1          0.0000
     4 C4         0.4902   -12.6030     8.7051 C.2        1 BB1          0.0000
     5 N5         0.2647   -13.6658     9.4916 N.2        1 BB1          0.0000
     6 C6        -0.3631   -13.2791    10.5684 C.2        1 BB1          0.0000
     7 C7        -0.7974   -14.1734    11.7009 C.3        1 BB1          0.0000
     8 C8         0.2609   -15.2538    11.9323 C.3        1 BB1          0.0000
     9 C9         0.6278   -15.3002    13.4183 C.3        1 BB1          0.0000
    10 C10        1.6285   -16.4358    13.6517 C.3        1 BB1          0.0000
    11 C11        1.0206   -17.7523    13.1630 C.3        1 BB1          0.0000
    12 N12        0.7164   -17.6529    11.7305 N.am       1 BB1          0.0000
    13 C13       -0.2963   -16.6141    11.5073 C.3        1 BB1          0.0000
    14 H14       -2.3058   -11.0665    11.2712 H          1 BB1          0.0000
    15 H15       -1.0960   -11.5467    12.4852 H          1 BB1          0.0000
    16 H16       -0.8196   -10.1083    11.4739 H          1 BB1          0.0000
    17 H17       -0.0074   -10.5031     8.9439 H          1 BB1          0.0000
    18 H18        0.9944   -12.6156     7.7502 H          1 BB1          0.0000
    19 H19       -0.9153   -13.5801    12.6076 H          1 BB1          0.0000
    20 H20       -1.7477   -14.6437    11.4483 H          1 BB1          0.0000
    21 H21        1.1499   -15.0241    11.3449 H          1 BB1          0.0000
    22 H22        1.0775   -14.3519    13.7126 H          1 BB1          0.0000
    23 H23       -0.2701   -15.4783    14.0101 H          1 BB1          0.0000
    24 H24        2.5460   -16.2314    13.0999 H          1 BB1          0.0000
    25 H25        1.8519   -16.5109    14.7159 H          1 BB1          0.0000
    26 H26        1.7305   -18.5629    13.3279 H          1 BB1          0.0000
    27 H27        0.1034   -17.9557    13.7156 H          1 BB1          0.0000
    28 H28       -1.1854   -16.8418    12.0951 H          1 BB1          0.0000
    29 H29       -0.5586   -16.5844    10.4497 H          1 BB1          0.0000
    30 C2        -0.3489   -19.7996    11.8809 C.2        2 BB2          0.0000
    31 O3         0.1780   -19.5632    10.8072 O.2        2 BB2          0.0000
    32 C4        -0.1440   -21.1381    12.5424 C.3        2 BB2          0.0000
    33 C5        -0.9105   -21.1624    13.8712 C.3        2 BB2          0.0000
    34 S6        -2.0718   -22.5518    13.6823 S.3        2 BB2          0.0000
    35 C7        -1.5627   -22.9965    12.0496 C.2        2 BB2          0.0000
    36 O8        -2.0284   -23.9088    11.3941 O.2        2 BB2          0.0000
    37 N9        -0.5927   -22.1803    11.6470 N.am       2 BB2          0.0000
    38 H10        0.9186   -21.2765    12.7422 H          2 BB2          0.0000
    39 H11       -0.2290   -21.3438    14.7024 H          2 BB2          0.0000
    40 H12       -1.4526   -20.2281    14.0170 H          2 BB2          0.0000
    41 H13       -0.1942   -22.2823    10.7686 H          2 BB2          0.0000
@<TRIPOS>BOND
     1      1      2 1
     2      1     14 1
     3      1     15 1
     4      1     16 1
     5      2      3 1
     6      2      6 1
     7      3      4 2
     8      3     17 1
     9      4      5 1
    10      4     18 1
    11      5      6 2
    12      6      7 1
    13      7      8 1
    14      7     19 1
    15      7     20 1
    16      8      9 1
    17      8     13 1
    18      8     21 1
    19      9     10 1
    20      9     22 1
    21      9     23 1
    22     10     11 1
    23     10     24 1
    24     10     25 1
    25     11     12 1
    26     11     26 1
    27     11     27 1
    28     12     13 1
    29     13     28 1
    30     13     29 1
    31     30     31 2
    32     30     32 1
    33     32     33 1
    34     32     37 1
    35     32     38 1
    36     33     34 1
    37     33     39 1
    38     33     40 1
    39     34     35 1
    40     35     36 2
    41     35     37 am
    42     37     41 1
    43     12     30 am
@<TRIPOS>SUBSTRUCTURE
     1 BB1          12
     2 BB2          30
@<TRIPOS>MOLECULE
EN300-98433_i002_EN300-97777_i001_13_10_1
  57   58   2   0   0
SMALL
USER_CHARGES
@<TRIPOS>ATOM
     1 C1        -0.5880   -11.4128     8.4987 C.3        1 BB1          0.0000
     2 N2         0.1974   -12.6158     8.2121 N.pl3      1 BB1          0.0000
     3 C3         0.8162   -12.9193     7.0295 C.2        1 BB1          0.0000
     4 C4         1.4213   -14.1102     7.2007 C.2        1 BB1          0.0000
     5 N5         1.1787   -14.5225     8.4537 N.2        1 BB1          0.0000
     6 C6         0.4510   -13.6298     9.0673 C.2        1 BB1          0.0000
     7 C7        -0.0345   -13.7202    10.4912 C.3        1 BB1          0.0000
     8 C8         0.3742   -15.0699    11.0846 C.3        1 BB1          0.0000
     9 C9        -0.0218   -15.1193    12.5631 C.3        1 BB1          0.0000
    10 C10        0.3202   -16.5014    13.1271 C.3        1 BB1          0.0000
    11 C11       -0.3915   -17.5741    12.2999 C.3        1 BB1          0.0000
    12 N12        0.0491   -17.4917    10.9022 N.am       1 BB1          0.0000
    13 C13       -0.3395   -16.1956    10.3331 C.3        1 BB1          0.0000
    14 H14       -1.6333   -11.5931     8.2480 H          1 BB1          0.0000
    15 H15       -0.5053   -11.1686     9.5577 H          1 BB1          0.0000
    16 H16       -0.2098   -10.5817     7.9035 H          1 BB1          0.0000
    17 H17        0.8181   -12.3193     6.1315 H          1 BB1          0.0000
    18 H18        2.0004   -14.6402     6.4590 H          1 BB1          0.0000
    19 H19        0.4091   -12.9159    11.0780 H          1 BB1          0.0000
    20 H20       -1.1204   -13.6283    10.5112 H          1 BB1          0.0000
    21 H21        1.4529   -15.1964    10.9923 H          1 BB1          0.0000
    22 H22        0.5272   -14.3550    13.1133 H          1 BB1          0.0000
    23 H23       -1.0928   -14.9410    12.6597 H          1 BB1          0.0000
    24 H24        1.3976   -16.6584    13.0771 H          1 BB1          0.0000
    25 H25       -0.0096   -16.5630    14.1642 H          1 BB1          0.0000
    26 H26       -0.1503   -18.5594    12.6989 H          1 BB1          0.0000
    27 H27       -1.4688   -17.4163    12.3508 H          1 BB1          0.0000
    28 H28       -1.4179   -16.0672    10.4259 H          1 BB1          0.0000
    29 H29       -0.0598   -16.1632     9.2801 H          1 BB1          0.0000
    30 C1         0.1321   -23.5018    14.4443 C.3        2 BB2          0.0000
    31 C2        -0.4964   -22.4470    13.5314 C.3        2 BB2          0.0000
    32 C3        -1.0222   -23.1194    12.2616 C.3        2 BB2          0.0000
    33 C4        -1.6532   -21.7632    14.2629 C.3        2 BB2          0.0000
    34 O5         0.5041   -21.4566    13.1758 O.3        2 BB2          0.0000
    35 C6         0.8333   -20.5541    14.1192 C.2        2 BB2          0.0000
    36 O7         0.7474   -20.8462    15.2955 O.2        2 BB2          0.0000
    37 N8         1.2580   -19.3268    13.7587 N.am       2 BB2          0.0000
    38 C9         1.6162   -18.3449    14.7852 C.3        2 BB2          0.0000
    39 C10        1.4692   -16.9865    14.2373 C.1        2 BB2          0.0000
    40 C11        1.3521   -15.9033    13.8003 C.1        2 BB2          0.0000
    41 C12        1.3615   -18.9749    12.3404 C.3        2 BB2          0.0000
    42 C13        0.0098   -19.1129    11.6887 C.2        2 BB2          0.0000
    43 O14       -0.9768   -18.6375    12.2245 O.2        2 BB2          0.0000
    44 H16        0.9562   -23.9888    13.9231 H          2 BB2          0.0000
    45 H17        0.5067   -23.0227    15.3489 H          2 BB2          0.0000
    46 H18       -0.6190   -24.2452    14.7113 H          2 BB2          0.0000
    47 H19       -1.7733   -23.8628    12.5287 H          2 BB2          0.0000
    48 H20       -1.4699   -22.3679    11.6113 H          2 BB2          0.0000
    49 H21       -0.1981   -23.6065    11.7405 H          2 BB2          0.0000
    50 H22       -1.2785   -21.2842    15.1676 H          2 BB2          0.0000
    51 H23       -2.1009   -21.0118    13.6126 H          2 BB2          0.0000
    52 H24       -2.4042   -22.5067    14.5299 H          2 BB2          0.0000
    53 H25        0.9580   -18.4626    15.6459 H          2 BB2          0.0000
    54 H26        2.6496   -18.5023    15.0937 H          2 BB2          0.0000
    55 H27        1.2473   -14.9343    13.4095 H          2 BB2          0.0000
    56 H28        1.7070   -17.9454    12.2458 H          2 BB2          0.0000
    57 H29        2.0707   -19.6425    11.8511 H          2 BB2          0.0000
@<TRIPOS>BOND
     1      1      2 1
     2      1     14 1
     3      1     15 1
     4      1     16 1
     5      2      3 1
     6      2      6 1
     7      3      4 2
     8      3     17 1
     9      4      5 1
    10      4     18 1
    11      5      6 2
    12      6      7 1
    13      7      8 1
    14      7     19 1
    15      7     20 1
    16      8      9 1
    17      8     13 1
    18      8     21 1
    19      9     10 1
    20      9     22 1
    21      9     23 1
    22     10     11 1
    23     10     24 1
    24     10     25 1
    25     11     12 1
    26     11     26 1
    27     11     27 1
    28     12     13 1
    29     13     28 1
    30     13     29 1
    31     30     31 1
    32     30     44 1
    33     30     45 1
    34     30     46 1
    35     31     32 1
    36     31     33 1
    37     31     34 1
    38     32     47 1
    39     32     48 1
    40     32     49 1
    41     33     50 1
    42     33     51 1
    43     33     52 1
    44     34     35 1
    45     35     36 2
    46     35     37 am
    47     37     38 1
    48     37     41 1
    49     38     39 1
    50     38     53 1
    51     38     54 1
    52     39     40 3
    53     40     55 1
    54     41     42 1
    55     41     56 1
    56     41     57 1
    57     42     43 2
    58     12     42 am
@<TRIPOS>SUBSTRUCTURE
     1 BB1          12
     2 BB2          42
@<TRIPOS>MOLECULE
EN300-98433_i002_EN300-1087079_i001_15_4_1
  55   57   2   0   0
SMALL
USER_CHARGES
@<TRIPOS>ATOM
     1 C1         2.4138   -16.9636    13.9545 C.3        1 BB1          0.0000
     2 N2         1.1613   -17.6091    14.3554 N.pl3      1 BB1          0.0000
     3 C3         1.0187   -18.5897    15.2997 C.2        1 BB1          0.0000
     4 C4        -0.2922   -18.8937    15.3510 C.2        1 BB1          0.0000
     5 N5        -0.9327   -18.1198    14.4622 N.2        1 BB1          0.0000
     6 C6        -0.0692   -17.3437    13.8662 C.2        1 BB1          0.0000
     7 C7        -0.3906   -16.3270    12.8012 C.3        1 BB1          0.0000
     8 C8        -0.0198   -16.8918    11.4284 C.3        1 BB1          0.0000
     9 C9        -0.9949   -18.0124    11.0562 C.3        1 BB1          0.0000
    10 C10       -0.6639   -18.5172     9.6488 C.3        1 BB1          0.0000
    11 C11       -0.7236   -17.3461     8.6657 C.3        1 BB1          0.0000
    12 N12        0.2495   -16.3208     9.0608 N.am       1 BB1          0.0000
    13 C13       -0.1034   -15.7809    10.3794 C.3        1 BB1          0.0000
    14 H14        2.8621   -17.5200    13.1314 H          1 BB1          0.0000
    15 H15        2.2097   -15.9421    13.6339 H          1 BB1          0.0000
    16 H16        3.1016   -16.9486    14.8000 H          1 BB1          0.0000
    17 H17        1.8064   -19.0345    15.8898 H          1 BB1          0.0000
    18 H18       -0.7479   -19.6313    15.9949 H          1 BB1          0.0000
    19 H19       -1.4564   -16.1004    12.8251 H          1 BB1          0.0000
    20 H20        0.1788   -15.4160    12.9852 H          1 BB1          0.0000
    21 H21        0.9951   -17.2880    11.4600 H          1 BB1          0.0000
    22 H22       -0.8986   -18.8312    11.7692 H          1 BB1          0.0000
    23 H23       -2.0152   -17.6291    11.0754 H          1 BB1          0.0000
    24 H24        0.3378   -18.9470     9.6426 H          1 BB1          0.0000
    25 H25       -1.3884   -19.2766     9.3548 H          1 BB1          0.0000
    26 H26       -0.4886   -17.7021     7.6627 H          1 BB1          0.0000
    27 H27       -1.7257   -16.9173     8.6726 H          1 BB1          0.0000
    28 H28       -1.1187   -15.3854    10.3497 H          1 BB1          0.0000
    29 H29        0.5895   -14.9814    10.6415 H          1 BB1          0.0000
    30 C1         0.5107   -16.0504     7.4434 C.3        2 BB2          0.0000
    31 C2         1.1905   -14.6798     7.4534 C.3        2 BB2          0.0000
    32 C3         0.1492   -13.5961     7.7405 C.3        2 BB2          0.0000
    33 C4         0.8083   -12.1917     7.7560 C.3        2 BB2          0.0000
    34 C5        -0.1535   -11.4070     8.6827 C.3        2 BB2          0.0000
    35 N6        -0.5565   -12.3771     9.7170 N.am       2 BB2          0.0000
    36 C7        -0.4021   -13.7352     9.1752 C.3        2 BB2          0.0000
    37 C8         0.5670   -14.5181    10.0231 C.2        2 BB2          0.0000
    38 O10        0.1863   -15.5037    10.6315 O.2        2 BB2          0.0000
    39 C11       -0.9933   -12.0700    10.9545 C.2        2 BB2          0.0000
    40 O12       -1.2986   -12.9542    11.7265 O.2        2 BB2          0.0000
    41 C13       -1.1025   -10.6282    11.3788 C.3        2 BB2          0.0000
    42 H14        1.2525   -16.8223     7.2388 H          2 BB2          0.0000
    43 H15        0.0520   -16.2355     8.4147 H          2 BB2          0.0000
    44 H16       -0.2567   -16.0697     6.6695 H          2 BB2          0.0000
    45 H17        1.9579   -14.6604     8.2271 H          2 BB2          0.0000
    46 H18        1.6492   -14.4945     6.4821 H          2 BB2          0.0000
    47 H19       -0.6578   -13.6353     7.0089 H          2 BB2          0.0000
    48 H20        1.8112   -12.2354     8.1810 H          2 BB2          0.0000
    49 H21        0.8280   -11.7582     6.7561 H          2 BB2          0.0000
    50 H22        0.3629   -10.5611     9.1366 H          2 BB2          0.0000
    51 H23       -1.0244   -11.0651     8.1234 H          2 BB2          0.0000
    52 H24       -1.3690   -14.2378     9.1537 H          2 BB2          0.0000
    53 H25       -0.7871    -9.9832    10.5586 H          2 BB2          0.0000
    54 H26       -2.1365   -10.4037    11.6406 H          2 BB2          0.0000
    55 H27       -0.4627   -10.4547    12.2442 H          2 BB2          0.0000
@<TRIPOS>BOND
     1      1      2 1
     2      1     14 1
     3      1     15 1
     4      1     16 1
     5      2      3 1
     6      2      6 1
     7      3      4 2
     8      3     17 1
     9      4      5 1
    10      4     18 1
    11      5      6 2
    12      6      7 1
    13      7      8 1
    14      7     19 1
    15      7     20 1
    16      8      9 1
    17      8     13 1
    18      8     21 1
    19      9     10 1
    20      9     22 1
    21      9     23 1
    22     10     11 1
    23     10     24 1
    24     10     25 1
    25     11     12 1
    26     11     26 1
    27     11     27 1
    28     12     13 1
    29     13     28 1
    30     13     29 1
    31     30     31 1
    32     30     42 1
    33     30     43 1
    34     30     44 1
    35     31     32 1
    36     31     45 1
    37     31     46 1
    38     32     33 1
    39     32     36 1
    40     32     47 1
    41     33     34 1
    42     33     48 1
    43     33     49 1
    44     34     35 1
    45     34     50 1
    46     34     51 1
    47     35     36 1
    48     35     39 am
    49     36     37 1
    50     36     52 1
    51     37     38 2
    52     39     40 2
    53     39     41 1
    54     41     53 1
    55     41     54 1
    56     41     55 1
    57     12     37 am
@<TRIPOS>SUBSTRUCTURE
     1 BB1          12
     2 BB2          37
@<TRIPOS>MOLECULE
EN300-98433_i002_EN300-19857_i001_15_20_1
  42   44   2   0   0
SMALL
USER_CHARGES
@<TRIPOS>ATOM
     1 C1         2.4138   -16.9636    13.9545 C.3        1 BB1          0.0000
     2 N2         1.1613   -17.6091    14.3554 N.pl3      1 BB1          0.0000
     3 C3         1.0187   -18.5897    15.2997 C.2        1 BB1          0.0000
     4 C4        -0.2922   -18.8937    15.3510 C.2        1 BB1          0.0000
     5 N5        -0.9327   -18.1198    14.4622 N.2        1 BB1          0.0000
     6 C6        -0.0692   -17.3437    13.8662 C.2        1 BB1          0.0000
     7 C7        -0.3906   -16.3270    12.8012 C.3        1 BB1          0.0000
     8 C8        -0.0198   -16.8918    11.4284 C.3        1 BB1          0.0000
     9 C9        -0.9949   -18.0124    11.0562 C.3        1 BB1          0.0000
    10 C10       -0.6639   -18.5172     9.6488 C.3        1 BB1          0.0000
    11 C11       -0.7236   -17.3461     8.6657 C.3        1 BB1          0.0000
    12 N12        0.2495   -16.3208     9.0608 N.am       1 BB1          0.0000
    13 C13       -0.1034   -15.7809    10.3794 C.3        1 BB1          0.0000
    14 H14        2.8621   -17.5200    13.1314 H          1 BB1          0.0000
    15 H15        2.2097   -15.9421    13.6339 H          1 BB1          0.0000
    16 H16        3.1016   -16.9486    14.8000 H          1 BB1          0.0000
    17 H17        1.8064   -19.0345    15.8898 H          1 BB1          0.0000
    18 H18       -0.7479   -19.6313    15.9949 H          1 BB1          0.0000
    19 H19       -1.4564   -16.1004    12.8251 H          1 BB1          0.0000
    20 H20        0.1788   -15.4160    12.9852 H          1 BB1          0.0000
    21 H21        0.9951   -17.2880    11.4600 H          1 BB1          0.0000
    22 H22       -0.8986   -18.8312    11.7692 H          1 BB1          0.0000
    23 H23       -2.0152   -17.6291    11.0754 H          1 BB1          0.0000
    24 H24        0.3378   -18.9470     9.6426 H          1 BB1          0.0000
    25 H25       -1.3884   -19.2766     9.3548 H          1 BB1          0.0000
    26 H26       -0.4886   -17.7021     7.6627 H          1 BB1          0.0000
    27 H27       -1.7257   -16.9173     8.6726 H          1 BB1          0.0000
    28 H28       -1.1187   -15.3854    10.3497 H          1 BB1          0.0000
    29 H29        0.5895   -14.9814    10.6415 H          1 BB1          0.0000
    30 C2        -0.0612   -14.3703    11.2846 C.2        2 BB2          0.0000
    31 O3         0.9101   -15.0078    10.9027 O.2        2 BB2          0.0000
    32 C4        -0.4899   -13.1665    10.5471 C.ar       2 BB2          0.0000
    33 C5         0.2870   -12.6738     9.4958 C.ar       2 BB2          0.0000
    34 C6        -0.1195   -11.5478     8.8104 C.ar       2 BB2          0.0000
    35 C7        -1.2938   -10.9062     9.1618 C.ar       2 BB2          0.0000
    36 C8        -2.0692   -11.3882    10.2031 C.ar       2 BB2          0.0000
    37 Br9       -3.6723   -10.5028    10.6742 Br         2 BB2          0.0000
    38 C10       -1.6778   -12.5173    10.8933 C.ar       2 BB2          0.0000
    39 H11        1.2041   -13.1732     9.2205 H          2 BB2          0.0000
    40 H12        0.4805   -11.1659     7.9978 H          2 BB2          0.0000
    41 H13       -1.6071   -10.0250     8.6216 H          2 BB2          0.0000
    42 H14       -2.2830   -12.8926    11.7053 H          2 BB2          0.0000
@<TRIPOS>BOND
     1      1      2 1
     2      1     14 1
     3      1     15 1
     4      1     16 1
     5      2      3 1
     6      2      6 1
     7      3      4 2
     8      3     17 1
     9      4      5 1
    10      4     18 1
    11      5      6 2
    12      6      7 1
    13      7      8 1
    14      7     19 1
    15      7     20 1
    16      8      9 1
    17      8     13 1
    18      8     21 1
    19      9     10 1
    20      9     22 1
    21      9     23 1
    22     10     11 1
    23     10     24 1
    24     10     25 1
    25     11     12 1
    26     11     26 1
    27     11     27 1
    28     12     13 1
    29     13     28 1
    30     13     29 1
    31     30     31 2
    32     30     32 1
    33     32     33 ar
    34     32     38 ar
    35     33     34 ar
    36     33     39 1
    37     34     35 ar
    38     34     40 1
    39     35     36 ar
    40     35     41 1
    41     36     37 1
    42     36     38 ar
    43     38     42 1
    44     12     30 am
@<TRIPOS>SUBSTRUCTURE
     1 BB1          12
     2 BB2          30
@<TRIPOS>MOLECULE
EN300-98433_i002_EN300-1165841_i001_15_7_1
  57   59   2   0   0
SMALL
USER_CHARGES
@<TRIPOS>ATOM
     1 C1         2.4138   -16.9636    13.9545 C.3        1 BB1          0.0000
     2 N2         1.1613   -17.6091    14.3554 N.pl3      1 BB1          0.0000
     3 C3         1.0187   -18.5897    15.2997 C.2        1 BB1          0.0000
     4 C4        -0.2922   -18.8937    15.3510 C.2        1 BB1          0.0000
     5 N5        -0.9327   -18.1198    14.4622 N.2        1 BB1          0.0000
     6 C6        -0.0692   -17.3437    13.8662 C.2        1 BB1          0.0000
     7 C7        -0.3906   -16.3270    12.8012 C.3        1 BB1          0.0000
     8 C8        -0.0198   -16.8918    11.4284 C.3        1 BB1          0.0000
     9 C9        -0.9949   -18.0124    11.0562 C.3        1 BB1          0.0000
    10 C10       -0.6639   -18.5172     9.6488 C.3        1 BB1          0.0000
    11 C11       -0.7236   -17.3461     8.6657 C.3        1 BB1          0.0000
    12 N12        0.2495   -16.3208     9.0608 N.am       1 BB1          0.0000
    13 C13       -0.1034   -15.7809    10.3794 C.3        1 BB1          0.0000
    14 H14        2.8621   -17.5200    13.1314 H          1 BB1          0.0000
    15 H15        2.2097   -15.9421    13.6339 H          1 BB1          0.0000
    16 H16        3.1016   -16.9486    14.8000 H          1 BB1          0.0000
    17 H17        1.8064   -19.0345    15.8898 H          1 BB1          0.0000
    18 H18       -0.7479   -19.6313    15.9949 H          1 BB1          0.0000
    19 H19       -1.4564   -16.1004    12.8251 H          1 BB1          0.0000
    20 H20        0.1788   -15.4160    12.9852 H          1 BB1          0.0000
    21 H21        0.9951   -17.2880    11.4600 H          1 BB1          0.0000
    22 H22       -0.8986   -18.8312    11.7692 H          1 BB1          0.0000
    23 H23       -2.0152   -17.6291    11.0754 H          1 BB1          0.0000
    24 H24        0.3378   -18.9470     9.6426 H          1 BB1          0.0000
    25 H25       -1.3884   -19.2766     9.3548 H          1 BB1          0.0000
    26 H26       -0.4886   -17.7021     7.6627 H          1 BB1          0.0000
    27 H27       -1.7257   -16.9173     8.6726 H          1 BB1          0.0000
    28 H28       -1.1187   -15.3854    10.3497 H          1 BB1          0.0000
    29 H29        0.5895   -14.9814    10.6415 H          1 BB1          0.0000
    30 C1         0.9292   -14.9156    10.6732 C.3        2 BB2          0.0000
    31 C2         0.8430   -13.8618     9.5673 C.3        2 BB2          0.0000
    32 N3        -0.4583   -13.1839     9.6372 N.4        2 BB2          1.0000
    33 C4        -0.4627   -12.0402     8.7171 C.3        2 BB2          0.0000
    34 C5        -1.8425   -11.3789     8.7258 C.3        2 BB2          0.0000
    35 C6        -2.1625   -10.8966    10.1436 C.3        2 BB2          0.0000
    36 O7        -1.2160    -9.8999    10.5342 O.3        2 BB2          0.0000
    37 C8        -2.0822   -12.0845    11.1067 C.3        2 BB2          0.0000
    38 C9        -0.6933   -12.7197    11.0097 C.3        2 BB2          0.0000
    39 C10       -3.5192   -10.3263    10.1750 C.1        2 BB2          0.0000
    40 C11       -4.6012    -9.8715    10.2000 C.1        2 BB2          0.0000
    41 C12        0.9900   -14.5297     8.2244 C.2        2 BB2          0.0000
    42 O13        0.3991   -15.5709     7.9935 O.2        2 BB2          0.0000
    43 H15        0.1312   -15.6464    10.5416 H          2 BB2          0.0000
    44 H16        1.8947   -15.4187    10.6213 H          2 BB2          0.0000
    45 H17        0.8228   -14.4325    11.6445 H          2 BB2          0.0000
    46 H18        1.6410   -13.1310     9.6988 H          2 BB2          0.0000
    47 H19        0.2885   -11.3167     9.0339 H          2 BB2          0.0000
    48 H20       -0.2316   -12.3847     7.7091 H          2 BB2          0.0000
    49 H21       -1.8431   -10.5290     8.0434 H          2 BB2          0.0000
    50 H22       -2.5945   -12.1017     8.4088 H          2 BB2          0.0000
    51 H23       -2.2540   -11.7390    12.1260 H          2 BB2          0.0000
    52 H24       -2.8391   -12.8218    10.8391 H          2 BB2          0.0000
    53 H25       -0.6326   -13.5657    11.6943 H          2 BB2          0.0000
    54 H26        0.0627   -11.9817    11.2778 H          2 BB2          0.0000
    55 H27       -5.5689    -9.4646    10.2224 H          2 BB2          0.0000
    56 H28       -1.5775    -9.0034    10.5617 H          2 BB2          0.0000
    57 H29       -1.1874   -13.8294     9.3732 H          2 BB2          0.0000
@<TRIPOS>BOND
     1      1      2 1
     2      1     14 1
     3      1     15 1
     4      1     16 1
     5      2      3 1
     6      2      6 1
     7      3      4 2
     8      3     17 1
     9      4      5 1
    10      4     18 1
    11      5      6 2
    12      6      7 1
    13      7      8 1
    14      7     19 1
    15      7     20 1
    16      8      9 1
    17      8     13 1
    18      8     21 1
    19      9     10 1
    20      9     22 1
    21      9     23 1
    22     10     11 1
    23     10     24 1
    24     10     25 1
    25     11     12 1
    26     11     26 1
    27     11     27 1
    28     12     13 1
    29     13     28 1
    30     13     29 1
    31     30     31 1
    32     30     43 1
    33     30     44 1
    34     30     45 1
    35     31     32 1
    36     31     41 1
    37     31     46 1
    38     32     33 1
    39     32     38 1
    40     32     57 1
    41     33     34 1
    42     33     47 1
    43     33     48 1
    44     34     35 1
    45     34     49 1
    46     34     50 1
    47     35     36 1
    48     35     37 1
    49     35     39 1
    50     36     56 1
    51     37     38 1
    52     37     51 1
    53     37     52 1
    54     38     53 1
    55     38     54 1
    56     39     40 3
    57     40     55 1
    58     41     42 2
    59     12     41 am
@<TRIPOS>SUBSTRUCTURE
     1 BB1          12
     2 BB2          41
@<TRIPOS>MOLECULE
EN300-98433_i002_EN300-222254_i002_15_4_1
  52   55   2   0   0
SMALL
USER_CHARGES
@<TRIPOS>ATOM
     1 C1         2.4138   -16.9636    13.9545 C.3        1 BB1          0.0000
     2 N2         1.1613   -17.6091    14.3554 N.pl3      1 BB1          0.0000
     3 C3         1.0187   -18.5897    15.2997 C.2        1 BB1          0.0000
     4 C4        -0.2922   -18.8937    15.3510 C.2        1 BB1          0.0000
     5 N5        -0.9327   -18.1198    14.4622 N.2        1 BB1          0.0000
     6 C6        -0.0692   -17.3437    13.8662 C.2        1 BB1          0.0000
     7 C7        -0.3906   -16.3270    12.8012 C.3        1 BB1          0.0000
     8 C8        -0.0198   -16.8918    11.4284 C.3        1 BB1          0.0000
     9 C9        -0.9949   -18.0124    11.0562 C.3        1 BB1          0.0000
    10 C10       -0.6639   -18.5172     9.6488 C.3        1 BB1          0.0000
    11 C11       -0.7236   -17.3461     8.6657 C.3        1 BB1          0.0000
    12 N12        0.2495   -16.3208     9.0608 N.am       1 BB1          0.0000
    13 C13       -0.1034   -15.7809    10.3794 C.3        1 BB1          0.0000
    14 H14        2.8621   -17.5200    13.1314 H          1 BB1          0.0000
    15 H15        2.2097   -15.9421    13.6339 H          1 BB1          0.0000
    16 H16        3.1016   -16.9486    14.8000 H          1 BB1          0.0000
    17 H17        1.8064   -19.0345    15.8898 H          1 BB1          0.0000
    18 H18       -0.7479   -19.6313    15.9949 H          1 BB1          0.0000
    19 H19       -1.4564   -16.1004    12.8251 H          1 BB1          0.0000
    20 H20        0.1788   -15.4160    12.9852 H          1 BB1          0.0000
    21 H21        0.9951   -17.2880    11.4600 H          1 BB1          0.0000
    22 H22       -0.8986   -18.8312    11.7692 H          1 BB1          0.0000
    23 H23       -2.0152   -17.6291    11.0754 H          1 BB1          0.0000
    24 H24        0.3378   -18.9470     9.6426 H          1 BB1          0.0000
    25 H25       -1.3884   -19.2766     9.3548 H          1 BB1          0.0000
    26 H26       -0.4886   -17.7021     7.6627 H          1 BB1          0.0000
    27 H27       -1.7257   -16.9173     8.6726 H          1 BB1          0.0000
    28 H28       -1.1187   -15.3854    10.3497 H          1 BB1          0.0000
    29 H29        0.5895   -14.9814    10.6415 H          1 BB1          0.0000
    30 C2         0.8004   -14.8911    10.7774 C.2        2 BB2          0.0000
    31 O3         0.0117   -15.5813    11.4007 O.2        2 BB2          0.0000
    32 C4         0.3644   -14.2102     9.5059 C.3        2 BB2          0.0000
    33 C5         1.4242   -14.2481     8.3921 C.3        2 BB2          0.0000
    34 C6         1.0198   -12.8008     8.0660 C.3        2 BB2          0.0000
    35 C7         0.5555   -12.6843     9.5274 C.3        2 BB2          0.0000
    36 C8        -0.7309   -11.9171     9.6928 C.ar       2 BB2          0.0000
    37 C9        -1.9103   -12.4281     9.1855 C.ar       2 BB2          0.0000
    38 C10       -3.0908   -11.7247     9.3363 C.ar       2 BB2          0.0000
    39 C11       -3.0929   -10.5086     9.9959 C.ar       2 BB2          0.0000
    40 Cl12      -4.5761    -9.6265    10.1853 Cl         2 BB2          0.0000
    41 C13       -1.9132    -9.9958    10.5049 C.ar       2 BB2          0.0000
    42 C14       -0.7321   -10.7026    10.3583 C.ar       2 BB2          0.0000
    43 F15        0.4206   -10.2031    10.8554 F          2 BB2          0.0000
    44 H16       -0.6264   -14.5228     9.1765 H          2 BB2          0.0000
    45 H17        2.4446   -14.3433     8.7634 H          2 BB2          0.0000
    46 H18        1.1950   -14.9556     7.5952 H          2 BB2          0.0000
    47 H19        1.8642   -12.1556     7.8234 H          2 BB2          0.0000
    48 H20        0.2078   -12.7268     7.3427 H          2 BB2          0.0000
    49 H21        1.3384   -12.3520    10.2091 H          2 BB2          0.0000
    50 H22       -1.9097   -13.3774     8.6703 H          2 BB2          0.0000
    51 H23       -4.0119   -12.1247     8.9388 H          2 BB2          0.0000
    52 H24       -1.9145    -9.0466    11.0198 H          2 BB2          0.0000
@<TRIPOS>BOND
     1      1      2 1
     2      1     14 1
     3      1     15 1
     4      1     16 1
     5      2      3 1
     6      2      6 1
     7      3      4 2
     8      3     17 1
     9      4      5 1
    10      4     18 1
    11      5      6 2
    12      6      7 1
    13      7      8 1
    14      7     19 1
    15      7     20 1
    16      8      9 1
    17      8     13 1
    18      8     21 1
    19      9     10 1
    20      9     22 1
    21      9     23 1
    22     10     11 1
    23     10     24 1
    24     10     25 1
    25     11     12 1
    26     11     26 1
    27     11     27 1
    28     12     13 1
    29     13     28 1
    30     13     29 1
    31     30     31 2
    32     30     32 1
    33     32     33 1
    34     32     35 1
    35     32     44 1
    36     33     34 1
    37     33     45 1
    38     33     46 1
    39     34     35 1
    40     34     47 1
    41     34     48 1
    42     35     36 1
    43     35     49 1
    44     36     37 ar
    45     36     42 ar
    46     37     38 ar
    47     37     50 1
    48     38     39 ar
    49     38     51 1
    50     39     40 1
    51     39     41 ar
    52     41     42 ar
    53     41     52 1
    54     42     43 1
    55     12     30 am
@<TRIPOS>SUBSTRUCTURE
     1 BB1          12
     2 BB2          30
@<TRIPOS>MOLECULE
EN300-98433_i002_EN300-222254_i002_15_7_1
  52   55   2   0   0
SMALL
USER_CHARGES
@<TRIPOS>ATOM
     1 C1         2.4138   -16.9636    13.9545 C.3        1 BB1          0.0000
     2 N2         1.1613   -17.6091    14.3554 N.pl3      1 BB1          0.0000
     3 C3         1.0187   -18.5897    15.2997 C.2        1 BB1          0.0000
     4 C4        -0.2922   -18.8937    15.3510 C.2        1 BB1          0.0000
     5 N5        -0.9327   -18.1198    14.4622 N.2        1 BB1          0.0000
     6 C6        -0.0692   -17.3437    13.8662 C.2        1 BB1          0.0000
     7 C7        -0.3906   -16.3270    12.8012 C.3        1 BB1          0.0000
     8 C8        -0.0198   -16.8918    11.4284 C.3        1 BB1          0.0000
     9 C9        -0.9949   -18.0124    11.0562 C.3        1 BB1          0.0000
    10 C10       -0.6639   -18.5172     9.6488 C.3        1 BB1          0.0000
    11 C11       -0.7236   -17.3461     8.6657 C.3        1 BB1          0.0000
    12 N12        0.2495   -16.3208     9.0608 N.am       1 BB1          0.0000
    13 C13       -0.1034   -15.7809    10.3794 C.3        1 BB1          0.0000
    14 H14        2.8621   -17.5200    13.1314 H          1 BB1          0.0000
    15 H15        2.2097   -15.9421    13.6339 H          1 BB1          0.0000
    16 H16        3.1016   -16.9486    14.8000 H          1 BB1          0.0000
    17 H17        1.8064   -19.0345    15.8898 H          1 BB1          0.0000
    18 H18       -0.7479   -19.6313    15.9949 H          1 BB1          0.0000
    19 H19       -1.4564   -16.1004    12.8251 H          1 BB1          0.0000
    20 H20        0.1788   -15.4160    12.9852 H          1 BB1          0.0000
    21 H21        0.9951   -17.2880    11.4600 H          1 BB1          0.0000
    22 H22       -0.8986   -18.8312    11.7692 H          1 BB1          0.0000
    23 H23       -2.0152   -17.6291    11.0754 H          1 BB1          0.0000
    24 H24        0.3378   -18.9470     9.6426 H          1 BB1          0.0000
    25 H25       -1.3884   -19.2766     9.3548 H          1 BB1          0.0000
    26 H26       -0.4886   -17.7021     7.6627 H          1 BB1          0.0000
    27 H27       -1.7257   -16.9173     8.6726 H          1 BB1          0.0000
    28 H28       -1.1187   -15.3854    10.3497 H          1 BB1          0.0000
    29 H29        0.5895   -14.9814    10.6415 H          1 BB1          0.0000
    30 O1         1.0761   -15.2604    11.4874 O.2        2 BB2          0.0000
    31 C2         0.0691   -14.5794    11.3943 C.2        2 BB2          0.0000
    32 C4        -0.3286   -14.0010    10.0609 C.3        2 BB2          0.0000
    33 C5         0.7881   -14.0614     9.0053 C.3        2 BB2          0.0000
    34 C6         0.3404   -12.6575     8.5654 C.3        2 BB2          0.0000
    35 C7        -0.2035   -12.4698     9.9915 C.3        2 BB2          0.0000
    36 C8        -1.5280   -11.7529    10.0428 C.ar       2 BB2          0.0000
    37 C9        -2.6243   -12.2791     9.3866 C.ar       2 BB2          0.0000
    38 C10       -3.8397   -11.6218     9.4328 C.ar       2 BB2          0.0000
    39 C11       -3.9599   -10.4369    10.1366 C.ar       2 BB2          0.0000
    40 Cl12      -5.4867    -9.6127    10.1944 Cl         2 BB2          0.0000
    41 C13       -2.8635    -9.9090    10.7946 C.ar       2 BB2          0.0000
    42 C14       -1.6479   -10.5698    10.7526 C.ar       2 BB2          0.0000
    43 F15       -0.5765   -10.0555    11.3951 F          2 BB2          0.0000
    44 H16       -1.2870   -14.3786     9.7046 H          2 BB2          0.0000
    45 H17        1.7910   -14.0862     9.4316 H          2 BB2          0.0000
    46 H18        0.6306   -14.8277     8.2463 H          2 BB2          0.0000
    47 H19        1.1683   -11.9913     8.3226 H          2 BB2          0.0000
    48 H20       -0.4354   -12.6666     7.7998 H          2 BB2          0.0000
    49 H21        0.5283   -12.0595    10.6874 H          2 BB2          0.0000
    50 H22       -2.5316   -13.2041     8.8369 H          2 BB2          0.0000
    51 H23       -4.6958   -12.0336     8.9190 H          2 BB2          0.0000
    52 H24       -2.9569    -8.9840    11.3440 H          2 BB2          0.0000
@<TRIPOS>BOND
     1      1      2 1
     2      1     14 1
     3      1     15 1
     4      1     16 1
     5      2      3 1
     6      2      6 1
     7      3      4 2
     8      3     17 1
     9      4      5 1
    10      4     18 1
    11      5      6 2
    12      6      7 1
    13      7      8 1
    14      7     19 1
    15      7     20 1
    16      8      9 1
    17      8     13 1
    18      8     21 1
    19      9     10 1
    20      9     22 1
    21      9     23 1
    22     10     11 1
    23     10     24 1
    24     10     25 1
    25     11     12 1
    26     11     26 1
    27     11     27 1
    28     12     13 1
    29     13     28 1
    30     13     29 1
    31     30     31 2
    32     31     32 1
    33     32     33 1
    34     32     35 1
    35     32     44 1
    36     33     34 1
    37     33     45 1
    38     33     46 1
    39     34     35 1
    40     34     47 1
    41     34     48 1
    42     35     36 1
    43     35     49 1
    44     36     37 ar
    45     36     42 ar
    46     37     38 ar
    47     37     50 1
    48     38     39 ar
    49     38     51 1
    50     39     40 1
    51     39     41 ar
    52     41     42 ar
    53     41     52 1
    54     42     43 1
    55     12     31 am
@<TRIPOS>SUBSTRUCTURE
     1 BB1          12
     2 BB2          31
@<TRIPOS>MOLECULE
EN300-98433_i002_EN300-306118_i001_15_10_1
  51   54   2   0   0
SMALL
USER_CHARGES
@<TRIPOS>ATOM
     1 C1         2.4138   -16.9636    13.9545 C.3        1 BB1          0.0000
     2 N2         1.1613   -17.6091    14.3554 N.pl3      1 BB1          0.0000
     3 C3         1.0187   -18.5897    15.2997 C.2        1 BB1          0.0000
     4 C4        -0.2922   -18.8937    15.3510 C.2        1 BB1          0.0000
     5 N5        -0.9327   -18.1198    14.4622 N.2        1 BB1          0.0000
     6 C6        -0.0692   -17.3437    13.8662 C.2        1 BB1          0.0000
     7 C7        -0.3906   -16.3270    12.8012 C.3        1 BB1          0.0000
     8 C8        -0.0198   -16.8918    11.4284 C.3        1 BB1          0.0000
     9 C9        -0.9949   -18.0124    11.0562 C.3        1 BB1          0.0000
    10 C10       -0.6639   -18.5172     9.6488 C.3        1 BB1          0.0000
    11 C11       -0.7236   -17.3461     8.6657 C.3        1 BB1          0.0000
    12 N12        0.2495   -16.3208     9.0608 N.am       1 BB1          0.0000
    13 C13       -0.1034   -15.7809    10.3794 C.3        1 BB1          0.0000
    14 H14        2.8621   -17.5200    13.1314 H          1 BB1          0.0000
    15 H15        2.2097   -15.9421    13.6339 H          1 BB1          0.0000
    16 H16        3.1016   -16.9486    14.8000 H          1 BB1          0.0000
    17 H17        1.8064   -19.0345    15.8898 H          1 BB1          0.0000
    18 H18       -0.7479   -19.6313    15.9949 H          1 BB1          0.0000
    19 H19       -1.4564   -16.1004    12.8251 H          1 BB1          0.0000
    20 H20        0.1788   -15.4160    12.9852 H          1 BB1          0.0000
    21 H21        0.9951   -17.2880    11.4600 H          1 BB1          0.0000
    22 H22       -0.8986   -18.8312    11.7692 H          1 BB1          0.0000
    23 H23       -2.0152   -17.6291    11.0754 H          1 BB1          0.0000
    24 H24        0.3378   -18.9470     9.6426 H          1 BB1          0.0000
    25 H25       -1.3884   -19.2766     9.3548 H          1 BB1          0.0000
    26 H26       -0.4886   -17.7021     7.6627 H          1 BB1          0.0000
    27 H27       -1.7257   -16.9173     8.6726 H          1 BB1          0.0000
    28 H28       -1.1187   -15.3854    10.3497 H          1 BB1          0.0000
    29 H29        0.5895   -14.9814    10.6415 H          1 BB1          0.0000
    30 C2         0.1195   -14.4038    10.7566 C.2        2 BB2          0.0000
    31 O3         0.6856   -15.3919    11.2023 O.2        2 BB2          0.0000
    32 C4         0.4114   -13.9416     9.3863 C.ar       2 BB2          0.0000
    33 C5         0.5717   -14.8674     8.3525 C.ar       2 BB2          0.0000
    34 C6         0.8445   -14.4280     7.0737 C.ar       2 BB2          0.0000
    35 C7         0.9599   -13.0739     6.8139 C.ar       2 BB2          0.0000
    36 C8         0.8024   -12.1509     7.8331 C.ar       2 BB2          0.0000
    37 C9         0.5231   -12.5754     9.1151 C.ar       2 BB2          0.0000
    38 C10        0.3514   -11.5687    10.2234 C.3        2 BB2          0.0000
    39 N11       -1.0436   -11.1231    10.2665 N.pl3      2 BB2          0.0000
    40 C12       -1.4690    -9.8410    10.1885 C.2        2 BB2          0.0000
    41 C13       -2.8194    -9.8863    10.2682 C.2        2 BB2          0.0000
    42 N14       -3.1497   -11.1769    10.3896 N.2        2 BB2          0.0000
    43 N15       -2.0753   -11.8843    10.3797 N.2        2 BB2          0.0000
    44 H16        0.4826   -15.9247     8.5541 H          2 BB2          0.0000
    45 H17        0.9688   -15.1425     6.2735 H          2 BB2          0.0000
    46 H18        1.1744   -12.7356     5.8108 H          2 BB2          0.0000
    47 H19        0.8941   -11.0955     7.6231 H          2 BB2          0.0000
    48 H20        0.6156   -12.0283    11.1758 H          2 BB2          0.0000
    49 H21        1.0008   -10.7127    10.0405 H          2 BB2          0.0000
    50 H22       -0.8546    -8.9590    10.0839 H          2 BB2          0.0000
    51 H23       -3.4970    -9.0458    10.2398 H          2 BB2          0.0000
@<TRIPOS>BOND
     1      1      2 1
     2      1     14 1
     3      1     15 1
     4      1     16 1
     5      2      3 1
     6      2      6 1
     7      3      4 2
     8      3     17 1
     9      4      5 1
    10      4     18 1
    11      5      6 2
    12      6      7 1
    13      7      8 1
    14      7     19 1
    15      7     20 1
    16      8      9 1
    17      8     13 1
    18      8     21 1
    19      9     10 1
    20      9     22 1
    21      9     23 1
    22     10     11 1
    23     10     24 1
    24     10     25 1
    25     11     12 1
    26     11     26 1
    27     11     27 1
    28     12     13 1
    29     13     28 1
    30     13     29 1
    31     30     31 2
    32     30     32 1
    33     32     33 ar
    34     32     37 ar
    35     33     34 ar
    36     33     44 1
    37     34     35 ar
    38     34     45 1
    39     35     36 ar
    40     35     46 1
    41     36     37 ar
    42     36     47 1
    43     37     38 1
    44     38     39 1
    45     38     48 1
    46     38     49 1
    47     39     40 1
    48     39     43 1
    49     40     41 2
    50     40     50 1
    51     41     42 1
    52     41     51 1
    53     42     43 2
    54     12     30 am
@<TRIPOS>SUBSTRUCTURE
     1 BB1          12
     2 BB2          30
@<TRIPOS>MOLECULE
EN300-98433_i002_EN300-306118_i001_15_13_1
  51   54   2   0   0
SMALL
USER_CHARGES
@<TRIPOS>ATOM
     1 C1         2.4138   -16.9636    13.9545 C.3        1 BB1          0.0000
     2 N2         1.1613   -17.6091    14.3554 N.pl3      1 BB1          0.0000
     3 C3         1.0187   -18.5897    15.2997 C.2        1 BB1          0.0000
     4 C4        -0.2922   -18.8937    15.3510 C.2        1 BB1          0.0000
     5 N5        -0.9327   -18.1198    14.4622 N.2        1 BB1          0.0000
     6 C6        -0.0692   -17.3437    13.8662 C.2        1 BB1          0.0000
     7 C7        -0.3906   -16.3270    12.8012 C.3        1 BB1          0.0000
     8 C8        -0.0198   -16.8918    11.4284 C.3        1 BB1          0.0000
     9 C9        -0.9949   -18.0124    11.0562 C.3        1 BB1          0.0000
    10 C10       -0.6639   -18.5172     9.6488 C.3        1 BB1          0.0000
    11 C11       -0.7236   -17.3461     8.6657 C.3        1 BB1          0.0000
    12 N12        0.2495   -16.3208     9.0608 N.am       1 BB1          0.0000
    13 C13       -0.1034   -15.7809    10.3794 C.3        1 BB1          0.0000
    14 H14        2.8621   -17.5200    13.1314 H          1 BB1          0.0000
    15 H15        2.2097   -15.9421    13.6339 H          1 BB1          0.0000
    16 H16        3.1016   -16.9486    14.8000 H          1 BB1          0.0000
    17 H17        1.8064   -19.0345    15.8898 H          1 BB1          0.0000
    18 H18       -0.7479   -19.6313    15.9949 H          1 BB1          0.0000
    19 H19       -1.4564   -16.1004    12.8251 H          1 BB1          0.0000
    20 H20        0.1788   -15.4160    12.9852 H          1 BB1          0.0000
    21 H21        0.9951   -17.2880    11.4600 H          1 BB1          0.0000
    22 H22       -0.8986   -18.8312    11.7692 H          1 BB1          0.0000
    23 H23       -2.0152   -17.6291    11.0754 H          1 BB1          0.0000
    24 H24        0.3378   -18.9470     9.6426 H          1 BB1          0.0000
    25 H25       -1.3884   -19.2766     9.3548 H          1 BB1          0.0000
    26 H26       -0.4886   -17.7021     7.6627 H          1 BB1          0.0000
    27 H27       -1.7257   -16.9173     8.6726 H          1 BB1          0.0000
    28 H28       -1.1187   -15.3854    10.3497 H          1 BB1          0.0000
    29 H29        0.5895   -14.9814    10.6415 H          1 BB1          0.0000
    30 O1        -0.3061   -15.6175    10.8075 O.2        2 BB2          0.0000
    31 C2        -0.2542   -14.4147    11.0220 C.2        2 BB2          0.0000
    32 C4        -0.0888   -13.4717     9.8995 C.ar       2 BB2          0.0000
    33 C5         0.7755   -13.7793     8.8460 C.ar       2 BB2          0.0000
    34 C6         0.9252   -12.8927     7.7999 C.ar       2 BB2          0.0000
    35 C7         0.2221   -11.7011     7.7926 C.ar       2 BB2          0.0000
    36 C8        -0.6359   -11.3897     8.8329 C.ar       2 BB2          0.0000
    37 C9        -0.8003   -12.2692     9.8823 C.ar       2 BB2          0.0000
    38 C10       -1.7356   -11.9285    11.0138 C.3        2 BB2          0.0000
    39 N11       -2.8881   -11.1914    10.4898 N.pl3      2 BB2          0.0000
    40 C12       -3.9824   -11.7380     9.9113 C.2        2 BB2          0.0000
    41 C13       -4.7891   -10.7036     9.5780 C.2        2 BB2          0.0000
    42 N14       -4.1572    -9.5894     9.9637 N.2        2 BB2          0.0000
    43 N15       -3.0361    -9.9129    10.5053 N.2        2 BB2          0.0000
    44 H16        1.3254   -14.7088     8.8509 H          2 BB2          0.0000
    45 H17        1.5931   -13.1291     6.9848 H          2 BB2          0.0000
    46 H18        0.3438   -11.0104     6.9712 H          2 BB2          0.0000
    47 H19       -1.1813   -10.4576     8.8207 H          2 BB2          0.0000
    48 H20       -2.0780   -12.8466    11.4912 H          2 BB2          0.0000
    49 H21       -1.2121   -11.3124    11.7448 H          2 BB2          0.0000
    50 H22       -4.1735   -12.7883     9.7481 H          2 BB2          0.0000
    51 H23       -5.7532   -10.7654     9.0952 H          2 BB2          0.0000
@<TRIPOS>BOND
     1      1      2 1
     2      1     14 1
     3      1     15 1
     4      1     16 1
     5      2      3 1
     6      2      6 1
     7      3      4 2
     8      3     17 1
     9      4      5 1
    10      4     18 1
    11      5      6 2
    12      6      7 1
    13      7      8 1
    14      7     19 1
    15      7     20 1
    16      8      9 1
    17      8     13 1
    18      8     21 1
    19      9     10 1
    20      9     22 1
    21      9     23 1
    22     10     11 1
    23     10     24 1
    24     10     25 1
    25     11     12 1
    26     11     26 1
    27     11     27 1
    28     12     13 1
    29     13     28 1
    30     13     29 1
    31     30     31 2
    32     31     32 1
    33     32     33 ar
    34     32     37 ar
    35     33     34 ar
    36     33     44 1
    37     34     35 ar
    38     34     45 1
    39     35     36 ar
    40     35     46 1
    41     36     37 ar
    42     36     47 1
    43     37     38 1
    44     38     39 1
    45     38     48 1
    46     38     49 1
    47     39     40 1
    48     39     43 1
    49     40     41 2
    50     40     50 1
    51     41     42 1
    52     41     51 1
    53     42     43 2
    54     12     31 am
@<TRIPOS>SUBSTRUCTURE
     1 BB1          12
     2 BB2          31
@<TRIPOS>MOLECULE
EN300-98433_i002_EN300-306118_i001_15_14_1
  51   54   2   0   0
SMALL
USER_CHARGES
@<TRIPOS>ATOM
     1 C1         2.4138   -16.9636    13.9545 C.3        1 BB1          0.0000
     2 N2         1.1613   -17.6091    14.3554 N.pl3      1 BB1          0.0000
     3 C3         1.0187   -18.5897    15.2997 C.2        1 BB1          0.0000
     4 C4        -0.2922   -18.8937    15.3510 C.2        1 BB1          0.0000
     5 N5        -0.9327   -18.1198    14.4622 N.2        1 BB1          0.0000
     6 C6        -0.0692   -17.3437    13.8662 C.2        1 BB1          0.0000
     7 C7        -0.3906   -16.3270    12.8012 C.3        1 BB1          0.0000
     8 C8        -0.0198   -16.8918    11.4284 C.3        1 BB1          0.0000
     9 C9        -0.9949   -18.0124    11.0562 C.3        1 BB1          0.0000
    10 C10       -0.6639   -18.5172     9.6488 C.3        1 BB1          0.0000
    11 C11       -0.7236   -17.3461     8.6657 C.3        1 BB1          0.0000
    12 N12        0.2495   -16.3208     9.0608 N.am       1 BB1          0.0000
    13 C13       -0.1034   -15.7809    10.3794 C.3        1 BB1          0.0000
    14 H14        2.8621   -17.5200    13.1314 H          1 BB1          0.0000
    15 H15        2.2097   -15.9421    13.6339 H          1 BB1          0.0000
    16 H16        3.1016   -16.9486    14.8000 H          1 BB1          0.0000
    17 H17        1.8064   -19.0345    15.8898 H          1 BB1          0.0000
    18 H18       -0.7479   -19.6313    15.9949 H          1 BB1          0.0000
    19 H19       -1.4564   -16.1004    12.8251 H          1 BB1          0.0000
    20 H20        0.1788   -15.4160    12.9852 H          1 BB1          0.0000
    21 H21        0.9951   -17.2880    11.4600 H          1 BB1          0.0000
    22 H22       -0.8986   -18.8312    11.7692 H          1 BB1          0.0000
    23 H23       -2.0152   -17.6291    11.0754 H          1 BB1          0.0000
    24 H24        0.3378   -18.9470     9.6426 H          1 BB1          0.0000
    25 H25       -1.3884   -19.2766     9.3548 H          1 BB1          0.0000
    26 H26       -0.4886   -17.7021     7.6627 H          1 BB1          0.0000
    27 H27       -1.7257   -16.9173     8.6726 H          1 BB1          0.0000
    28 H28       -1.1187   -15.3854    10.3497 H          1 BB1          0.0000
    29 H29        0.5895   -14.9814    10.6415 H          1 BB1          0.0000
    30 C2         0.2503   -14.8942     9.5067 C.2        2 BB2          0.0000
    31 O3        -0.1008   -15.9875     9.0861 O.2        2 BB2          0.0000
    32 C4         0.4361   -13.7687     8.5711 C.ar       2 BB2          0.0000
    33 C5         1.0712   -13.9736     7.3438 C.ar       2 BB2          0.0000
    34 C6         1.2414   -12.9166     6.4741 C.ar       2 BB2          0.0000
    35 C7         0.7852   -11.6556     6.8150 C.ar       2 BB2          0.0000
    36 C8         0.1551   -11.4451     8.0291 C.ar       2 BB2          0.0000
    37 C9        -0.0276   -12.4937     8.9058 C.ar       2 BB2          0.0000
    38 C10       -0.7145   -12.2625    10.2272 C.3        2 BB2          0.0000
    39 N11       -1.8406   -11.3447    10.0382 N.pl3      2 BB2          0.0000
    40 C12       -3.1396   -11.6193    10.2990 C.2        2 BB2          0.0000
    41 C13       -3.8324   -10.5002     9.9835 C.2        2 BB2          0.0000
    42 N14       -2.9351    -9.6073     9.5507 N.2        2 BB2          0.0000
    43 N15       -1.7637   -10.1366     9.6005 N.2        2 BB2          0.0000
    44 H16        1.4284   -14.9573     7.0769 H          2 BB2          0.0000
    45 H17        1.7323   -13.0735     5.5250 H          2 BB2          0.0000
    46 H18        0.9219   -10.8314     6.1303 H          2 BB2          0.0000
    47 H19       -0.1982   -10.4580     8.2887 H          2 BB2          0.0000
    48 H20       -1.0811   -13.2120    10.6171 H          2 BB2          0.0000
    49 H21       -0.0068   -11.8286    10.9335 H          2 BB2          0.0000
    50 H22       -3.5426   -12.5453    10.6817 H          2 BB2          0.0000
    51 H23       -4.8996   -10.3563    10.0648 H          2 BB2          0.0000
@<TRIPOS>BOND
     1      1      2 1
     2      1     14 1
     3      1     15 1
     4      1     16 1
     5      2      3 1
     6      2      6 1
     7      3      4 2
     8      3     17 1
     9      4      5 1
    10      4     18 1
    11      5      6 2
    12      6      7 1
    13      7      8 1
    14      7     19 1
    15      7     20 1
    16      8      9 1
    17      8     13 1
    18      8     21 1
    19      9     10 1
    20      9     22 1
    21      9     23 1
    22     10     11 1
    23     10     24 1
    24     10     25 1
    25     11     12 1
    26     11     26 1
    27     11     27 1
    28     12     13 1
    29     13     28 1
    30     13     29 1
    31     30     31 2
    32     30     32 1
    33     32     33 ar
    34     32     37 ar
    35     33     34 ar
    36     33     44 1
    37     34     35 ar
    38     34     45 1
    39     35     36 ar
    40     35     46 1
    41     36     37 ar
    42     36     47 1
    43     37     38 1
    44     38     39 1
    45     38     48 1
    46     38     49 1
    47     39     40 1
    48     39     43 1
    49     40     41 2
    50     40     50 1
    51     41     42 1
    52     41     51 1
    53     42     43 2
    54     12     30 am
@<TRIPOS>SUBSTRUCTURE
     1 BB1          12
     2 BB2          30
@<TRIPOS>MOLECULE
EN300-98433_i002_EN300-306118_i001_15_17_1
  51   54   2   0   0
SMALL
USER_CHARGES
@<TRIPOS>ATOM
     1 C1         2.4138   -16.9636    13.9545 C.3        1 BB1          0.0000
     2 N2         1.1613   -17.6091    14.3554 N.pl3      1 BB1          0.0000
     3 C3         1.0187   -18.5897    15.2997 C.2        1 BB1          0.0000
     4 C4        -0.2922   -18.8937    15.3510 C.2        1 BB1          0.0000
     5 N5        -0.9327   -18.1198    14.4622 N.2        1 BB1          0.0000
     6 C6        -0.0692   -17.3437    13.8662 C.2        1 BB1          0.0000
     7 C7        -0.3906   -16.3270    12.8012 C.3        1 BB1          0.0000
     8 C8        -0.0198   -16.8918    11.4284 C.3        1 BB1          0.0000
     9 C9        -0.9949   -18.0124    11.0562 C.3        1 BB1          0.0000
    10 C10       -0.6639   -18.5172     9.6488 C.3        1 BB1          0.0000
    11 C11       -0.7236   -17.3461     8.6657 C.3        1 BB1          0.0000
    12 N12        0.2495   -16.3208     9.0608 N.am       1 BB1          0.0000
    13 C13       -0.1034   -15.7809    10.3794 C.3        1 BB1          0.0000
    14 H14        2.8621   -17.5200    13.1314 H          1 BB1          0.0000
    15 H15        2.2097   -15.9421    13.6339 H          1 BB1          0.0000
    16 H16        3.1016   -16.9486    14.8000 H          1 BB1          0.0000
    17 H17        1.8064   -19.0345    15.8898 H          1 BB1          0.0000
    18 H18       -0.7479   -19.6313    15.9949 H          1 BB1          0.0000
    19 H19       -1.4564   -16.1004    12.8251 H          1 BB1          0.0000
    20 H20        0.1788   -15.4160    12.9852 H          1 BB1          0.0000
    21 H21        0.9951   -17.2880    11.4600 H          1 BB1          0.0000
    22 H22       -0.8986   -18.8312    11.7692 H          1 BB1          0.0000
    23 H23       -2.0152   -17.6291    11.0754 H          1 BB1          0.0000
    24 H24        0.3378   -18.9470     9.6426 H          1 BB1          0.0000
    25 H25       -1.3884   -19.2766     9.3548 H          1 BB1          0.0000
    26 H26       -0.4886   -17.7021     7.6627 H          1 BB1          0.0000
    27 H27       -1.7257   -16.9173     8.6726 H          1 BB1          0.0000
    28 H28       -1.1187   -15.3854    10.3497 H          1 BB1          0.0000
    29 H29        0.5895   -14.9814    10.6415 H          1 BB1          0.0000
    30 O1        -0.1025   -16.2314     9.1013 O.2        2 BB2          0.0000
    31 C2         0.1377   -15.1500     9.6193 C.2        2 BB2          0.0000
    32 C4         0.3036   -13.9496     8.7778 C.ar       2 BB2          0.0000
    33 C5         0.9945   -14.0317     7.5664 C.ar       2 BB2          0.0000
    34 C6         1.1457   -12.9052     6.7847 C.ar       2 BB2          0.0000
    35 C7         0.6154   -11.6960     7.1982 C.ar       2 BB2          0.0000
    36 C8        -0.0703   -11.6071     8.3972 C.ar       2 BB2          0.0000
    37 C9        -0.2347   -12.7263     9.1858 C.ar       2 BB2          0.0000
    38 C10       -0.9821   -12.6276    10.4908 C.3        2 BB2          0.0000
    39 N11       -2.0934   -11.6839    10.3468 N.pl3      2 BB2          0.0000
    40 C12       -1.9923   -10.3346    10.3447 C.2        2 BB2          0.0000
    41 C13       -3.2511    -9.8624    10.1881 C.2        2 BB2          0.0000
    42 N14       -4.0501   -10.9319    10.1033 N.2        2 BB2          0.0000
    43 N15       -3.3329   -11.9958    10.1953 N.2        2 BB2          0.0000
    44 H16        1.4095   -14.9748     7.2428 H          2 BB2          0.0000
    45 H17        1.6796   -12.9671     5.8480 H          2 BB2          0.0000
    46 H18        0.7375   -10.8170     6.5825 H          2 BB2          0.0000
    47 H19       -0.4813   -10.6599     8.7138 H          2 BB2          0.0000
    48 H20       -1.3716   -13.6090    10.7615 H          2 BB2          0.0000
    49 H21       -0.3064   -12.2770    11.2708 H          2 BB2          0.0000
    50 H22       -1.0890    -9.7516    10.4475 H          2 BB2          0.0000
    51 H23       -3.5514    -8.8261    10.1412 H          2 BB2          0.0000
@<TRIPOS>BOND
     1      1      2 1
     2      1     14 1
     3      1     15 1
     4      1     16 1
     5      2      3 1
     6      2      6 1
     7      3      4 2
     8      3     17 1
     9      4      5 1
    10      4     18 1
    11      5      6 2
    12      6      7 1
    13      7      8 1
    14      7     19 1
    15      7     20 1
    16      8      9 1
    17      8     13 1
    18      8     21 1
    19      9     10 1
    20      9     22 1
    21      9     23 1
    22     10     11 1
    23     10     24 1
    24     10     25 1
    25     11     12 1
    26     11     26 1
    27     11     27 1
    28     12     13 1
    29     13     28 1
    30     13     29 1
    31     30     31 2
    32     31     32 1
    33     32     33 ar
    34     32     37 ar
    35     33     34 ar
    36     33     44 1
    37     34     35 ar
    38     34     45 1
    39     35     36 ar
    40     35     46 1
    41     36     37 ar
    42     36     47 1
    43     37     38 1
    44     38     39 1
    45     38     48 1
    46     38     49 1
    47     39     40 1
    48     39     43 1
    49     40     41 2
    50     40     50 1
    51     41     42 1
    52     41     51 1
    53     42     43 2
    54     12     31 am
@<TRIPOS>SUBSTRUCTURE
     1 BB1          12
     2 BB2          31
@<TRIPOS>MOLECULE
EN300-98433_i002_EN300-306118_i001_15_2_1
  51   54   2   0   0
SMALL
USER_CHARGES
@<TRIPOS>ATOM
     1 C1         2.4138   -16.9636    13.9545 C.3        1 BB1          0.0000
     2 N2         1.1613   -17.6091    14.3554 N.pl3      1 BB1          0.0000
     3 C3         1.0187   -18.5897    15.2997 C.2        1 BB1          0.0000
     4 C4        -0.2922   -18.8937    15.3510 C.2        1 BB1          0.0000
     5 N5        -0.9327   -18.1198    14.4622 N.2        1 BB1          0.0000
     6 C6        -0.0692   -17.3437    13.8662 C.2        1 BB1          0.0000
     7 C7        -0.3906   -16.3270    12.8012 C.3        1 BB1          0.0000
     8 C8        -0.0198   -16.8918    11.4284 C.3        1 BB1          0.0000
     9 C9        -0.9949   -18.0124    11.0562 C.3        1 BB1          0.0000
    10 C10       -0.6639   -18.5172     9.6488 C.3        1 BB1          0.0000
    11 C11       -0.7236   -17.3461     8.6657 C.3        1 BB1          0.0000
    12 N12        0.2495   -16.3208     9.0608 N.am       1 BB1          0.0000
    13 C13       -0.1034   -15.7809    10.3794 C.3        1 BB1          0.0000
    14 H14        2.8621   -17.5200    13.1314 H          1 BB1          0.0000
    15 H15        2.2097   -15.9421    13.6339 H          1 BB1          0.0000
    16 H16        3.1016   -16.9486    14.8000 H          1 BB1          0.0000
    17 H17        1.8064   -19.0345    15.8898 H          1 BB1          0.0000
    18 H18       -0.7479   -19.6313    15.9949 H          1 BB1          0.0000
    19 H19       -1.4564   -16.1004    12.8251 H          1 BB1          0.0000
    20 H20        0.1788   -15.4160    12.9852 H          1 BB1          0.0000
    21 H21        0.9951   -17.2880    11.4600 H          1 BB1          0.0000
    22 H22       -0.8986   -18.8312    11.7692 H          1 BB1          0.0000
    23 H23       -2.0152   -17.6291    11.0754 H          1 BB1          0.0000
    24 H24        0.3378   -18.9470     9.6426 H          1 BB1          0.0000
    25 H25       -1.3884   -19.2766     9.3548 H          1 BB1          0.0000
    26 H26       -0.4886   -17.7021     7.6627 H          1 BB1          0.0000
    27 H27       -1.7257   -16.9173     8.6726 H          1 BB1          0.0000
    28 H28       -1.1187   -15.3854    10.3497 H          1 BB1          0.0000
    29 H29        0.5895   -14.9814    10.6415 H          1 BB1          0.0000
    30 O1        -0.3996   -15.0968    11.7939 O.2        2 BB2          0.0000
    31 C2         0.6326   -14.8679    11.1794 C.2        2 BB2          0.0000
    32 C4         0.5817   -14.1401     9.8971 C.ar       2 BB2          0.0000
    33 C5         1.3893   -14.5408     8.8300 C.ar       2 BB2          0.0000
    34 C6         1.3364   -13.8555     7.6340 C.ar       2 BB2          0.0000
    35 C7         0.4864   -12.7733     7.4900 C.ar       2 BB2          0.0000
    36 C8        -0.3166   -12.3706     8.5429 C.ar       2 BB2          0.0000
    37 C9        -0.2789   -13.0501     9.7423 C.ar       2 BB2          0.0000
    38 C10       -1.1546   -12.6104    10.8873 C.3        2 BB2          0.0000
    39 N11       -2.0673   -11.5601    10.4288 N.pl3      2 BB2          0.0000
    40 C12       -1.7295   -10.2775    10.1613 C.2        2 BB2          0.0000
    41 C13       -2.8693    -9.6610     9.7705 C.2        2 BB2          0.0000
    42 N14       -3.8360   -10.5845     9.8175 N.2        2 BB2          0.0000
    43 N15       -3.3272   -11.7003    10.2060 N.2        2 BB2          0.0000
    44 H16        2.0538   -15.3849     8.9414 H          2 BB2          0.0000
    45 H17        1.9603   -14.1641     6.8083 H          2 BB2          0.0000
    46 H18        0.4497   -12.2400     6.5515 H          2 BB2          0.0000
    47 H19       -0.9775   -11.5248     8.4234 H          2 BB2          0.0000
    48 H20       -1.7320   -13.4605    11.2504 H          2 BB2          0.0000
    49 H21       -0.5313   -12.2235    11.6935 H          2 BB2          0.0000
    50 H22       -0.7479    -9.8347    10.2433 H          2 BB2          0.0000
    51 H23       -2.9773    -8.6269     9.4786 H          2 BB2          0.0000
@<TRIPOS>BOND
     1      1      2 1
     2      1     14 1
     3      1     15 1
     4      1     16 1
     5      2      3 1
     6      2      6 1
     7      3      4 2
     8      3     17 1
     9      4      5 1
    10      4     18 1
    11      5      6 2
    12      6      7 1
    13      7      8 1
    14      7     19 1
    15      7     20 1
    16      8      9 1
    17      8     13 1
    18      8     21 1
    19      9     10 1
    20      9     22 1
    21      9     23 1
    22     10     11 1
    23     10     24 1
    24     10     25 1
    25     11     12 1
    26     11     26 1
    27     11     27 1
    28     12     13 1
    29     13     28 1
    30     13     29 1
    31     30     31 2
    32     31     32 1
    33     32     33 ar
    34     32     37 ar
    35     33     34 ar
    36     33     44 1
    37     34     35 ar
    38     34     45 1
    39     35     36 ar
    40     35     46 1
    41     36     37 ar
    42     36     47 1
    43     37     38 1
    44     38     39 1
    45     38     48 1
    46     38     49 1
    47     39     40 1
    48     39     43 1
    49     40     41 2
    50     40     50 1
    51     41     42 1
    52     41     51 1
    53     42     43 2
    54     12     31 am
@<TRIPOS>SUBSTRUCTURE
     1 BB1          12
     2 BB2          31
@<TRIPOS>MOLECULE
EN300-98433_i002_EN300-306118_i001_15_4_1
  51   54   2   0   0
SMALL
USER_CHARGES
@<TRIPOS>ATOM
     1 C1         2.4138   -16.9636    13.9545 C.3        1 BB1          0.0000
     2 N2         1.1613   -17.6091    14.3554 N.pl3      1 BB1          0.0000
     3 C3         1.0187   -18.5897    15.2997 C.2        1 BB1          0.0000
     4 C4        -0.2922   -18.8937    15.3510 C.2        1 BB1          0.0000
     5 N5        -0.9327   -18.1198    14.4622 N.2        1 BB1          0.0000
     6 C6        -0.0692   -17.3437    13.8662 C.2        1 BB1          0.0000
     7 C7        -0.3906   -16.3270    12.8012 C.3        1 BB1          0.0000
     8 C8        -0.0198   -16.8918    11.4284 C.3        1 BB1          0.0000
     9 C9        -0.9949   -18.0124    11.0562 C.3        1 BB1          0.0000
    10 C10       -0.6639   -18.5172     9.6488 C.3        1 BB1          0.0000
    11 C11       -0.7236   -17.3461     8.6657 C.3        1 BB1          0.0000
    12 N12        0.2495   -16.3208     9.0608 N.am       1 BB1          0.0000
    13 C13       -0.1034   -15.7809    10.3794 C.3        1 BB1          0.0000
    14 H14        2.8621   -17.5200    13.1314 H          1 BB1          0.0000
    15 H15        2.2097   -15.9421    13.6339 H          1 BB1          0.0000
    16 H16        3.1016   -16.9486    14.8000 H          1 BB1          0.0000
    17 H17        1.8064   -19.0345    15.8898 H          1 BB1          0.0000
    18 H18       -0.7479   -19.6313    15.9949 H          1 BB1          0.0000
    19 H19       -1.4564   -16.1004    12.8251 H          1 BB1          0.0000
    20 H20        0.1788   -15.4160    12.9852 H          1 BB1          0.0000
    21 H21        0.9951   -17.2880    11.4600 H          1 BB1          0.0000
    22 H22       -0.8986   -18.8312    11.7692 H          1 BB1          0.0000
    23 H23       -2.0152   -17.6291    11.0754 H          1 BB1          0.0000
    24 H24        0.3378   -18.9470     9.6426 H          1 BB1          0.0000
    25 H25       -1.3884   -19.2766     9.3548 H          1 BB1          0.0000
    26 H26       -0.4886   -17.7021     7.6627 H          1 BB1          0.0000
    27 H27       -1.7257   -16.9173     8.6726 H          1 BB1          0.0000
    28 H28       -1.1187   -15.3854    10.3497 H          1 BB1          0.0000
    29 H29        0.5895   -14.9814    10.6415 H          1 BB1          0.0000
    30 C2         0.0232   -14.5029    10.8440 C.2        2 BB2          0.0000
    31 O3         0.5964   -15.4713    11.3227 O.2        2 BB2          0.0000
    32 C4         0.1943   -14.1761     9.4156 C.ar       2 BB2          0.0000
    33 C5         0.2000   -15.1937     8.4585 C.ar       2 BB2          0.0000
    34 C6         0.3606   -14.8807     7.1247 C.ar       2 BB2          0.0000
    35 C7         0.5162   -13.5625     6.7340 C.ar       2 BB2          0.0000
    36 C8         0.5116   -12.5491     7.6766 C.ar       2 BB2          0.0000
    37 C9         0.3458   -12.8466     9.0128 C.ar       2 BB2          0.0000
    38 C10        0.3405   -11.7416    10.0376 C.3        2 BB2          0.0000
    39 N11       -0.8775   -10.9417     9.8869 N.pl3      2 BB2          0.0000
    40 C12       -1.9601   -10.9853    10.6975 C.2        2 BB2          0.0000
    41 C13       -2.8435   -10.0913    10.1954 C.2        2 BB2          0.0000
    42 N14       -2.2659    -9.5516     9.1162 N.2        2 BB2          0.0000
    43 N15       -1.0997   -10.0726     8.9638 N.2        2 BB2          0.0000
    44 H16        0.0794   -16.2231     8.7623 H          2 BB2          0.0000
    45 H17        0.3653   -15.6663     6.3837 H          2 BB2          0.0000
    46 H18        0.6423   -13.3234     5.6883 H          2 BB2          0.0000
    47 H19        0.6339   -11.5225     7.3644 H          2 BB2          0.0000
    48 H20        0.3700   -12.1736    11.0379 H          2 BB2          0.0000
    49 H21        1.2134   -11.1056     9.8906 H          2 BB2          0.0000
    50 H22       -2.0926   -11.6083    11.5697 H          2 BB2          0.0000
    51 H23       -3.8224    -9.8595    10.5883 H          2 BB2          0.0000
@<TRIPOS>BOND
     1      1      2 1
     2      1     14 1
     3      1     15 1
     4      1     16 1
     5      2      3 1
     6      2      6 1
     7      3      4 2
     8      3     17 1
     9      4      5 1
    10      4     18 1
    11      5      6 2
    12      6      7 1
    13      7      8 1
    14      7     19 1
    15      7     20 1
    16      8      9 1
    17      8     13 1
    18      8     21 1
    19      9     10 1
    20      9     22 1
    21      9     23 1
    22     10     11 1
    23     10     24 1
    24     10     25 1
    25     11     12 1
    26     11     26 1
    27     11     27 1
    28     12     13 1
    29     13     28 1
    30     13     29 1
    31     30     31 2
    32     30     32 1
    33     32     33 ar
    34     32     37 ar
    35     33     34 ar
    36     33     44 1
    37     34     35 ar
    38     34     45 1
    39     35     36 ar
    40     35     46 1
    41     36     37 ar
    42     36     47 1
    43     37     38 1
    44     38     39 1
    45     38     48 1
    46     38     49 1
    47     39     40 1
    48     39     43 1
    49     40     41 2
    50     40     50 1
    51     41     42 1
    52     41     51 1
    53     42     43 2
    54     12     30 am
@<TRIPOS>SUBSTRUCTURE
     1 BB1          12
     2 BB2          30
@<TRIPOS>MOLECULE
EN300-98433_i002_EN300-306118_i001_15_7_1
  51   54   2   0   0
SMALL
USER_CHARGES
@<TRIPOS>ATOM
     1 C1         2.4138   -16.9636    13.9545 C.3        1 BB1          0.0000
     2 N2         1.1613   -17.6091    14.3554 N.pl3      1 BB1          0.0000
     3 C3         1.0187   -18.5897    15.2997 C.2        1 BB1          0.0000
     4 C4        -0.2922   -18.8937    15.3510 C.2        1 BB1          0.0000
     5 N5        -0.9327   -18.1198    14.4622 N.2        1 BB1          0.0000
     6 C6        -0.0692   -17.3437    13.8662 C.2        1 BB1          0.0000
     7 C7        -0.3906   -16.3270    12.8012 C.3        1 BB1          0.0000
     8 C8        -0.0198   -16.8918    11.4284 C.3        1 BB1          0.0000
     9 C9        -0.9949   -18.0124    11.0562 C.3        1 BB1          0.0000
    10 C10       -0.6639   -18.5172     9.6488 C.3        1 BB1          0.0000
    11 C11       -0.7236   -17.3461     8.6657 C.3        1 BB1          0.0000
    12 N12        0.2495   -16.3208     9.0608 N.am       1 BB1          0.0000
    13 C13       -0.1034   -15.7809    10.3794 C.3        1 BB1          0.0000
    14 H14        2.8621   -17.5200    13.1314 H          1 BB1          0.0000
    15 H15        2.2097   -15.9421    13.6339 H          1 BB1          0.0000
    16 H16        3.1016   -16.9486    14.8000 H          1 BB1          0.0000
    17 H17        1.8064   -19.0345    15.8898 H          1 BB1          0.0000
    18 H18       -0.7479   -19.6313    15.9949 H          1 BB1          0.0000
    19 H19       -1.4564   -16.1004    12.8251 H          1 BB1          0.0000
    20 H20        0.1788   -15.4160    12.9852 H          1 BB1          0.0000
    21 H21        0.9951   -17.2880    11.4600 H          1 BB1          0.0000
    22 H22       -0.8986   -18.8312    11.7692 H          1 BB1          0.0000
    23 H23       -2.0152   -17.6291    11.0754 H          1 BB1          0.0000
    24 H24        0.3378   -18.9470     9.6426 H          1 BB1          0.0000
    25 H25       -1.3884   -19.2766     9.3548 H          1 BB1          0.0000
    26 H26       -0.4886   -17.7021     7.6627 H          1 BB1          0.0000
    27 H27       -1.7257   -16.9173     8.6726 H          1 BB1          0.0000
    28 H28       -1.1187   -15.3854    10.3497 H          1 BB1          0.0000
    29 H29        0.5895   -14.9814    10.6415 H          1 BB1          0.0000
    30 C2         0.3107   -14.7692    11.2595 C.2        2 BB2          0.0000
    31 O3         1.3333   -15.2930    11.6783 O.2        2 BB2          0.0000
    32 C4         0.2910   -14.1590     9.9165 C.ar       2 BB2          0.0000
    33 C5         0.9400   -14.7869     8.8506 C.ar       2 BB2          0.0000
    34 C6         0.9175   -14.2104     7.5976 C.ar       2 BB2          0.0000
    35 C7         0.2545   -13.0130     7.3953 C.ar       2 BB2          0.0000
    36 C8        -0.3907   -12.3851     8.4465 C.ar       2 BB2          0.0000
    37 C9        -0.3818   -12.9530     9.7032 C.ar       2 BB2          0.0000
    38 C10       -1.0854   -12.2680    10.8464 C.3        2 BB2          0.0000
    39 N11       -1.9001   -11.1660    10.3286 N.pl3      2 BB2          0.0000
    40 C12       -3.2480   -11.0736    10.4030 C.2        2 BB2          0.0000
    41 C13       -3.5794    -9.9055     9.8051 C.2        2 BB2          0.0000
    42 N14       -2.4331    -9.3478     9.3992 N.2        2 BB2          0.0000
    43 N15       -1.4563   -10.1169     9.7294 N.2        2 BB2          0.0000
    44 H16        1.4585   -15.7213     9.0074 H          2 BB2          0.0000
    45 H17        1.4188   -14.6947     6.7727 H          2 BB2          0.0000
    46 H18        0.2408   -12.5658     6.4122 H          2 BB2          0.0000
    47 H19       -0.9059   -11.4505     8.2813 H          2 BB2          0.0000
    48 H20       -1.7270   -12.9843    11.3596 H          2 BB2          0.0000
    49 H21       -0.3465   -11.8763    11.5454 H          2 BB2          0.0000
    50 H22       -3.9235   -11.7882    10.8496 H          2 BB2          0.0000
    51 H23       -4.5737    -9.5029     9.6797 H          2 BB2          0.0000
@<TRIPOS>BOND
     1      1      2 1
     2      1     14 1
     3      1     15 1
     4      1     16 1
     5      2      3 1
     6      2      6 1
     7      3      4 2
     8      3     17 1
     9      4      5 1
    10      4     18 1
    11      5      6 2
    12      6      7 1
    13      7      8 1
    14      7     19 1
    15      7     20 1
    16      8      9 1
    17      8     13 1
    18      8     21 1
    19      9     10 1
    20      9     22 1
    21      9     23 1
    22     10     11 1
    23     10     24 1
    24     10     25 1
    25     11     12 1
    26     11     26 1
    27     11     27 1
    28     12     13 1
    29     13     28 1
    30     13     29 1
    31     30     31 2
    32     30     32 1
    33     32     33 ar
    34     32     37 ar
    35     33     34 ar
    36     33     44 1
    37     34     35 ar
    38     34     45 1
    39     35     36 ar
    40     35     46 1
    41     36     37 ar
    42     36     47 1
    43     37     38 1
    44     38     39 1
    45     38     48 1
    46     38     49 1
    47     39     40 1
    48     39     43 1
    49     40     41 2
    50     40     50 1
    51     41     42 1
    52     41     51 1
    53     42     43 2
    54     12     30 am
@<TRIPOS>SUBSTRUCTURE
     1 BB1          12
     2 BB2          30
@<TRIPOS>MOLECULE
EN300-98433_i002_EN300-307464_i001_15_18_1
  46   48   2   0   0
SMALL
USER_CHARGES
@<TRIPOS>ATOM
     1 C1         2.4138   -16.9636    13.9545 C.3        1 BB1          0.0000
     2 N2         1.1613   -17.6091    14.3554 N.pl3      1 BB1          0.0000
     3 C3         1.0187   -18.5897    15.2997 C.2        1 BB1          0.0000
     4 C4        -0.2922   -18.8937    15.3510 C.2        1 BB1          0.0000
     5 N5        -0.9327   -18.1198    14.4622 N.2        1 BB1          0.0000
     6 C6        -0.0692   -17.3437    13.8662 C.2        1 BB1          0.0000
     7 C7        -0.3906   -16.3270    12.8012 C.3        1 BB1          0.0000
     8 C8        -0.0198   -16.8918    11.4284 C.3        1 BB1          0.0000
     9 C9        -0.9949   -18.0124    11.0562 C.3        1 BB1          0.0000
    10 C10       -0.6639   -18.5172     9.6488 C.3        1 BB1          0.0000
    11 C11       -0.7236   -17.3461     8.6657 C.3        1 BB1          0.0000
    12 N12        0.2495   -16.3208     9.0608 N.am       1 BB1          0.0000
    13 C13       -0.1034   -15.7809    10.3794 C.3        1 BB1          0.0000
    14 H14        2.8621   -17.5200    13.1314 H          1 BB1          0.0000
    15 H15        2.2097   -15.9421    13.6339 H          1 BB1          0.0000
    16 H16        3.1016   -16.9486    14.8000 H          1 BB1          0.0000
    17 H17        1.8064   -19.0345    15.8898 H          1 BB1          0.0000
    18 H18       -0.7479   -19.6313    15.9949 H          1 BB1          0.0000
    19 H19       -1.4564   -16.1004    12.8251 H          1 BB1          0.0000
    20 H20        0.1788   -15.4160    12.9852 H          1 BB1          0.0000
    21 H21        0.9951   -17.2880    11.4600 H          1 BB1          0.0000
    22 H22       -0.8986   -18.8312    11.7692 H          1 BB1          0.0000
    23 H23       -2.0152   -17.6291    11.0754 H          1 BB1          0.0000
    24 H24        0.3378   -18.9470     9.6426 H          1 BB1          0.0000
    25 H25       -1.3884   -19.2766     9.3548 H          1 BB1          0.0000
    26 H26       -0.4886   -17.7021     7.6627 H          1 BB1          0.0000
    27 H27       -1.7257   -16.9173     8.6726 H          1 BB1          0.0000
    28 H28       -1.1187   -15.3854    10.3497 H          1 BB1          0.0000
    29 H29        0.5895   -14.9814    10.6415 H          1 BB1          0.0000
    30 C2         0.1635   -14.0940     8.0858 C.2        2 BB2          0.0000
    31 O3        -0.0976   -15.1463     8.6532 O.2        2 BB2          0.0000
    32 C4         0.0253   -12.8209     8.8015 C.2        2 BB2          0.0000
    33 C5         0.5233   -11.7029     8.2744 C.2        2 BB2          0.0000
    34 C6        -0.6798   -12.7774    10.1325 C.3        2 BB2          0.0000
    35 N7        -1.7033   -11.7294    10.1090 N.pl3      2 BB2          0.0000
    36 C8        -1.7077   -10.5815    10.8546 C.2        2 BB2          0.0000
    37 C9        -2.8248    -9.9061    10.5235 C.2        2 BB2          0.0000
    38 N10       -3.4844   -10.6222     9.6009 N.2        2 BB2          0.0000
    39 C11       -2.8156   -11.7127     9.3434 C.2        2 BB2          0.0000
    40 H12        0.4216   -10.7656     8.8013 H          2 BB2          0.0000
    41 H13        1.0287   -11.7340     7.3205 H          2 BB2          0.0000
    42 H14       -1.1510   -13.7411    10.3257 H          2 BB2          0.0000
    43 H15        0.0428   -12.5619    10.9197 H          2 BB2          0.0000
    44 H16       -0.9595   -10.2764    11.5712 H          2 BB2          0.0000
    45 H17       -3.1350    -8.9547    10.9296 H          2 BB2          0.0000
    46 H18       -3.1072   -12.4786     8.6400 H          2 BB2          0.0000
@<TRIPOS>BOND
     1      1      2 1
     2      1     14 1
     3      1     15 1
     4      1     16 1
     5      2      3 1
     6      2      6 1
     7      3      4 2
     8      3     17 1
     9      4      5 1
    10      4     18 1
    11      5      6 2
    12      6      7 1
    13      7      8 1
    14      7     19 1
    15      7     20 1
    16      8      9 1
    17      8     13 1
    18      8     21 1
    19      9     10 1
    20      9     22 1
    21      9     23 1
    22     10     11 1
    23     10     24 1
    24     10     25 1
    25     11     12 1
    26     11     26 1
    27     11     27 1
    28     12     13 1
    29     13     28 1
    30     13     29 1
    31     30     31 2
    32     30     32 1
    33     32     33 2
    34     32     34 1
    35     33     40 1
    36     33     41 1
    37     34     35 1
    38     34     42 1
    39     34     43 1
    40     35     36 1
    41     35     39 1
    42     36     37 2
    43     36     44 1
    44     37     38 1
    45     37     45 1
    46     38     39 2
    47     39     46 1
    48     12     30 am
@<TRIPOS>SUBSTRUCTURE
     1 BB1          12
     2 BB2          30
@<TRIPOS>MOLECULE
EN300-98433_i002_EN300-307464_i001_15_20_1
  46   48   2   0   0
SMALL
USER_CHARGES
@<TRIPOS>ATOM
     1 C1         2.4138   -16.9636    13.9545 C.3        1 BB1          0.0000
     2 N2         1.1613   -17.6091    14.3554 N.pl3      1 BB1          0.0000
     3 C3         1.0187   -18.5897    15.2997 C.2        1 BB1          0.0000
     4 C4        -0.2922   -18.8937    15.3510 C.2        1 BB1          0.0000
     5 N5        -0.9327   -18.1198    14.4622 N.2        1 BB1          0.0000
     6 C6        -0.0692   -17.3437    13.8662 C.2        1 BB1          0.0000
     7 C7        -0.3906   -16.3270    12.8012 C.3        1 BB1          0.0000
     8 C8        -0.0198   -16.8918    11.4284 C.3        1 BB1          0.0000
     9 C9        -0.9949   -18.0124    11.0562 C.3        1 BB1          0.0000
    10 C10       -0.6639   -18.5172     9.6488 C.3        1 BB1          0.0000
    11 C11       -0.7236   -17.3461     8.6657 C.3        1 BB1          0.0000
    12 N12        0.2495   -16.3208     9.0608 N.am       1 BB1          0.0000
    13 C13       -0.1034   -15.7809    10.3794 C.3        1 BB1          0.0000
    14 H14        2.8621   -17.5200    13.1314 H          1 BB1          0.0000
    15 H15        2.2097   -15.9421    13.6339 H          1 BB1          0.0000
    16 H16        3.1016   -16.9486    14.8000 H          1 BB1          0.0000
    17 H17        1.8064   -19.0345    15.8898 H          1 BB1          0.0000
    18 H18       -0.7479   -19.6313    15.9949 H          1 BB1          0.0000
    19 H19       -1.4564   -16.1004    12.8251 H          1 BB1          0.0000
    20 H20        0.1788   -15.4160    12.9852 H          1 BB1          0.0000
    21 H21        0.9951   -17.2880    11.4600 H          1 BB1          0.0000
    22 H22       -0.8986   -18.8312    11.7692 H          1 BB1          0.0000
    23 H23       -2.0152   -17.6291    11.0754 H          1 BB1          0.0000
    24 H24        0.3378   -18.9470     9.6426 H          1 BB1          0.0000
    25 H25       -1.3884   -19.2766     9.3548 H          1 BB1          0.0000
    26 H26       -0.4886   -17.7021     7.6627 H          1 BB1          0.0000
    27 H27       -1.7257   -16.9173     8.6726 H          1 BB1          0.0000
    28 H28       -1.1187   -15.3854    10.3497 H          1 BB1          0.0000
    29 H29        0.5895   -14.9814    10.6415 H          1 BB1          0.0000
    30 C2        -0.0378   -14.1177     7.8454 C.2        2 BB2          0.0000
    31 O3        -0.0941   -15.1364     8.5211 O.2        2 BB2          0.0000
    32 C4         0.0826   -12.8098     8.4989 C.2        2 BB2          0.0000
    33 C5         0.5071   -11.7546     7.8046 C.2        2 BB2          0.0000
    34 C6        -0.2738   -12.6596     9.9554 C.3        2 BB2          0.0000
    35 N7        -1.1738   -11.5157    10.1224 N.pl3      2 BB2          0.0000
    36 C8        -2.4332   -11.3902     9.6009 C.2        2 BB2          0.0000
    37 C9        -2.9011   -10.1911     9.9970 C.2        2 BB2          0.0000
    38 N10       -1.9534    -9.6007    10.7401 N.2        2 BB2          0.0000
    39 C11       -0.9182   -10.3909    10.8244 C.2        2 BB2          0.0000
    40 H12        0.5957   -10.7918     8.2857 H          2 BB2          0.0000
    41 H13        0.7626   -11.8623     6.7607 H          2 BB2          0.0000
    42 H14       -0.7695   -13.5658    10.3034 H          2 BB2          0.0000
    43 H15        0.6337   -12.4957    10.5365 H          2 BB2          0.0000
    44 H16       -2.9516   -12.1134     8.9887 H          2 BB2          0.0000
    45 H17       -3.8698    -9.7775     9.7583 H          2 BB2          0.0000
    46 H18       -0.0054   -10.1772    11.3605 H          2 BB2          0.0000
@<TRIPOS>BOND
     1      1      2 1
     2      1     14 1
     3      1     15 1
     4      1     16 1
     5      2      3 1
     6      2      6 1
     7      3      4 2
     8      3     17 1
     9      4      5 1
    10      4     18 1
    11      5      6 2
    12      6      7 1
    13      7      8 1
    14      7     19 1
    15      7     20 1
    16      8      9 1
    17      8     13 1
    18      8     21 1
    19      9     10 1
    20      9     22 1
    21      9     23 1
    22     10     11 1
    23     10     24 1
    24     10     25 1
    25     11     12 1
    26     11     26 1
    27     11     27 1
    28     12     13 1
    29     13     28 1
    30     13     29 1
    31     30     31 2
    32     30     32 1
    33     32     33 2
    34     32     34 1
    35     33     40 1
    36     33     41 1
    37     34     35 1
    38     34     42 1
    39     34     43 1
    40     35     36 1
    41     35     39 1
    42     36     37 2
    43     36     44 1
    44     37     38 1
    45     37     45 1
    46     38     39 2
    47     39     46 1
    48     12     30 am
@<TRIPOS>SUBSTRUCTURE
     1 BB1          12
     2 BB2          30
@<TRIPOS>MOLECULE
EN300-98433_i002_EN300-307464_i001_15_4_1
  46   48   2   0   0
SMALL
USER_CHARGES
@<TRIPOS>ATOM
     1 C1         2.4138   -16.9636    13.9545 C.3        1 BB1          0.0000
     2 N2         1.1613   -17.6091    14.3554 N.pl3      1 BB1          0.0000
     3 C3         1.0187   -18.5897    15.2997 C.2        1 BB1          0.0000
     4 C4        -0.2922   -18.8937    15.3510 C.2        1 BB1          0.0000
     5 N5        -0.9327   -18.1198    14.4622 N.2        1 BB1          0.0000
     6 C6        -0.0692   -17.3437    13.8662 C.2        1 BB1          0.0000
     7 C7        -0.3906   -16.3270    12.8012 C.3        1 BB1          0.0000
     8 C8        -0.0198   -16.8918    11.4284 C.3        1 BB1          0.0000
     9 C9        -0.9949   -18.0124    11.0562 C.3        1 BB1          0.0000
    10 C10       -0.6639   -18.5172     9.6488 C.3        1 BB1          0.0000
    11 C11       -0.7236   -17.3461     8.6657 C.3        1 BB1          0.0000
    12 N12        0.2495   -16.3208     9.0608 N.am       1 BB1          0.0000
    13 C13       -0.1034   -15.7809    10.3794 C.3        1 BB1          0.0000
    14 H14        2.8621   -17.5200    13.1314 H          1 BB1          0.0000
    15 H15        2.2097   -15.9421    13.6339 H          1 BB1          0.0000
    16 H16        3.1016   -16.9486    14.8000 H          1 BB1          0.0000
    17 H17        1.8064   -19.0345    15.8898 H          1 BB1          0.0000
    18 H18       -0.7479   -19.6313    15.9949 H          1 BB1          0.0000
    19 H19       -1.4564   -16.1004    12.8251 H          1 BB1          0.0000
    20 H20        0.1788   -15.4160    12.9852 H          1 BB1          0.0000
    21 H21        0.9951   -17.2880    11.4600 H          1 BB1          0.0000
    22 H22       -0.8986   -18.8312    11.7692 H          1 BB1          0.0000
    23 H23       -2.0152   -17.6291    11.0754 H          1 BB1          0.0000
    24 H24        0.3378   -18.9470     9.6426 H          1 BB1          0.0000
    25 H25       -1.3884   -19.2766     9.3548 H          1 BB1          0.0000
    26 H26       -0.4886   -17.7021     7.6627 H          1 BB1          0.0000
    27 H27       -1.7257   -16.9173     8.6726 H          1 BB1          0.0000
    28 H28       -1.1187   -15.3854    10.3497 H          1 BB1          0.0000
    29 H29        0.5895   -14.9814    10.6415 H          1 BB1          0.0000
    30 C2         0.1537   -14.5388     7.9466 C.2        2 BB2          0.0000
    31 O3        -0.0151   -15.4470     8.7491 O.2        2 BB2          0.0000
    32 C4         0.3068   -13.1593     8.4217 C.2        2 BB2          0.0000
    33 C5         0.5055   -12.1722     7.5489 C.2        2 BB2          0.0000
    34 C6         0.2394   -12.8585     9.8968 C.3        2 BB2          0.0000
    35 N7        -0.7743   -11.8289    10.1394 N.pl3      2 BB2          0.0000
    36 C8        -0.7177   -10.5223     9.7356 C.2        2 BB2          0.0000
    37 C9        -1.8491    -9.9321    10.1663 C.2        2 BB2          0.0000
    38 N10       -2.5765   -10.8532    10.8153 N.2        2 BB2          0.0000
    39 C11       -1.9416   -11.9933    10.7981 C.2        2 BB2          0.0000
    40 H12        0.6183   -11.1567     7.8986 H          2 BB2          0.0000
    41 H13        0.5539   -12.3878     6.4917 H          2 BB2          0.0000
    42 H14       -0.0260   -13.7650    10.4407 H          2 BB2          0.0000
    43 H15        1.2102   -12.5003    10.2394 H          2 BB2          0.0000
    44 H16        0.0810   -10.0544     9.1791 H          2 BB2          0.0000
    45 H17       -2.1226    -8.8983    10.0154 H          2 BB2          0.0000
    46 H18       -2.2889   -12.9138    11.2435 H          2 BB2          0.0000
@<TRIPOS>BOND
     1      1      2 1
     2      1     14 1
     3      1     15 1
     4      1     16 1
     5      2      3 1
     6      2      6 1
     7      3      4 2
     8      3     17 1
     9      4      5 1
    10      4     18 1
    11      5      6 2
    12      6      7 1
    13      7      8 1
    14      7     19 1
    15      7     20 1
    16      8      9 1
    17      8     13 1
    18      8     21 1
    19      9     10 1
    20      9     22 1
    21      9     23 1
    22     10     11 1
    23     10     24 1
    24     10     25 1
    25     11     12 1
    26     11     26 1
    27     11     27 1
    28     12     13 1
    29     13     28 1
    30     13     29 1
    31     30     31 2
    32     30     32 1
    33     32     33 2
    34     32     34 1
    35     33     40 1
    36     33     41 1
    37     34     35 1
    38     34     42 1
    39     34     43 1
    40     35     36 1
    41     35     39 1
    42     36     37 2
    43     36     44 1
    44     37     38 1
    45     37     45 1
    46     38     39 2
    47     39     46 1
    48     12     30 am
@<TRIPOS>SUBSTRUCTURE
     1 BB1          12
     2 BB2          30
@<TRIPOS>MOLECULE
EN300-98433_i002_EN300-344045_i001_15_2_1
  58   61   2   0   0
SMALL
USER_CHARGES
@<TRIPOS>ATOM
     1 C1         2.4138   -16.9636    13.9545 C.3        1 BB1          0.0000
     2 N2         1.1613   -17.6091    14.3554 N.pl3      1 BB1          0.0000
     3 C3         1.0187   -18.5897    15.2997 C.2        1 BB1          0.0000
     4 C4        -0.2922   -18.8937    15.3510 C.2        1 BB1          0.0000
     5 N5        -0.9327   -18.1198    14.4622 N.2        1 BB1          0.0000
     6 C6        -0.0692   -17.3437    13.8662 C.2        1 BB1          0.0000
     7 C7        -0.3906   -16.3270    12.8012 C.3        1 BB1          0.0000
     8 C8        -0.0198   -16.8918    11.4284 C.3        1 BB1          0.0000
     9 C9        -0.9949   -18.0124    11.0562 C.3        1 BB1          0.0000
    10 C10       -0.6639   -18.5172     9.6488 C.3        1 BB1          0.0000
    11 C11       -0.7236   -17.3461     8.6657 C.3        1 BB1          0.0000
    12 N12        0.2495   -16.3208     9.0608 N.am       1 BB1          0.0000
    13 C13       -0.1034   -15.7809    10.3794 C.3        1 BB1          0.0000
    14 H14        2.8621   -17.5200    13.1314 H          1 BB1          0.0000
    15 H15        2.2097   -15.9421    13.6339 H          1 BB1          0.0000
    16 H16        3.1016   -16.9486    14.8000 H          1 BB1          0.0000
    17 H17        1.8064   -19.0345    15.8898 H          1 BB1          0.0000
    18 H18       -0.7479   -19.6313    15.9949 H          1 BB1          0.0000
    19 H19       -1.4564   -16.1004    12.8251 H          1 BB1          0.0000
    20 H20        0.1788   -15.4160    12.9852 H          1 BB1          0.0000
    21 H21        0.9951   -17.2880    11.4600 H          1 BB1          0.0000
    22 H22       -0.8986   -18.8312    11.7692 H          1 BB1          0.0000
    23 H23       -2.0152   -17.6291    11.0754 H          1 BB1          0.0000
    24 H24        0.3378   -18.9470     9.6426 H          1 BB1          0.0000
    25 H25       -1.3884   -19.2766     9.3548 H          1 BB1          0.0000
    26 H26       -0.4886   -17.7021     7.6627 H          1 BB1          0.0000
    27 H27       -1.7257   -16.9173     8.6726 H          1 BB1          0.0000
    28 H28       -1.1187   -15.3854    10.3497 H          1 BB1          0.0000
    29 H29        0.5895   -14.9814    10.6415 H          1 BB1          0.0000
    30 O1         0.5661   -15.7707    10.9576 O.2        2 BB2          0.0000
    31 C2         0.2489   -14.5943    11.0019 C.2        2 BB2          0.0000
    32 C4         0.9922   -13.5817    10.1694 C.3        2 BB2          0.0000
    33 C5         0.0568   -13.0163     9.0988 C.3        2 BB2          0.0000
    34 C6         0.8768   -12.3025     8.0042 C.3        2 BB2          0.0000
    35 C7         1.0511   -13.3749     6.9002 C.3        2 BB2          0.0000
    36 C8        -0.3163   -14.1023     6.9114 C.3        2 BB2          0.0000
    37 C9        -0.7017   -14.1605     8.4040 C.3        2 BB2          0.0000
    38 C10       -0.9194   -12.0528     9.7233 C.ar       2 BB2          0.0000
    39 C11       -0.7018   -11.5818    11.0046 C.ar       2 BB2          0.0000
    40 C12       -1.5972   -10.6981    11.5774 C.ar       2 BB2          0.0000
    41 C13       -2.7099   -10.2850    10.8687 C.ar       2 BB2          0.0000
    42 C14       -2.9270   -10.7553     9.5871 C.ar       2 BB2          0.0000
    43 C15       -2.0292   -11.6357     9.0126 C.ar       2 BB2          0.0000
    44 H16        1.3431   -12.7722    10.8096 H          2 BB2          0.0000
    45 H17        1.8455   -14.0614     9.6898 H          2 BB2          0.0000
    46 H18        0.3298   -11.4425     7.6177 H          2 BB2          0.0000
    47 H19        1.8472   -11.9949     8.3939 H          2 BB2          0.0000
    48 H20        1.2319   -12.9071     5.9324 H          2 BB2          0.0000
    49 H21        1.8570   -14.0634     7.1543 H          2 BB2          0.0000
    50 H22       -1.0559   -13.5330     6.3483 H          2 BB2          0.0000
    51 H23       -0.2166   -15.1082     6.5036 H          2 BB2          0.0000
    52 H24       -0.4034   -15.1187     8.8294 H          2 BB2          0.0000
    53 H25       -1.7765   -14.0194     8.5179 H          2 BB2          0.0000
    54 H26        0.1674   -11.9045    11.5583 H          2 BB2          0.0000
    55 H27       -1.4278   -10.3307    12.5787 H          2 BB2          0.0000
    56 H28       -3.4099    -9.5951    11.3165 H          2 BB2          0.0000
    57 H29       -3.7964   -10.4328     9.0334 H          2 BB2          0.0000
    58 H30       -2.1987   -12.0032     8.0113 H          2 BB2          0.0000
@<TRIPOS>BOND
     1      1      2 1
     2      1     14 1
     3      1     15 1
     4      1     16 1
     5      2      3 1
     6      2      6 1
     7      3      4 2
     8      3     17 1
     9      4      5 1
    10      4     18 1
    11      5      6 2
    12      6      7 1
    13      7      8 1
    14      7     19 1
    15      7     20 1
    16      8      9 1
    17      8     13 1
    18      8     21 1
    19      9     10 1
    20      9     22 1
    21      9     23 1
    22     10     11 1
    23     10     24 1
    24     10     25 1
    25     11     12 1
    26     11     26 1
    27     11     27 1
    28     12     13 1
    29     13     28 1
    30     13     29 1
    31     30     31 2
    32     31     32 1
    33     32     33 1
    34     32     44 1
    35     32     45 1
    36     33     34 1
    37     33     37 1
    38     33     38 1
    39     34     35 1
    40     34     46 1
    41     34     47 1
    42     35     36 1
    43     35     48 1
    44     35     49 1
    45     36     37 1
    46     36     50 1
    47     36     51 1
    48     37     52 1
    49     37     53 1
    50     38     39 ar
    51     38     43 ar
    52     39     40 ar
    53     39     54 1
    54     40     41 ar
    55     40     55 1
    56     41     42 ar
    57     41     56 1
    58     42     43 ar
    59     42     57 1
    60     43     58 1
    61     12     31 am
@<TRIPOS>SUBSTRUCTURE
     1 BB1          12
     2 BB2          31
@<TRIPOS>MOLECULE
EN300-98433_i002_EN300-206926_i001_15_10_1
  44   45   2   0   0
SMALL
USER_CHARGES
@<TRIPOS>ATOM
     1 C1         2.4138   -16.9636    13.9545 C.3        1 BB1          0.0000
     2 N2         1.1613   -17.6091    14.3554 N.pl3      1 BB1          0.0000
     3 C3         1.0187   -18.5897    15.2997 C.2        1 BB1          0.0000
     4 C4        -0.2922   -18.8937    15.3510 C.2        1 BB1          0.0000
     5 N5        -0.9327   -18.1198    14.4622 N.2        1 BB1          0.0000
     6 C6        -0.0692   -17.3437    13.8662 C.2        1 BB1          0.0000
     7 C7        -0.3906   -16.3270    12.8012 C.3        1 BB1          0.0000
     8 C8        -0.0198   -16.8918    11.4284 C.3        1 BB1          0.0000
     9 C9        -0.9949   -18.0124    11.0562 C.3        1 BB1          0.0000
    10 C10       -0.6639   -18.5172     9.6488 C.3        1 BB1          0.0000
    11 C11       -0.7236   -17.3461     8.6657 C.3        1 BB1          0.0000
    12 N12        0.2495   -16.3208     9.0608 N.am       1 BB1          0.0000
    13 C13       -0.1034   -15.7809    10.3794 C.3        1 BB1          0.0000
    14 H14        2.8621   -17.5200    13.1314 H          1 BB1          0.0000
    15 H15        2.2097   -15.9421    13.6339 H          1 BB1          0.0000
    16 H16        3.1016   -16.9486    14.8000 H          1 BB1          0.0000
    17 H17        1.8064   -19.0345    15.8898 H          1 BB1          0.0000
    18 H18       -0.7479   -19.6313    15.9949 H          1 BB1          0.0000
    19 H19       -1.4564   -16.1004    12.8251 H          1 BB1          0.0000
    20 H20        0.1788   -15.4160    12.9852 H          1 BB1          0.0000
    21 H21        0.9951   -17.2880    11.4600 H          1 BB1          0.0000
    22 H22       -0.8986   -18.8312    11.7692 H          1 BB1          0.0000
    23 H23       -2.0152   -17.6291    11.0754 H          1 BB1          0.0000
    24 H24        0.3378   -18.9470     9.6426 H          1 BB1          0.0000
    25 H25       -1.3884   -19.2766     9.3548 H          1 BB1          0.0000
    26 H26       -0.4886   -17.7021     7.6627 H          1 BB1          0.0000
    27 H27       -1.7257   -16.9173     8.6726 H          1 BB1          0.0000
    28 H28       -1.1187   -15.3854    10.3497 H          1 BB1          0.0000
    29 H29        0.5895   -14.9814    10.6415 H          1 BB1          0.0000
    30 C1        -3.8725   -10.9951     9.9128 C.3        2 BB2          0.0000
    31 C2        -2.3918   -10.7328    10.0115 C.2        2 BB2          0.0000
    32 O3        -1.9847    -9.5986    10.1525 O.2        2 BB2          0.0000
    33 S4        -1.2841   -12.0353     9.9250 S.3        2 BB2          0.0000
    34 C5        -0.4033   -11.5985     8.4053 C.3        2 BB2          0.0000
    35 C6         0.7726   -12.5564     8.2042 C.3        2 BB2          0.0000
    36 C7         0.2498   -13.9450     7.9401 C.2        2 BB2          0.0000
    37 O8         0.4180   -14.8269     8.7650 O.2        2 BB2          0.0000
    38 H10       -4.1807   -10.9491     8.8683 H          2 BB2          0.0000
    39 H11       -4.0939   -11.9843    10.3137 H          2 BB2          0.0000
    40 H12       -4.4139   -10.2417    10.4849 H          2 BB2          0.0000
    41 H13       -1.0832   -11.6746     7.5567 H          2 BB2          0.0000
    42 H14       -0.0309   -10.5771     8.4821 H          2 BB2          0.0000
    43 H15        1.3698   -12.2254     7.3546 H          2 BB2          0.0000
    44 H16        1.3912   -12.5657     9.1016 H          2 BB2          0.0000
@<TRIPOS>BOND
     1      1      2 1
     2      1     14 1
     3      1     15 1
     4      1     16 1
     5      2      3 1
     6      2      6 1
     7      3      4 2
     8      3     17 1
     9      4      5 1
    10      4     18 1
    11      5      6 2
    12      6      7 1
    13      7      8 1
    14      7     19 1
    15      7     20 1
    16      8      9 1
    17      8     13 1
    18      8     21 1
    19      9     10 1
    20      9     22 1
    21      9     23 1
    22     10     11 1
    23     10     24 1
    24     10     25 1
    25     11     12 1
    26     11     26 1
    27     11     27 1
    28     12     13 1
    29     13     28 1
    30     13     29 1
    31     30     31 1
    32     30     38 1
    33     30     39 1
    34     30     40 1
    35     31     32 2
    36     31     33 1
    37     33     34 1
    38     34     35 1
    39     34     41 1
    40     34     42 1
    41     35     36 1
    42     35     43 1
    43     35     44 1
    44     36     37 2
    45     12     36 am
@<TRIPOS>SUBSTRUCTURE
     1 BB1          12
     2 BB2          36
@<TRIPOS>MOLECULE
EN300-98433_i002_EN300-35009_i001_15_16_1
  51   54   2   0   0
SMALL
USER_CHARGES
@<TRIPOS>ATOM
     1 C1         2.4138   -16.9636    13.9545 C.3        1 BB1          0.0000
     2 N2         1.1613   -17.6091    14.3554 N.pl3      1 BB1          0.0000
     3 C3         1.0187   -18.5897    15.2997 C.2        1 BB1          0.0000
     4 C4        -0.2922   -18.8937    15.3510 C.2        1 BB1          0.0000
     5 N5        -0.9327   -18.1198    14.4622 N.2        1 BB1          0.0000
     6 C6        -0.0692   -17.3437    13.8662 C.2        1 BB1          0.0000
     7 C7        -0.3906   -16.3270    12.8012 C.3        1 BB1          0.0000
     8 C8        -0.0198   -16.8918    11.4284 C.3        1 BB1          0.0000
     9 C9        -0.9949   -18.0124    11.0562 C.3        1 BB1          0.0000
    10 C10       -0.6639   -18.5172     9.6488 C.3        1 BB1          0.0000
    11 C11       -0.7236   -17.3461     8.6657 C.3        1 BB1          0.0000
    12 N12        0.2495   -16.3208     9.0608 N.am       1 BB1          0.0000
    13 C13       -0.1034   -15.7809    10.3794 C.3        1 BB1          0.0000
    14 H14        2.8621   -17.5200    13.1314 H          1 BB1          0.0000
    15 H15        2.2097   -15.9421    13.6339 H          1 BB1          0.0000
    16 H16        3.1016   -16.9486    14.8000 H          1 BB1          0.0000
    17 H17        1.8064   -19.0345    15.8898 H          1 BB1          0.0000
    18 H18       -0.7479   -19.6313    15.9949 H          1 BB1          0.0000
    19 H19       -1.4564   -16.1004    12.8251 H          1 BB1          0.0000
    20 H20        0.1788   -15.4160    12.9852 H          1 BB1          0.0000
    21 H21        0.9951   -17.2880    11.4600 H          1 BB1          0.0000
    22 H22       -0.8986   -18.8312    11.7692 H          1 BB1          0.0000
    23 H23       -2.0152   -17.6291    11.0754 H          1 BB1          0.0000
    24 H24        0.3378   -18.9470     9.6426 H          1 BB1          0.0000
    25 H25       -1.3884   -19.2766     9.3548 H          1 BB1          0.0000
    26 H26       -0.4886   -17.7021     7.6627 H          1 BB1          0.0000
    27 H27       -1.7257   -16.9173     8.6726 H          1 BB1          0.0000
    28 H28       -1.1187   -15.3854    10.3497 H          1 BB1          0.0000
    29 H29        0.5895   -14.9814    10.6415 H          1 BB1          0.0000
    30 C1         0.9137   -11.8407     6.3363 C.3        2 BB2          0.0000
    31 C2         0.2934   -12.0154     7.6986 C.2        2 BB2          0.0000
    32 N3        -0.3979   -11.0253     8.2523 N.2        2 BB2          0.0000
    33 C4        -0.9529   -11.1335     9.4312 C.2        2 BB2          0.0000
    34 N5        -0.8691   -12.2498    10.1745 N.am       2 BB2          0.0000
    35 C6        -0.1901   -13.3233     9.7127 C.2        2 BB2          0.0000
    36 O7        -0.1030   -14.3437    10.3719 O.2        2 BB2          0.0000
    37 C8         0.4348   -13.2204     8.3872 C.2        2 BB2          0.0000
    38 C9         1.1891   -14.3395     7.8136 C.2        2 BB2          0.0000
    39 O11        0.7817   -15.4858     7.9496 O.2        2 BB2          0.0000
    40 C12       -1.7185    -9.9569     9.9794 C.3        2 BB2          0.0000
    41 C13       -3.2179    -9.8895     9.6825 C.3        2 BB2          0.0000
    42 C14       -2.7319   -10.2301    11.0927 C.3        2 BB2          0.0000
    43 H15        0.6910   -10.8418     5.9611 H          2 BB2          0.0000
    44 H16        1.9936   -11.9690     6.4097 H          2 BB2          0.0000
    45 H17        0.5050   -12.5850     5.6528 H          2 BB2          0.0000
    46 H18       -1.1702    -9.0157    10.0175 H          2 BB2          0.0000
    47 H19       -3.6560    -8.9038     9.5255 H          2 BB2          0.0000
    48 H20       -3.6507   -10.6960     9.0906 H          2 BB2          0.0000
    49 H21       -2.8448   -11.2609    11.4286 H          2 BB2          0.0000
    50 H22       -2.8502    -9.4687    11.8635 H          2 BB2          0.0000
    51 H23       -1.2964   -12.2850    11.0446 H          2 BB2          0.0000
@<TRIPOS>BOND
     1      1      2 1
     2      1     14 1
     3      1     15 1
     4      1     16 1
     5      2      3 1
     6      2      6 1
     7      3      4 2
     8      3     17 1
     9      4      5 1
    10      4     18 1
    11      5      6 2
    12      6      7 1
    13      7      8 1
    14      7     19 1
    15      7     20 1
    16      8      9 1
    17      8     13 1
    18      8     21 1
    19      9     10 1
    20      9     22 1
    21      9     23 1
    22     10     11 1
    23     10     24 1
    24     10     25 1
    25     11     12 1
    26     11     26 1
    27     11     27 1
    28     12     13 1
    29     13     28 1
    30     13     29 1
    31     30     31 1
    32     30     43 1
    33     30     44 1
    34     30     45 1
    35     31     32 1
    36     31     37 2
    37     32     33 2
    38     33     34 1
    39     33     40 1
    40     34     35 am
    41     34     51 1
    42     35     36 2
    43     35     37 1
    44     37     38 1
    45     38     39 2
    46     40     41 1
    47     40     42 1
    48     40     46 1
    49     41     42 1
    50     41     47 1
    51     41     48 1
    52     42     49 1
    53     42     50 1
    54     12     38 am
@<TRIPOS>SUBSTRUCTURE
     1 BB1          12
     2 BB2          38
@<TRIPOS>MOLECULE
EN300-109827_i001_EN300-15782_i003_1_6_1
  53   55   2   0   0
SMALL
USER_CHARGES
@<TRIPOS>ATOM
     1 O1         1.0996   -11.1706     9.2216 O.2        1 BB1          0.0000
     2 C2         0.9131   -12.0876     8.4464 C.2        1 BB1          0.0000
     3 O3         0.5378   -11.9092     7.1714 O.3        1 BB1          0.0000
     4 C4         0.5210   -13.1968     6.4853 C.3        1 BB1          0.0000
     5 C5         1.0186   -14.1883     7.5479 C.3        1 BB1          0.0000
     6 C6        -0.0114   -15.2963     7.7870 C.3        1 BB1          0.0000
     7 N7         0.3360   -16.0023     9.0290 N.am       1 BB1          0.0000
     8 C8         0.1903   -15.1229    10.1936 C.3        1 BB1          0.0000
     9 C9         1.2060   -13.9723    10.1116 C.3        1 BB1          0.0000
    10 N10        1.0667   -13.3682     8.7783 N.am       1 BB1          0.0000
    11 H11       -0.4917   -13.4495     6.1710 H          1 BB1          0.0000
    12 H12        1.1958   -13.1829     5.6294 H          1 BB1          0.0000
    13 H13        1.9937   -14.5995     7.2867 H          1 BB1          0.0000
    14 H14       -1.0049   -14.8578     7.8812 H          1 BB1          0.0000
    15 H15        0.0041   -15.9964     6.9517 H          1 BB1          0.0000
    16 H16       -0.8196   -14.7134    10.2139 H          1 BB1          0.0000
    17 H17        0.3654   -15.6960    11.1041 H          1 BB1          0.0000
    18 H18        0.9919   -13.2312    10.8816 H          1 BB1          0.0000
    19 H19        2.2174   -14.3591    10.2369 H          1 BB1          0.0000
    20 C1         2.0709   -17.5199    14.3312 C.3        2 BB2          0.0000
    21 C2         2.1075   -16.5245    13.1698 C.3        2 BB2          0.0000
    22 O3         3.2140   -16.8273    12.3176 O.3        2 BB2          0.0000
    23 C4         0.8063   -16.6246    12.3711 C.3        2 BB2          0.0000
    24 N5         0.9157   -17.7103    11.3936 N.pl3      2 BB2          0.0000
    25 S6        -0.3271   -18.7896    11.2125 S.o2       2 BB2          0.0000
    26 O7        -1.4574   -18.2108    11.8500 O.2        2 BB2          0.0000
    27 O8        -0.3215   -19.1825     9.8469 O.2        2 BB2          0.0000
    28 C9         0.0891   -20.2255    12.1449 C.ar       2 BB2          0.0000
    29 C10        1.2108   -20.2238    12.9525 C.ar       2 BB2          0.0000
    30 C11        1.5374   -21.3506    13.6842 C.ar       2 BB2          0.0000
    31 C12        0.7421   -22.4784    13.6083 C.ar       2 BB2          0.0000
    32 C13        1.0985   -23.7067    14.4054 C.3        2 BB2          0.0000
    33 C14       -0.3806   -22.4796    12.8015 C.ar       2 BB2          0.0000
    34 C15       -1.2480   -23.7091    12.7192 C.3        2 BB2          0.0000
    35 C16       -0.7093   -21.3519    12.0731 C.ar       2 BB2          0.0000
    36 C17        0.5573   -15.3240    11.6517 C.2        2 BB2          0.0000
    37 O18        1.3334   -14.9451    10.7910 O.2        2 BB2          0.0000
    38 H20        2.9979   -17.4487    14.9001 H          2 BB2          0.0000
    39 H21        1.2269   -17.2891    14.9811 H          2 BB2          0.0000
    40 H22        1.9618   -18.5313    13.9395 H          2 BB2          0.0000
    41 H23        2.2166   -15.5131    13.5614 H          2 BB2          0.0000
    42 H24       -0.0217   -16.8287    13.0498 H          2 BB2          0.0000
    43 H25        1.8323   -19.3425    13.0118 H          2 BB2          0.0000
    44 H26        2.4143   -21.3496    14.3147 H          2 BB2          0.0000
    45 H27        0.6192   -23.6571    15.3831 H          2 BB2          0.0000
    46 H28        0.7542   -24.5955    13.8767 H          2 BB2          0.0000
    47 H29        2.1799   -23.7560    14.5330 H          2 BB2          0.0000
    48 H30       -2.0221   -23.6597    13.4850 H          2 BB2          0.0000
    49 H31       -1.7135   -23.7602    11.7349 H          2 BB2          0.0000
    50 H32       -0.6359   -24.5969    12.8782 H          2 BB2          0.0000
    51 H33       -1.5864   -21.3528    11.4429 H          2 BB2          0.0000
    52 H34        2.9957   -16.8297    11.3756 H          2 BB2          0.0000
    53 H35        1.7160   -17.7969    10.8524 H          2 BB2          0.0000
@<TRIPOS>BOND
     1      1      2 2
     2      2      3 1
     3      2     10 am
     4      3      4 1
     5      4      5 1
     6      4     11 1
     7      4     12 1
     8      5      6 1
     9      5     10 1
    10      5     13 1
    11      6      7 1
    12      6     14 1
    13      6     15 1
    14      7      8 1
    15      8      9 1
    16      8     16 1
    17      8     17 1
    18      9     10 1
    19      9     18 1
    20      9     19 1
    21     20     21 1
    22     20     38 1
    23     20     39 1
    24     20     40 1
    25     21     22 1
    26     21     23 1
    27     21     41 1
    28     22     52 1
    29     23     24 1
    30     23     36 1
    31     23     42 1
    32     24     25 1
    33     24     53 1
    34     25     26 2
    35     25     27 2
    36     25     28 1
    37     28     29 ar
    38     28     35 ar
    39     29     30 ar
    40     29     43 1
    41     30     31 ar
    42     30     44 1
    43     31     32 1
    44     31     33 ar
    45     32     45 1
    46     32     46 1
    47     32     47 1
    48     33     34 1
    49     33     35 ar
    50     34     48 1
    51     34     49 1
    52     34     50 1
    53     35     51 1
    54     36     37 2
    55      7     36 am
@<TRIPOS>SUBSTRUCTURE
     1 BB1           7
     2 BB2          36
@<TRIPOS>MOLECULE
EN300-109827_i001_EN300-315786_i001_10_12_1
  47   50   2   0   0
SMALL
USER_CHARGES
@<TRIPOS>ATOM
     1 O1         1.9987   -18.2055    15.0987 O.2        1 BB1          0.0000
     2 C2         1.4476   -17.4716    14.3022 C.2        1 BB1          0.0000
     3 O3         0.9439   -16.2733    14.6318 O.3        1 BB1          0.0000
     4 C4         0.4647   -15.6004    13.4290 C.3        1 BB1          0.0000
     5 C5         0.8261   -16.5705    12.2940 C.3        1 BB1          0.0000
     6 C6        -0.4208   -16.9735    11.5012 C.3        1 BB1          0.0000
     7 N7        -0.0948   -18.1444    10.6738 N.am       1 BB1          0.0000
     8 C8         0.1911   -19.3161    11.5082 C.3        1 BB1          0.0000
     9 C9         1.4606   -19.0705    12.3391 C.3        1 BB1          0.0000
    10 N10        1.2896   -17.7762    13.0155 N.am       1 BB1          0.0000
    11 H11       -0.6143   -15.4533    13.4772 H          1 BB1          0.0000
    12 H12        0.9759   -14.6472    13.2946 H          1 BB1          0.0000
    13 H13        1.5963   -16.1564    11.6433 H          1 BB1          0.0000
    14 H14       -1.2267   -17.2256    12.1905 H          1 BB1          0.0000
    15 H15       -0.7295   -16.1475    10.8604 H          1 BB1          0.0000
    16 H16       -0.6499   -19.4980    12.1773 H          1 BB1          0.0000
    17 H17        0.3391   -20.1874    10.8701 H          1 BB1          0.0000
    18 H18        1.5822   -19.8639    13.0764 H          1 BB1          0.0000
    19 H19        2.3317   -19.0320    11.6851 H          1 BB1          0.0000
    20 C2        -0.6251   -18.1724     9.2095 C.2        2 BB2          0.0000
    21 O3        -0.0733   -18.9094    10.0140 O.2        2 BB2          0.0000
    22 C4        -0.4147   -16.7114     9.2806 C.ar       2 BB2          0.0000
    23 C5        -0.2275   -16.0918    10.5182 C.ar       2 BB2          0.0000
    24 C6        -0.0313   -14.7292    10.5836 C.ar       2 BB2          0.0000
    25 C7        -0.0197   -13.9686     9.4139 C.ar       2 BB2          0.0000
    26 C8        -0.2067   -14.5870     8.1770 C.ar       2 BB2          0.0000
    27 C9        -0.3973   -15.9503     8.1096 C.ar       2 BB2          0.0000
    28 C10        0.1906   -12.5044     9.4851 C.2        2 BB2          0.0000
    29 O11        1.1512   -12.0012     8.9367 O.2        2 BB2          0.0000
    30 N12       -0.6833   -11.7300    10.1581 N.am       2 BB2          0.0000
    31 C13       -0.5419   -10.2653    10.1734 C.3        2 BB2          0.0000
    32 C14       -1.8912    -9.6453     9.7929 C.3        2 BB2          0.0000
    33 O15       -2.9134   -10.1931    10.6287 O.3        2 BB2          0.0000
    34 C16       -3.0951   -11.6037    10.4829 C.3        2 BB2          0.0000
    35 C17       -1.8107   -12.3237    10.8942 C.3        2 BB2          0.0000
    36 H18       -0.2367   -16.6803    11.4237 H          2 BB2          0.0000
    37 H19        0.1132   -14.2499    11.5407 H          2 BB2          0.0000
    38 H20       -0.1981   -13.9976     7.2720 H          2 BB2          0.0000
    39 H21       -0.5417   -16.4288     7.1522 H          2 BB2          0.0000
    40 H22       -0.2543    -9.9348    11.1715 H          2 BB2          0.0000
    41 H23        0.2177    -9.9623     9.4528 H          2 BB2          0.0000
    42 H24       -1.8475    -8.5650     9.9317 H          2 BB2          0.0000
    43 H25       -2.1141    -9.8704     8.7499 H          2 BB2          0.0000
    44 H26       -3.9176   -11.9324    11.1182 H          2 BB2          0.0000
    45 H27       -3.3224   -11.8359     9.4425 H          2 BB2          0.0000
    46 H28       -1.8908   -13.3838    10.6533 H          2 BB2          0.0000
    47 H29       -1.6480   -12.2013    11.9650 H          2 BB2          0.0000
@<TRIPOS>BOND
     1      1      2 2
     2      2      3 1
     3      2     10 am
     4      3      4 1
     5      4      5 1
     6      4     11 1
     7      4     12 1
     8      5      6 1
     9      5     10 1
    10      5     13 1
    11      6      7 1
    12      6     14 1
    13      6     15 1
    14      7      8 1
    15      8      9 1
    16      8     16 1
    17      8     17 1
    18      9     10 1
    19      9     18 1
    20      9     19 1
    21     20     21 2
    22     20     22 1
    23     22     23 ar
    24     22     27 ar
    25     23     24 ar
    26     23     36 1
    27     24     25 ar
    28     24     37 1
    29     25     26 ar
    30     25     28 1
    31     26     27 ar
    32     26     38 1
    33     27     39 1
    34     28     29 2
    35     28     30 am
    36     30     31 1
    37     30     35 1
    38     31     32 1
    39     31     40 1
    40     31     41 1
    41     32     33 1
    42     32     42 1
    43     32     43 1
    44     33     34 1
    45     34     35 1
    46     34     44 1
    47     34     45 1
    48     35     46 1
    49     35     47 1
    50      7     20 am
@<TRIPOS>SUBSTRUCTURE
     1 BB1           7
     2 BB2          20
@<TRIPOS>MOLECULE
EN300-109827_i001_EN300-1198129_i001_11_19_1
  43   45   2   0   0
SMALL
USER_CHARGES
@<TRIPOS>ATOM
     1 O1        -1.1850   -17.4827    15.2582 O.2        1 BB1          0.0000
     2 C2        -0.1023   -17.9078    14.9066 C.2        1 BB1          0.0000
     3 O3         0.5822   -18.8354    15.5918 O.3        1 BB1          0.0000
     4 C4         1.7754   -19.2117    14.8410 C.3        1 BB1          0.0000
     5 C5         1.6657   -18.3998    13.5415 C.3        1 BB1          0.0000
     6 C6         2.8968   -17.5097    13.3473 C.3        1 BB1          0.0000
     7 N7         2.5989   -16.5143    12.3069 N.am       1 BB1          0.0000
     8 C8         1.5539   -15.5855    12.7500 C.3        1 BB1          0.0000
     9 C9         0.2299   -16.3411    12.9456 C.3        1 BB1          0.0000
    10 N10        0.5183   -17.5023    13.8003 N.am       1 BB1          0.0000
    11 H11        2.6756   -18.9351    15.3898 H          1 BB1          0.0000
    12 H12        1.7707   -20.2802    14.6258 H          1 BB1          0.0000
    13 H13        1.4995   -19.0450    12.6789 H          1 BB1          0.0000
    14 H14        3.1322   -17.0019    14.2826 H          1 BB1          0.0000
    15 H15        3.7444   -18.1206    13.0368 H          1 BB1          0.0000
    16 H16        1.8524   -15.1280    13.6932 H          1 BB1          0.0000
    17 H17        1.4190   -14.8074    11.9987 H          1 BB1          0.0000
    18 H18       -0.5004   -15.6931    13.4300 H          1 BB1          0.0000
    19 H19       -0.1518   -16.6787    11.9821 H          1 BB1          0.0000
    20 C2        -0.0992   -16.0437    11.1864 C.2        2 BB2          0.0000
    21 O3         0.1100   -15.6461    12.3241 O.2        2 BB2          0.0000
    22 C4        -0.0979   -15.0920    10.0614 C.ar       2 BB2          0.0000
    23 C5        -0.0950   -13.7157    10.3052 C.ar       2 BB2          0.0000
    24 C6        -0.0937   -12.8313     9.2479 C.ar       2 BB2          0.0000
    25 C7        -0.0957   -13.3016     7.9456 C.ar       2 BB2          0.0000
    26 C8        -0.0987   -14.6609     7.6932 C.ar       2 BB2          0.0000
    27 C9        -0.0936   -15.5616     8.7423 C.ar       2 BB2          0.0000
    28 F10       -0.0964   -16.8898     8.4955 F          2 BB2          0.0000
    29 S11       -0.0901   -11.0963     9.5546 S.o2       2 BB2          0.0000
    30 O12        1.2590   -10.8027     9.8907 O.2        2 BB2          0.0000
    31 O13       -0.6960   -10.5347     8.3985 O.2        2 BB2          0.0000
    32 C14       -1.1656   -10.8901    11.0008 C.3        2 BB2          0.0000
    33 C15       -2.3179    -9.9470    10.6491 C.3        2 BB2          0.0000
    34 C16       -3.4317   -10.7237    10.0809 C.1        2 BB2          0.0000
    35 C17       -4.3201   -11.3431     9.6277 C.1        2 BB2          0.0000
    36 H18       -0.0940   -13.3459    11.3199 H          2 BB2          0.0000
    37 H19       -0.0955   -12.6026     7.1222 H          2 BB2          0.0000
    38 H20       -0.1002   -15.0199     6.6747 H          2 BB2          0.0000
    39 H21       -1.5669   -11.8595    11.2963 H          2 BB2          0.0000
    40 H22       -0.5898   -10.4688    11.8248 H          2 BB2          0.0000
    41 H23       -2.6551    -9.4338    11.5497 H          2 BB2          0.0000
    42 H24       -1.9769    -9.2132     9.9188 H          2 BB2          0.0000
    43 H25       -5.1147   -11.8971     9.2224 H          2 BB2          0.0000
@<TRIPOS>BOND
     1      1      2 2
     2      2      3 1
     3      2     10 am
     4      3      4 1
     5      4      5 1
     6      4     11 1
     7      4     12 1
     8      5      6 1
     9      5     10 1
    10      5     13 1
    11      6      7 1
    12      6     14 1
    13      6     15 1
    14      7      8 1
    15      8      9 1
    16      8     16 1
    17      8     17 1
    18      9     10 1
    19      9     18 1
    20      9     19 1
    21     20     21 2
    22     20     22 1
    23     22     23 ar
    24     22     27 ar
    25     23     24 ar
    26     23     36 1
    27     24     25 ar
    28     24     29 1
    29     25     26 ar
    30     25     37 1
    31     26     27 ar
    32     26     38 1
    33     27     28 1
    34     29     30 2
    35     29     31 2
    36     29     32 1
    37     32     33 1
    38     32     39 1
    39     32     40 1
    40     33     34 1
    41     33     41 1
    42     33     42 1
    43     34     35 3
    44     35     43 1
    45      7     20 am
@<TRIPOS>SUBSTRUCTURE
     1 BB1           7
     2 BB2          20
@<TRIPOS>MOLECULE
EN300-109827_i001_EN300-1198129_i001_11_20_1
  43   45   2   0   0
SMALL
USER_CHARGES
@<TRIPOS>ATOM
     1 O1        -1.1850   -17.4827    15.2582 O.2        1 BB1          0.0000
     2 C2        -0.1023   -17.9078    14.9066 C.2        1 BB1          0.0000
     3 O3         0.5822   -18.8354    15.5918 O.3        1 BB1          0.0000
     4 C4         1.7754   -19.2117    14.8410 C.3        1 BB1          0.0000
     5 C5         1.6657   -18.3998    13.5415 C.3        1 BB1          0.0000
     6 C6         2.8968   -17.5097    13.3473 C.3        1 BB1          0.0000
     7 N7         2.5989   -16.5143    12.3069 N.am       1 BB1          0.0000
     8 C8         1.5539   -15.5855    12.7500 C.3        1 BB1          0.0000
     9 C9         0.2299   -16.3411    12.9456 C.3        1 BB1          0.0000
    10 N10        0.5183   -17.5023    13.8003 N.am       1 BB1          0.0000
    11 H11        2.6756   -18.9351    15.3898 H          1 BB1          0.0000
    12 H12        1.7707   -20.2802    14.6258 H          1 BB1          0.0000
    13 H13        1.4995   -19.0450    12.6789 H          1 BB1          0.0000
    14 H14        3.1322   -17.0019    14.2826 H          1 BB1          0.0000
    15 H15        3.7444   -18.1206    13.0368 H          1 BB1          0.0000
    16 H16        1.8524   -15.1280    13.6932 H          1 BB1          0.0000
    17 H17        1.4190   -14.8074    11.9987 H          1 BB1          0.0000
    18 H18       -0.5004   -15.6931    13.4300 H          1 BB1          0.0000
    19 H19       -0.1518   -16.6787    11.9821 H          1 BB1          0.0000
    20 C2        -0.1937   -16.6148    12.6241 C.2        2 BB2          0.0000
    21 O3         0.2683   -15.5959    13.1188 O.2        2 BB2          0.0000
    22 C4        -0.2826   -16.7479    11.1594 C.ar       2 BB2          0.0000
    23 C5        -0.0167   -15.6498    10.3364 C.ar       2 BB2          0.0000
    24 C6        -0.1019   -15.7818     8.9670 C.ar       2 BB2          0.0000
    25 C7        -0.4502   -16.9979     8.4040 C.ar       2 BB2          0.0000
    26 C8        -0.7154   -18.0904     9.2087 C.ar       2 BB2          0.0000
    27 C9        -0.6283   -17.9768    10.5840 C.ar       2 BB2          0.0000
    28 F10       -0.8874   -19.0445    11.3701 F          2 BB2          0.0000
    29 S11        0.2332   -14.3978     7.9292 S.o2       2 BB2          0.0000
    30 O12        1.5821   -14.5831     7.5228 O.2        2 BB2          0.0000
    31 O13       -0.8253   -14.4062     6.9813 O.2        2 BB2          0.0000
    32 C14        0.0912   -12.9624     9.0292 C.3        2 BB2          0.0000
    33 C15        0.0804   -11.6798     8.1950 C.3        2 BB2          0.0000
    34 C16        0.9386   -11.8565     7.0122 C.1        2 BB2          0.0000
    35 C17        1.6231   -11.9973     6.0689 C.1        2 BB2          0.0000
    36 H18        0.2546   -14.6998    10.7727 H          2 BB2          0.0000
    37 H19       -0.5157   -17.0934     7.3302 H          2 BB2          0.0000
    38 H20       -0.9864   -19.0355     8.7621 H          2 BB2          0.0000
    39 H21       -0.8347   -13.0323     9.6001 H          2 BB2          0.0000
    40 H22        0.9394   -12.9436     9.7135 H          2 BB2          0.0000
    41 H23       -0.9389   -11.4631     7.8752 H          2 BB2          0.0000
    42 H24        0.4563   -10.8521     8.7964 H          2 BB2          0.0000
    43 H25        2.2353   -12.1232     5.2251 H          2 BB2          0.0000
@<TRIPOS>BOND
     1      1      2 2
     2      2      3 1
     3      2     10 am
     4      3      4 1
     5      4      5 1
     6      4     11 1
     7      4     12 1
     8      5      6 1
     9      5     10 1
    10      5     13 1
    11      6      7 1
    12      6     14 1
    13      6     15 1
    14      7      8 1
    15      8      9 1
    16      8     16 1
    17      8     17 1
    18      9     10 1
    19      9     18 1
    20      9     19 1
    21     20     21 2
    22     20     22 1
    23     22     23 ar
    24     22     27 ar
    25     23     24 ar
    26     23     36 1
    27     24     25 ar
    28     24     29 1
    29     25     26 ar
    30     25     37 1
    31     26     27 ar
    32     26     38 1
    33     27     28 1
    34     29     30 2
    35     29     31 2
    36     29     32 1
    37     32     33 1
    38     32     39 1
    39     32     40 1
    40     33     34 1
    41     33     41 1
    42     33     42 1
    43     34     35 3
    44     35     43 1
    45      7     20 am
@<TRIPOS>SUBSTRUCTURE
     1 BB1           7
     2 BB2          20
@<TRIPOS>MOLECULE
EN300-109827_i001_EN300-1198129_i001_11_9_1
  43   45   2   0   0
SMALL
USER_CHARGES
@<TRIPOS>ATOM
     1 O1        -1.1850   -17.4827    15.2582 O.2        1 BB1          0.0000
     2 C2        -0.1023   -17.9078    14.9066 C.2        1 BB1          0.0000
     3 O3         0.5822   -18.8354    15.5918 O.3        1 BB1          0.0000
     4 C4         1.7754   -19.2117    14.8410 C.3        1 BB1          0.0000
     5 C5         1.6657   -18.3998    13.5415 C.3        1 BB1          0.0000
     6 C6         2.8968   -17.5097    13.3473 C.3        1 BB1          0.0000
     7 N7         2.5989   -16.5143    12.3069 N.am       1 BB1          0.0000
     8 C8         1.5539   -15.5855    12.7500 C.3        1 BB1          0.0000
     9 C9         0.2299   -16.3411    12.9456 C.3        1 BB1          0.0000
    10 N10        0.5183   -17.5023    13.8003 N.am       1 BB1          0.0000
    11 H11        2.6756   -18.9351    15.3898 H          1 BB1          0.0000
    12 H12        1.7707   -20.2802    14.6258 H          1 BB1          0.0000
    13 H13        1.4995   -19.0450    12.6789 H          1 BB1          0.0000
    14 H14        3.1322   -17.0019    14.2826 H          1 BB1          0.0000
    15 H15        3.7444   -18.1206    13.0368 H          1 BB1          0.0000
    16 H16        1.8524   -15.1280    13.6932 H          1 BB1          0.0000
    17 H17        1.4190   -14.8074    11.9987 H          1 BB1          0.0000
    18 H18       -0.5004   -15.6931    13.4300 H          1 BB1          0.0000
    19 H19       -0.1518   -16.6787    11.9821 H          1 BB1          0.0000
    20 O1         0.0714   -15.4953    13.0118 O.2        2 BB2          0.0000
    21 C2        -0.3298   -16.2651    12.1501 C.2        2 BB2          0.0000
    22 C4        -0.2777   -15.8739    10.7304 C.ar       2 BB2          0.0000
    23 C5        -0.0559   -14.5399    10.3768 C.ar       2 BB2          0.0000
    24 C6        -0.0084   -14.1812     9.0467 C.ar       2 BB2          0.0000
    25 C7        -0.1800   -15.1375     8.0601 C.ar       2 BB2          0.0000
    26 C8        -0.4001   -16.4597     8.3988 C.ar       2 BB2          0.0000
    27 C9        -0.4444   -16.8374     9.7282 C.ar       2 BB2          0.0000
    28 F10       -0.6594   -18.1295    10.0590 F          2 BB2          0.0000
    29 S11        0.2712   -12.4998     8.6004 S.o2       2 BB2          0.0000
    30 O12        1.1192   -12.0014     9.6259 O.2        2 BB2          0.0000
    31 O13        0.7129   -12.5641     7.2513 O.2        2 BB2          0.0000
    32 C14       -1.3671   -11.7273     8.6976 C.3        2 BB2          0.0000
    33 C15       -1.8344   -11.7042    10.1543 C.3        2 BB2          0.0000
    34 C16       -3.1653   -11.0801    10.2329 C.1        2 BB2          0.0000
    35 C17       -4.2268   -10.5825    10.2955 C.1        2 BB2          0.0000
    36 H18        0.0778   -13.7917    11.1441 H          2 BB2          0.0000
    37 H19       -0.1423   -14.8487     7.0201 H          2 BB2          0.0000
    38 H20       -0.5331   -17.1996     7.6236 H          2 BB2          0.0000
    39 H21       -1.3110   -10.7072     8.3179 H          2 BB2          0.0000
    40 H22       -2.0750   -12.2997     8.0981 H          2 BB2          0.0000
    41 H23       -1.8885   -12.7242    10.5348 H          2 BB2          0.0000
    42 H24       -1.1279   -11.1298    10.7535 H          2 BB2          0.0000
    43 H25       -5.1762   -10.1374    10.3514 H          2 BB2          0.0000
@<TRIPOS>BOND
     1      1      2 2
     2      2      3 1
     3      2     10 am
     4      3      4 1
     5      4      5 1
     6      4     11 1
     7      4     12 1
     8      5      6 1
     9      5     10 1
    10      5     13 1
    11      6      7 1
    12      6     14 1
    13      6     15 1
    14      7      8 1
    15      8      9 1
    16      8     16 1
    17      8     17 1
    18      9     10 1
    19      9     18 1
    20      9     19 1
    21     20     21 2
    22     21     22 1
    23     22     23 ar
    24     22     27 ar
    25     23     24 ar
    26     23     36 1
    27     24     25 ar
    28     24     29 1
    29     25     26 ar
    30     25     37 1
    31     26     27 ar
    32     26     38 1
    33     27     28 1
    34     29     30 2
    35     29     31 2
    36     29     32 1
    37     32     33 1
    38     32     39 1
    39     32     40 1
    40     33     34 1
    41     33     41 1
    42     33     42 1
    43     34     35 3
    44     35     43 1
    45      7     21 am
@<TRIPOS>SUBSTRUCTURE
     1 BB1           7
     2 BB2          21
@<TRIPOS>MOLECULE
EN300-109827_i001_EN300-19857_i001_11_19_1
  32   34   2   0   0
SMALL
USER_CHARGES
@<TRIPOS>ATOM
     1 O1        -1.1850   -17.4827    15.2582 O.2        1 BB1          0.0000
     2 C2        -0.1023   -17.9078    14.9066 C.2        1 BB1          0.0000
     3 O3         0.5822   -18.8354    15.5918 O.3        1 BB1          0.0000
     4 C4         1.7754   -19.2117    14.8410 C.3        1 BB1          0.0000
     5 C5         1.6657   -18.3998    13.5415 C.3        1 BB1          0.0000
     6 C6         2.8968   -17.5097    13.3473 C.3        1 BB1          0.0000
     7 N7         2.5989   -16.5143    12.3069 N.am       1 BB1          0.0000
     8 C8         1.5539   -15.5855    12.7500 C.3        1 BB1          0.0000
     9 C9         0.2299   -16.3411    12.9456 C.3        1 BB1          0.0000
    10 N10        0.5183   -17.5023    13.8003 N.am       1 BB1          0.0000
    11 H11        2.6756   -18.9351    15.3898 H          1 BB1          0.0000
    12 H12        1.7707   -20.2802    14.6258 H          1 BB1          0.0000
    13 H13        1.4995   -19.0450    12.6789 H          1 BB1          0.0000
    14 H14        3.1322   -17.0019    14.2826 H          1 BB1          0.0000
    15 H15        3.7444   -18.1206    13.0368 H          1 BB1          0.0000
    16 H16        1.8524   -15.1280    13.6932 H          1 BB1          0.0000
    17 H17        1.4190   -14.8074    11.9987 H          1 BB1          0.0000
    18 H18       -0.5004   -15.6931    13.4300 H          1 BB1          0.0000
    19 H19       -0.1518   -16.6787    11.9821 H          1 BB1          0.0000
    20 O1         0.4960   -16.3601    11.6857 O.2        2 BB2          0.0000
    21 C2         0.1084   -15.2492    12.0190 C.2        2 BB2          0.0000
    22 C4        -0.1003   -14.2039    10.9989 C.ar       2 BB2          0.0000
    23 C5         0.6067   -14.2472     9.7949 C.ar       2 BB2          0.0000
    24 C6         0.4070   -13.2666     8.8454 C.ar       2 BB2          0.0000
    25 C7        -0.4913   -12.2416     9.0830 C.ar       2 BB2          0.0000
    26 C8        -1.1956   -12.1914    10.2743 C.ar       2 BB2          0.0000
    27 Br9       -2.4207   -10.7854    10.5877 Br         2 BB2          0.0000
    28 C10       -1.0103   -13.1691    11.2304 C.ar       2 BB2          0.0000
    29 H11        1.3085   -15.0465     9.6080 H          2 BB2          0.0000
    30 H12        0.9533   -13.2990     7.9144 H          2 BB2          0.0000
    31 H13       -0.6436   -11.4766     8.3360 H          2 BB2          0.0000
    32 H14       -1.5600   -13.1293    12.1592 H          2 BB2          0.0000
@<TRIPOS>BOND
     1      1      2 2
     2      2      3 1
     3      2     10 am
     4      3      4 1
     5      4      5 1
     6      4     11 1
     7      4     12 1
     8      5      6 1
     9      5     10 1
    10      5     13 1
    11      6      7 1
    12      6     14 1
    13      6     15 1
    14      7      8 1
    15      8      9 1
    16      8     16 1
    17      8     17 1
    18      9     10 1
    19      9     18 1
    20      9     19 1
    21     20     21 2
    22     21     22 1
    23     22     23 ar
    24     22     28 ar
    25     23     24 ar
    26     23     29 1
    27     24     25 ar
    28     24     30 1
    29     25     26 ar
    30     25     31 1
    31     26     27 1
    32     26     28 ar
    33     28     32 1
    34      7     21 am
@<TRIPOS>SUBSTRUCTURE
     1 BB1           7
     2 BB2          21
@<TRIPOS>MOLECULE
EN300-109827_i001_EN300-97777_i001_11_3_1
  47   48   2   0   0
SMALL
USER_CHARGES
@<TRIPOS>ATOM
     1 O1        -1.1850   -17.4827    15.2582 O.2        1 BB1          0.0000
     2 C2        -0.1023   -17.9078    14.9066 C.2        1 BB1          0.0000
     3 O3         0.5822   -18.8354    15.5918 O.3        1 BB1          0.0000
     4 C4         1.7754   -19.2117    14.8410 C.3        1 BB1          0.0000
     5 C5         1.6657   -18.3998    13.5415 C.3        1 BB1          0.0000
     6 C6         2.8968   -17.5097    13.3473 C.3        1 BB1          0.0000
     7 N7         2.5989   -16.5143    12.3069 N.am       1 BB1          0.0000
     8 C8         1.5539   -15.5855    12.7500 C.3        1 BB1          0.0000
     9 C9         0.2299   -16.3411    12.9456 C.3        1 BB1          0.0000
    10 N10        0.5183   -17.5023    13.8003 N.am       1 BB1          0.0000
    11 H11        2.6756   -18.9351    15.3898 H          1 BB1          0.0000
    12 H12        1.7707   -20.2802    14.6258 H          1 BB1          0.0000
    13 H13        1.4995   -19.0450    12.6789 H          1 BB1          0.0000
    14 H14        3.1322   -17.0019    14.2826 H          1 BB1          0.0000
    15 H15        3.7444   -18.1206    13.0368 H          1 BB1          0.0000
    16 H16        1.8524   -15.1280    13.6932 H          1 BB1          0.0000
    17 H17        1.4190   -14.8074    11.9987 H          1 BB1          0.0000
    18 H18       -0.5004   -15.6931    13.4300 H          1 BB1          0.0000
    19 H19       -0.1518   -16.6787    11.9821 H          1 BB1          0.0000
    20 C1        -1.5392   -10.5689    11.7089 C.3        2 BB2          0.0000
    21 C2        -1.5677   -11.2425    10.3355 C.3        2 BB2          0.0000
    22 C3        -2.9433   -11.8711    10.1040 C.3        2 BB2          0.0000
    23 C4        -1.2944   -10.1995     9.2500 C.3        2 BB2          0.0000
    24 O5        -0.5485   -12.2753    10.2818 O.3        2 BB2          0.0000
    25 C6        -0.7051   -13.3319    11.1016 C.2        2 BB2          0.0000
    26 O7        -1.5463   -13.3014    11.9779 O.2        2 BB2          0.0000
    27 N8         0.0712   -14.4232    10.9502 N.am       2 BB2          0.0000
    28 C9         1.0854   -14.4598     9.8936 C.3        2 BB2          0.0000
    29 C10        0.4242   -14.4570     8.5785 C.1        2 BB2          0.0000
    30 C11       -0.1031   -14.4548     7.5296 C.1        2 BB2          0.0000
    31 C12       -0.0992   -15.5728    11.8422 C.3        2 BB2          0.0000
    32 C13        1.0675   -15.6478    12.7932 C.2        2 BB2          0.0000
    33 O14        2.2016   -15.7569    12.3594 O.2        2 BB2          0.0000
    34 H16       -1.7339   -11.3120    12.4821 H          2 BB2          0.0000
    35 H17       -0.5592   -10.1211    11.8737 H          2 BB2          0.0000
    36 H18       -2.3044    -9.7936    11.7492 H          2 BB2          0.0000
    37 H19       -3.7084   -11.0958    10.1443 H          2 BB2          0.0000
    38 H20       -2.9635   -12.3511     9.1256 H          2 BB2          0.0000
    39 H21       -3.1380   -12.6142    10.8774 H          2 BB2          0.0000
    40 H22       -0.3143    -9.7517     9.4149 H          2 BB2          0.0000
    41 H23       -1.3146   -10.6794     8.2715 H          2 BB2          0.0000
    42 H24       -2.0595    -9.4243     9.2903 H          2 BB2          0.0000
    43 H25        1.7298   -13.5849     9.9782 H          2 BB2          0.0000
    44 H26        1.6851   -15.3641     9.9968 H          2 BB2          0.0000
    45 H27       -0.5748   -14.4528     6.5915 H          2 BB2          0.0000
    46 H28       -1.0232   -15.4590    12.4091 H          2 BB2          0.0000
    47 H29       -0.1456   -16.4875    11.2513 H          2 BB2          0.0000
@<TRIPOS>BOND
     1      1      2 2
     2      2      3 1
     3      2     10 am
     4      3      4 1
     5      4      5 1
     6      4     11 1
     7      4     12 1
     8      5      6 1
     9      5     10 1
    10      5     13 1
    11      6      7 1
    12      6     14 1
    13      6     15 1
    14      7      8 1
    15      8      9 1
    16      8     16 1
    17      8     17 1
    18      9     10 1
    19      9     18 1
    20      9     19 1
    21     20     21 1
    22     20     34 1
    23     20     35 1
    24     20     36 1
    25     21     22 1
    26     21     23 1
    27     21     24 1
    28     22     37 1
    29     22     38 1
    30     22     39 1
    31     23     40 1
    32     23     41 1
    33     23     42 1
    34     24     25 1
    35     25     26 2
    36     25     27 am
    37     27     28 1
    38     27     31 1
    39     28     29 1
    40     28     43 1
    41     28     44 1
    42     29     30 3
    43     30     45 1
    44     31     32 1
    45     31     46 1
    46     31     47 1
    47     32     33 2
    48      7     32 am
@<TRIPOS>SUBSTRUCTURE
     1 BB1           7
     2 BB2          32
@<TRIPOS>MOLECULE
EN300-109827_i001_EN300-194291_i002_11_12_1
  43   46   2   0   0
SMALL
USER_CHARGES
@<TRIPOS>ATOM
     1 O1        -1.1850   -17.4827    15.2582 O.2        1 BB1          0.0000
     2 C2        -0.1023   -17.9078    14.9066 C.2        1 BB1          0.0000
     3 O3         0.5822   -18.8354    15.5918 O.3        1 BB1          0.0000
     4 C4         1.7754   -19.2117    14.8410 C.3        1 BB1          0.0000
     5 C5         1.6657   -18.3998    13.5415 C.3        1 BB1          0.0000
     6 C6         2.8968   -17.5097    13.3473 C.3        1 BB1          0.0000
     7 N7         2.5989   -16.5143    12.3069 N.am       1 BB1          0.0000
     8 C8         1.5539   -15.5855    12.7500 C.3        1 BB1          0.0000
     9 C9         0.2299   -16.3411    12.9456 C.3        1 BB1          0.0000
    10 N10        0.5183   -17.5023    13.8003 N.am       1 BB1          0.0000
    11 H11        2.6756   -18.9351    15.3898 H          1 BB1          0.0000
    12 H12        1.7707   -20.2802    14.6258 H          1 BB1          0.0000
    13 H13        1.4995   -19.0450    12.6789 H          1 BB1          0.0000
    14 H14        3.1322   -17.0019    14.2826 H          1 BB1          0.0000
    15 H15        3.7444   -18.1206    13.0368 H          1 BB1          0.0000
    16 H16        1.8524   -15.1280    13.6932 H          1 BB1          0.0000
    17 H17        1.4190   -14.8074    11.9987 H          1 BB1          0.0000
    18 H18       -0.5004   -15.6931    13.4300 H          1 BB1          0.0000
    19 H19       -0.1518   -16.6787    11.9821 H          1 BB1          0.0000
    20 O1         1.9320   -16.0914    13.2909 O.2        2 BB2          0.0000
    21 C2         0.7456   -15.8133    13.3301 C.2        2 BB2          0.0000
    22 C4         0.0314   -15.3798    12.0758 C.3        2 BB2          0.0000
    23 C5        -0.7148   -14.0455    12.2975 C.3        2 BB2          0.0000
    24 N6        -0.5862   -13.3104    11.0337 N.am       2 BB2          0.0000
    25 C7         0.3960   -13.8196    10.2703 C.2        2 BB2          0.0000
    26 O8         0.7185   -13.3971     9.1801 O.2        2 BB2          0.0000
    27 C9         1.0406   -14.9966    10.9688 C.3        2 BB2          0.0000
    28 C10       -1.3839   -12.2184    10.6702 C.ar       2 BB2          0.0000
    29 C11       -0.8494   -10.9372    10.6692 C.ar       2 BB2          0.0000
    30 C12       -1.6370    -9.8604    10.3100 C.ar       2 BB2          0.0000
    31 C13       -2.9591   -10.0573     9.9514 C.ar       2 BB2          0.0000
    32 F14       -3.7273    -9.0028     9.6005 F          2 BB2          0.0000
    33 C15       -3.4960   -11.3363     9.9514 C.ar       2 BB2          0.0000
    34 F16       -4.7867   -11.5269     9.6006 F          2 BB2          0.0000
    35 C17       -2.7088   -12.4167    10.3049 C.ar       2 BB2          0.0000
    36 H18       -0.6515   -16.1560    11.7302 H          2 BB2          0.0000
    37 H19       -1.7653   -14.2332    12.5195 H          2 BB2          0.0000
    38 H20       -0.2513   -13.4845    13.1090 H          2 BB2          0.0000
    39 H21        1.9949   -14.7042    11.4071 H          2 BB2          0.0000
    40 H22        1.1770   -15.8249    10.2735 H          2 BB2          0.0000
    41 H23        0.1820   -10.7822    10.9496 H          2 BB2          0.0000
    42 H24       -1.2207    -8.8639    10.3094 H          2 BB2          0.0000
    43 H25       -3.1263   -13.4128    10.3050 H          2 BB2          0.0000
@<TRIPOS>BOND
     1      1      2 2
     2      2      3 1
     3      2     10 am
     4      3      4 1
     5      4      5 1
     6      4     11 1
     7      4     12 1
     8      5      6 1
     9      5     10 1
    10      5     13 1
    11      6      7 1
    12      6     14 1
    13      6     15 1
    14      7      8 1
    15      8      9 1
    16      8     16 1
    17      8     17 1
    18      9     10 1
    19      9     18 1
    20      9     19 1
    21     20     21 2
    22     21     22 1
    23     22     23 1
    24     22     27 1
    25     22     36 1
    26     23     24 1
    27     23     37 1
    28     23     38 1
    29     24     25 am
    30     24     28 1
    31     25     26 2
    32     25     27 1
    33     27     39 1
    34     27     40 1
    35     28     29 ar
    36     28     35 ar
    37     29     30 ar
    38     29     41 1
    39     30     31 ar
    40     30     42 1
    41     31     32 1
    42     31     33 ar
    43     33     34 1
    44     33     35 ar
    45     35     43 1
    46      7     21 am
@<TRIPOS>SUBSTRUCTURE
     1 BB1           7
     2 BB2          21
@<TRIPOS>MOLECULE
EN300-109827_i001_EN300-194291_i002_11_16_1
  43   46   2   0   0
SMALL
USER_CHARGES
@<TRIPOS>ATOM
     1 O1        -1.1850   -17.4827    15.2582 O.2        1 BB1          0.0000
     2 C2        -0.1023   -17.9078    14.9066 C.2        1 BB1          0.0000
     3 O3         0.5822   -18.8354    15.5918 O.3        1 BB1          0.0000
     4 C4         1.7754   -19.2117    14.8410 C.3        1 BB1          0.0000
     5 C5         1.6657   -18.3998    13.5415 C.3        1 BB1          0.0000
     6 C6         2.8968   -17.5097    13.3473 C.3        1 BB1          0.0000
     7 N7         2.5989   -16.5143    12.3069 N.am       1 BB1          0.0000
     8 C8         1.5539   -15.5855    12.7500 C.3        1 BB1          0.0000
     9 C9         0.2299   -16.3411    12.9456 C.3        1 BB1          0.0000
    10 N10        0.5183   -17.5023    13.8003 N.am       1 BB1          0.0000
    11 H11        2.6756   -18.9351    15.3898 H          1 BB1          0.0000
    12 H12        1.7707   -20.2802    14.6258 H          1 BB1          0.0000
    13 H13        1.4995   -19.0450    12.6789 H          1 BB1          0.0000
    14 H14        3.1322   -17.0019    14.2826 H          1 BB1          0.0000
    15 H15        3.7444   -18.1206    13.0368 H          1 BB1          0.0000
    16 H16        1.8524   -15.1280    13.6932 H          1 BB1          0.0000
    17 H17        1.4190   -14.8074    11.9987 H          1 BB1          0.0000
    18 H18       -0.5004   -15.6931    13.4300 H          1 BB1          0.0000
    19 H19       -0.1518   -16.6787    11.9821 H          1 BB1          0.0000
    20 C2         0.9864   -15.6654    12.0206 C.2        2 BB2          0.0000
    21 O3         2.1974   -15.5995    12.1456 O.2        2 BB2          0.0000
    22 C4         0.3162   -15.0305    10.8295 C.3        2 BB2          0.0000
    23 C5        -0.7059   -13.9613    11.2751 C.3        2 BB2          0.0000
    24 N6        -0.6164   -12.8925    10.2732 N.am       2 BB2          0.0000
    25 C7         0.5153   -12.9905     9.5545 C.2        2 BB2          0.0000
    26 O8         0.8423   -12.2317     8.6666 O.2        2 BB2          0.0000
    27 C9         1.3218   -14.1850    10.0143 C.3        2 BB2          0.0000
    28 C10       -1.5851   -11.8982    10.0900 C.ar       2 BB2          0.0000
    29 C11       -1.1994   -10.5761     9.9146 C.ar       2 BB2          0.0000
    30 C12       -2.1559    -9.5957     9.7334 C.ar       2 BB2          0.0000
    31 C13       -3.4988    -9.9298     9.7271 C.ar       2 BB2          0.0000
    32 F14       -4.4322    -8.9694     9.5498 F          2 BB2          0.0000
    33 C15       -3.8874   -11.2498     9.9021 C.ar       2 BB2          0.0000
    34 F16       -5.1988   -11.5745     9.8952 F          2 BB2          0.0000
    35 C17       -2.9323   -12.2343    10.0779 C.ar       2 BB2          0.0000
    36 H18       -0.1577   -15.7858    10.2026 H          2 BB2          0.0000
    37 H19       -1.7111   -14.3826    11.2883 H          2 BB2          0.0000
    38 H20       -0.4442   -13.5770    12.2610 H          2 BB2          0.0000
    39 H21        2.1512   -13.8654    10.6453 H          2 BB2          0.0000
    40 H22        1.6889   -14.7501     9.1575 H          2 BB2          0.0000
    41 H23       -0.1517   -10.3141     9.9201 H          2 BB2          0.0000
    42 H24       -1.8553    -8.5674     9.5970 H          2 BB2          0.0000
    43 H25       -3.2342   -13.2622    10.2142 H          2 BB2          0.0000
@<TRIPOS>BOND
     1      1      2 2
     2      2      3 1
     3      2     10 am
     4      3      4 1
     5      4      5 1
     6      4     11 1
     7      4     12 1
     8      5      6 1
     9      5     10 1
    10      5     13 1
    11      6      7 1
    12      6     14 1
    13      6     15 1
    14      7      8 1
    15      8      9 1
    16      8     16 1
    17      8     17 1
    18      9     10 1
    19      9     18 1
    20      9     19 1
    21     20     21 2
    22     20     22 1
    23     22     23 1
    24     22     27 1
    25     22     36 1
    26     23     24 1
    27     23     37 1
    28     23     38 1
    29     24     25 am
    30     24     28 1
    31     25     26 2
    32     25     27 1
    33     27     39 1
    34     27     40 1
    35     28     29 ar
    36     28     35 ar
    37     29     30 ar
    38     29     41 1
    39     30     31 ar
    40     30     42 1
    41     31     32 1
    42     31     33 ar
    43     33     34 1
    44     33     35 ar
    45     35     43 1
    46      7     20 am
@<TRIPOS>SUBSTRUCTURE
     1 BB1           7
     2 BB2          20
@<TRIPOS>MOLECULE
EN300-109827_i001_EN300-4287209_i001_13_4_1
  34   36   2   0   0
SMALL
USER_CHARGES
@<TRIPOS>ATOM
     1 O1         0.2009   -11.0230     7.5033 O.2        1 BB1          0.0000
     2 C2         0.4908   -12.1757     7.7562 C.2        1 BB1          0.0000
     3 O3         0.8229   -13.0742     6.8177 O.3        1 BB1          0.0000
     4 C4         1.2303   -14.3194     7.4601 C.3        1 BB1          0.0000
     5 C5         1.1544   -14.0029     8.9614 C.3        1 BB1          0.0000
     6 C6         0.2080   -14.9711     9.6773 C.3        1 BB1          0.0000
     7 N7        -0.1037   -14.4279    11.0075 N.am       1 BB1          0.0000
     8 C8        -0.8773   -13.1864    10.9018 C.3        1 BB1          0.0000
     9 C9        -0.0268   -12.0946    10.2333 C.3        1 BB1          0.0000
    10 N10        0.5152   -12.6689     8.9930 N.am       1 BB1          0.0000
    11 H11        0.5421   -15.1249     7.2039 H          1 BB1          0.0000
    12 H12        2.2495   -14.5809     7.1755 H          1 BB1          0.0000
    13 H13        2.1431   -13.9985     9.4203 H          1 BB1          0.0000
    14 H14       -0.7111   -15.0773     9.1009 H          1 BB1          0.0000
    15 H15        0.6904   -15.9429     9.7829 H          1 BB1          0.0000
    16 H16       -1.7706   -13.3662    10.3037 H          1 BB1          0.0000
    17 H17       -1.1709   -12.8569    11.8984 H          1 BB1          0.0000
    18 H18       -0.6469   -11.2281    10.0038 H          1 BB1          0.0000
    19 H19        0.7911   -11.8040    10.8927 H          1 BB1          0.0000
    20 O1        -0.1097   -14.9704    12.6208 O.2        2 BB2          0.0000
    21 C2         0.1374   -15.9786    13.2675 C.2        2 BB2          0.0000
    22 C4         0.0246   -17.3063    12.6353 C.ar       2 BB2          0.0000
    23 C5        -0.4127   -17.4178    11.3154 C.ar       2 BB2          0.0000
    24 C6        -0.5157   -18.6752    10.7265 C.ar       2 BB2          0.0000
    25 C7        -0.9632   -18.7981     9.3719 C.1        2 BB2          0.0000
    26 C8        -1.3302   -18.8989     8.2612 C.1        2 BB2          0.0000
    27 C9        -0.1813   -19.8166    11.4589 C.ar       2 BB2          0.0000
    28 C10        0.2505   -19.7020    12.7651 C.ar       2 BB2          0.0000
    29 C11        0.3614   -18.4578    13.3560 C.ar       2 BB2          0.0000
    30 Cl12       0.9055   -18.3238    14.9992 Cl         2 BB2          0.0000
    31 H13       -0.6705   -16.5327    10.7528 H          2 BB2          0.0000
    32 H14       -1.6582   -18.9891     7.2679 H          2 BB2          0.0000
    33 H15       -0.2613   -20.7919    11.0019 H          2 BB2          0.0000
    34 H16        0.5072   -20.5884    13.3261 H          2 BB2          0.0000
@<TRIPOS>BOND
     1      1      2 2
     2      2      3 1
     3      2     10 am
     4      3      4 1
     5      4      5 1
     6      4     11 1
     7      4     12 1
     8      5      6 1
     9      5     10 1
    10      5     13 1
    11      6      7 1
    12      6     14 1
    13      6     15 1
    14      7      8 1
    15      8      9 1
    16      8     16 1
    17      8     17 1
    18      9     10 1
    19      9     18 1
    20      9     19 1
    21     20     21 2
    22     21     22 1
    23     22     23 ar
    24     22     29 ar
    25     23     24 ar
    26     23     31 1
    27     24     25 1
    28     24     27 ar
    29     25     26 3
    30     26     32 1
    31     27     28 ar
    32     27     33 1
    33     28     29 ar
    34     28     34 1
    35     29     30 1
    36      7     21 am
@<TRIPOS>SUBSTRUCTURE
     1 BB1           7
     2 BB2          21
@<TRIPOS>MOLECULE
EN300-109827_i001_EN300-222254_i002_13_20_1
  42   45   2   0   0
SMALL
USER_CHARGES
@<TRIPOS>ATOM
     1 O1         0.2009   -11.0230     7.5033 O.2        1 BB1          0.0000
     2 C2         0.4908   -12.1757     7.7562 C.2        1 BB1          0.0000
     3 O3         0.8229   -13.0742     6.8177 O.3        1 BB1          0.0000
     4 C4         1.2303   -14.3194     7.4601 C.3        1 BB1          0.0000
     5 C5         1.1544   -14.0029     8.9614 C.3        1 BB1          0.0000
     6 C6         0.2080   -14.9711     9.6773 C.3        1 BB1          0.0000
     7 N7        -0.1037   -14.4279    11.0075 N.am       1 BB1          0.0000
     8 C8        -0.8773   -13.1864    10.9018 C.3        1 BB1          0.0000
     9 C9        -0.0268   -12.0946    10.2333 C.3        1 BB1          0.0000
    10 N10        0.5152   -12.6689     8.9930 N.am       1 BB1          0.0000
    11 H11        0.5421   -15.1249     7.2039 H          1 BB1          0.0000
    12 H12        2.2495   -14.5809     7.1755 H          1 BB1          0.0000
    13 H13        2.1431   -13.9985     9.4203 H          1 BB1          0.0000
    14 H14       -0.7111   -15.0773     9.1009 H          1 BB1          0.0000
    15 H15        0.6904   -15.9429     9.7829 H          1 BB1          0.0000
    16 H16       -1.7706   -13.3662    10.3037 H          1 BB1          0.0000
    17 H17       -1.1709   -12.8569    11.8984 H          1 BB1          0.0000
    18 H18       -0.6469   -11.2281    10.0038 H          1 BB1          0.0000
    19 H19        0.7911   -11.8040    10.8927 H          1 BB1          0.0000
    20 O1        -0.1937   -15.4726    12.3986 O.2        2 BB2          0.0000
    21 C2        -0.2904   -16.6423    12.7290 C.2        2 BB2          0.0000
    22 C4         0.4712   -17.1529    13.9248 C.3        2 BB2          0.0000
    23 C5         1.6394   -16.2452    14.3447 C.3        2 BB2          0.0000
    24 C6         2.4427   -17.5309    14.6026 C.3        2 BB2          0.0000
    25 C7         1.5260   -18.2160    13.5753 C.3        2 BB2          0.0000
    26 C8         1.1243   -19.6156    13.9636 C.ar       2 BB2          0.0000
    27 C9         0.6320   -19.8668    15.2300 C.ar       2 BB2          0.0000
    28 C10        0.2636   -21.1505    15.5872 C.ar       2 BB2          0.0000
    29 C11        0.3868   -22.1850    14.6770 C.ar       2 BB2          0.0000
    30 Cl12      -0.0766   -23.7965    15.1264 Cl         2 BB2          0.0000
    31 C13        0.8790   -21.9351    13.4085 C.ar       2 BB2          0.0000
    32 C14        1.2430   -20.6489    13.0492 C.ar       2 BB2          0.0000
    33 F15        1.7234   -20.4034    11.8106 F          2 BB2          0.0000
    34 H16       -0.1798   -17.4371    14.7515 H          2 BB2          0.0000
    35 H17        2.0357   -15.6387    13.5304 H          2 BB2          0.0000
    36 H18        1.4403   -15.6665    15.2467 H          2 BB2          0.0000
    37 H19        3.4833   -17.4666    14.2848 H          2 BB2          0.0000
    38 H20        2.3314   -17.9196    15.6148 H          2 BB2          0.0000
    39 H21        1.8913   -18.1483    12.5506 H          2 BB2          0.0000
    40 H22        0.5354   -19.0599    15.9414 H          2 BB2          0.0000
    41 H23       -0.1204   -21.3460    16.5776 H          2 BB2          0.0000
    42 H24        0.9754   -22.7424    12.6977 H          2 BB2          0.0000
@<TRIPOS>BOND
     1      1      2 2
     2      2      3 1
     3      2     10 am
     4      3      4 1
     5      4      5 1
     6      4     11 1
     7      4     12 1
     8      5      6 1
     9      5     10 1
    10      5     13 1
    11      6      7 1
    12      6     14 1
    13      6     15 1
    14      7      8 1
    15      8      9 1
    16      8     16 1
    17      8     17 1
    18      9     10 1
    19      9     18 1
    20      9     19 1
    21     20     21 2
    22     21     22 1
    23     22     23 1
    24     22     25 1
    25     22     34 1
    26     23     24 1
    27     23     35 1
    28     23     36 1
    29     24     25 1
    30     24     37 1
    31     24     38 1
    32     25     26 1
    33     25     39 1
    34     26     27 ar
    35     26     32 ar
    36     27     28 ar
    37     27     40 1
    38     28     29 ar
    39     28     41 1
    40     29     30 1
    41     29     31 ar
    42     31     32 ar
    43     31     42 1
    44     32     33 1
    45      7     21 am
@<TRIPOS>SUBSTRUCTURE
     1 BB1           7
     2 BB2          21
@<TRIPOS>MOLECULE
EN300-109827_i001_EN300-34862_i002_13_15_1
  31   33   2   0   0
SMALL
USER_CHARGES
@<TRIPOS>ATOM
     1 O1         0.2009   -11.0230     7.5033 O.2        1 BB1          0.0000
     2 C2         0.4908   -12.1757     7.7562 C.2        1 BB1          0.0000
     3 O3         0.8229   -13.0742     6.8177 O.3        1 BB1          0.0000
     4 C4         1.2303   -14.3194     7.4601 C.3        1 BB1          0.0000
     5 C5         1.1544   -14.0029     8.9614 C.3        1 BB1          0.0000
     6 C6         0.2080   -14.9711     9.6773 C.3        1 BB1          0.0000
     7 N7        -0.1037   -14.4279    11.0075 N.am       1 BB1          0.0000
     8 C8        -0.8773   -13.1864    10.9018 C.3        1 BB1          0.0000
     9 C9        -0.0268   -12.0946    10.2333 C.3        1 BB1          0.0000
    10 N10        0.5152   -12.6689     8.9930 N.am       1 BB1          0.0000
    11 H11        0.5421   -15.1249     7.2039 H          1 BB1          0.0000
    12 H12        2.2495   -14.5809     7.1755 H          1 BB1          0.0000
    13 H13        2.1431   -13.9985     9.4203 H          1 BB1          0.0000
    14 H14       -0.7111   -15.0773     9.1009 H          1 BB1          0.0000
    15 H15        0.6904   -15.9429     9.7829 H          1 BB1          0.0000
    16 H16       -1.7706   -13.3662    10.3037 H          1 BB1          0.0000
    17 H17       -1.1709   -12.8569    11.8984 H          1 BB1          0.0000
    18 H18       -0.6469   -11.2281    10.0038 H          1 BB1          0.0000
    19 H19        0.7911   -11.8040    10.8927 H          1 BB1          0.0000
    20 O1        -0.2724   -15.2098    12.6585 O.2        2 BB2          0.0000
    21 C2        -0.0124   -15.9764    13.5702 C.2        2 BB2          0.0000
    22 C4         0.4111   -17.3907    13.2679 C.3        2 BB2          0.0000
    23 C5         1.8467   -17.6008    13.7666 C.3        2 BB2          0.0000
    24 S6         1.6988   -18.9603    14.9686 S.3        2 BB2          0.0000
    25 C7        -0.0459   -19.1754    14.7894 C.2        2 BB2          0.0000
    26 O8        -0.7166   -19.9937    15.3890 O.2        2 BB2          0.0000
    27 N9        -0.5136   -18.3050    13.8991 N.am       2 BB2          0.0000
    28 H10        0.3827   -17.5471    12.1895 H          2 BB2          0.0000
    29 H11        2.4995   -17.8884    12.9424 H          2 BB2          0.0000
    30 H12        2.2183   -16.6990    14.2531 H          2 BB2          0.0000
    31 H13       -1.4577   -18.2838    13.6778 H          2 BB2          0.0000
@<TRIPOS>BOND
     1      1      2 2
     2      2      3 1
     3      2     10 am
     4      3      4 1
     5      4      5 1
     6      4     11 1
     7      4     12 1
     8      5      6 1
     9      5     10 1
    10      5     13 1
    11      6      7 1
    12      6     14 1
    13      6     15 1
    14      7      8 1
    15      8      9 1
    16      8     16 1
    17      8     17 1
    18      9     10 1
    19      9     18 1
    20      9     19 1
    21     20     21 2
    22     21     22 1
    23     22     23 1
    24     22     27 1
    25     22     28 1
    26     23     24 1
    27     23     29 1
    28     23     30 1
    29     24     25 1
    30     25     26 2
    31     25     27 am
    32     27     31 1
    33      7     21 am
@<TRIPOS>SUBSTRUCTURE
     1 BB1           7
     2 BB2          21
@<TRIPOS>MOLECULE
EN300-109827_i001_EN300-107901_i001_13_12_1
  45   48   2   0   0
SMALL
USER_CHARGES
@<TRIPOS>ATOM
     1 O1         0.2009   -11.0230     7.5033 O.2        1 BB1          0.0000
     2 C2         0.4908   -12.1757     7.7562 C.2        1 BB1          0.0000
     3 O3         0.8229   -13.0742     6.8177 O.3        1 BB1          0.0000
     4 C4         1.2303   -14.3194     7.4601 C.3        1 BB1          0.0000
     5 C5         1.1544   -14.0029     8.9614 C.3        1 BB1          0.0000
     6 C6         0.2080   -14.9711     9.6773 C.3        1 BB1          0.0000
     7 N7        -0.1037   -14.4279    11.0075 N.am       1 BB1          0.0000
     8 C8        -0.8773   -13.1864    10.9018 C.3        1 BB1          0.0000
     9 C9        -0.0268   -12.0946    10.2333 C.3        1 BB1          0.0000
    10 N10        0.5152   -12.6689     8.9930 N.am       1 BB1          0.0000
    11 H11        0.5421   -15.1249     7.2039 H          1 BB1          0.0000
    12 H12        2.2495   -14.5809     7.1755 H          1 BB1          0.0000
    13 H13        2.1431   -13.9985     9.4203 H          1 BB1          0.0000
    14 H14       -0.7111   -15.0773     9.1009 H          1 BB1          0.0000
    15 H15        0.6904   -15.9429     9.7829 H          1 BB1          0.0000
    16 H16       -1.7706   -13.3662    10.3037 H          1 BB1          0.0000
    17 H17       -1.1709   -12.8569    11.8984 H          1 BB1          0.0000
    18 H18       -0.6469   -11.2281    10.0038 H          1 BB1          0.0000
    19 H19        0.7911   -11.8040    10.8927 H          1 BB1          0.0000
    20 O1        -0.1040   -16.8127    10.9419 O.2        2 BB2          0.0000
    21 C2        -0.6586   -17.0647    11.9980 C.2        2 BB2          0.0000
    22 C4        -0.5081   -16.1395    13.1591 C.3        2 BB2          0.0000
    23 C5         0.8714   -15.6148    13.5202 C.3        2 BB2          0.0000
    24 C6         2.0718   -15.9927    12.6993 C.3        2 BB2          0.0000
    25 C7         2.9006   -17.0996    13.4447 C.3        2 BB2          0.0000
    26 C8         2.5304   -18.3463    12.5651 C.3        2 BB2          0.0000
    27 C9         1.3193   -19.1710    12.9337 C.3        2 BB2          0.0000
    28 C10        0.3748   -18.9766    14.0680 C.3        2 BB2          0.0000
    29 C11        0.7279   -17.7895    14.9401 C.3        2 BB2          0.0000
    30 C12        0.1108   -16.4913    14.4829 C.3        2 BB2          0.0000
    31 H13       -1.3221   -15.3755    13.1908 H          2 BB2          0.0000
    32 H14        0.8986   -14.5156    13.7853 H          2 BB2          0.0000
    33 H15        1.8115   -16.3477    11.7082 H          2 BB2          0.0000
    34 H16        2.7334   -15.1198    12.5839 H          2 BB2          0.0000
    35 H17        3.9712   -16.8793    13.2373 H          2 BB2          0.0000
    36 H18        2.7591   -17.1473    14.4662 H          2 BB2          0.0000
    37 H19        2.4322   -17.9925    11.5342 H          2 BB2          0.0000
    38 H20        3.4173   -18.9981    12.5812 H          2 BB2          0.0000
    39 H21        0.7203   -19.2946    12.0023 H          2 BB2          0.0000
    40 H22        1.7166   -20.2196    13.0503 H          2 BB2          0.0000
    41 H23       -0.6753   -18.9302    13.7299 H          2 BB2          0.0000
    42 H24        0.3881   -19.9005    14.7055 H          2 BB2          0.0000
    43 H25        0.2169   -18.0196    15.9493 H          2 BB2          0.0000
    44 H26        1.7414   -17.7849    15.3103 H          2 BB2          0.0000
    45 H27       -0.3766   -15.9447    15.3713 H          2 BB2          0.0000
@<TRIPOS>BOND
     1      1      2 2
     2      2      3 1
     3      2     10 am
     4      3      4 1
     5      4      5 1
     6      4     11 1
     7      4     12 1
     8      5      6 1
     9      5     10 1
    10      5     13 1
    11      6      7 1
    12      6     14 1
    13      6     15 1
    14      7      8 1
    15      8      9 1
    16      8     16 1
    17      8     17 1
    18      9     10 1
    19      9     18 1
    20      9     19 1
    21     20     21 2
    22     21     22 1
    23     22     23 1
    24     22     30 1
    25     22     31 1
    26     23     24 1
    27     23     30 1
    28     23     32 1
    29     24     25 1
    30     24     33 1
    31     24     34 1
    32     25     26 1
    33     25     35 1
    34     25     36 1
    35     26     27 1
    36     26     37 1
    37     26     38 1
    38     27     28 1
    39     27     39 1
    40     27     40 1
    41     28     29 1
    42     28     41 1
    43     28     42 1
    44     29     30 1
    45     29     43 1
    46     29     44 1
    47     30     45 1
    48      7     21 am
@<TRIPOS>SUBSTRUCTURE
     1 BB1           7
     2 BB2          21
@<TRIPOS>MOLECULE
EN300-109827_i001_EN300-344045_i001_13_10_1
  48   51   2   0   0
SMALL
USER_CHARGES
@<TRIPOS>ATOM
     1 O1         0.2009   -11.0230     7.5033 O.2        1 BB1          0.0000
     2 C2         0.4908   -12.1757     7.7562 C.2        1 BB1          0.0000
     3 O3         0.8229   -13.0742     6.8177 O.3        1 BB1          0.0000
     4 C4         1.2303   -14.3194     7.4601 C.3        1 BB1          0.0000
     5 C5         1.1544   -14.0029     8.9614 C.3        1 BB1          0.0000
     6 C6         0.2080   -14.9711     9.6773 C.3        1 BB1          0.0000
     7 N7        -0.1037   -14.4279    11.0075 N.am       1 BB1          0.0000
     8 C8        -0.8773   -13.1864    10.9018 C.3        1 BB1          0.0000
     9 C9        -0.0268   -12.0946    10.2333 C.3        1 BB1          0.0000
    10 N10        0.5152   -12.6689     8.9930 N.am       1 BB1          0.0000
    11 H11        0.5421   -15.1249     7.2039 H          1 BB1          0.0000
    12 H12        2.2495   -14.5809     7.1755 H          1 BB1          0.0000
    13 H13        2.1431   -13.9985     9.4203 H          1 BB1          0.0000
    14 H14       -0.7111   -15.0773     9.1009 H          1 BB1          0.0000
    15 H15        0.6904   -15.9429     9.7829 H          1 BB1          0.0000
    16 H16       -1.7706   -13.3662    10.3037 H          1 BB1          0.0000
    17 H17       -1.1709   -12.8569    11.8984 H          1 BB1          0.0000
    18 H18       -0.6469   -11.2281    10.0038 H          1 BB1          0.0000
    19 H19        0.7911   -11.8040    10.8927 H          1 BB1          0.0000
    20 O1        -0.1020   -15.4251    12.3109 O.2        2 BB2          0.0000
    21 C2        -0.1552   -16.1642    13.2791 C.2        2 BB2          0.0000
    22 C4        -0.2949   -17.6520    13.0845 C.3        2 BB2          0.0000
    23 C5         1.0177   -18.3411    13.4627 C.3        2 BB2          0.0000
    24 C6         2.1466   -17.8837    12.5159 C.3        2 BB2          0.0000
    25 C7         2.8436   -16.7333    13.2840 C.3        2 BB2          0.0000
    26 C8         2.8113   -17.2322    14.7500 C.3        2 BB2          0.0000
    27 C9         1.4404   -17.9270    14.8830 C.3        2 BB2          0.0000
    28 C10        0.8553   -19.8375    13.3870 C.ar       2 BB2          0.0000
    29 C11        0.3498   -20.4207    12.2402 C.ar       2 BB2          0.0000
    30 C12        0.2007   -21.7932    12.1708 C.ar       2 BB2          0.0000
    31 C13        0.5577   -22.5826    13.2481 C.ar       2 BB2          0.0000
    32 C14        1.0640   -21.9994    14.3945 C.ar       2 BB2          0.0000
    33 C15        1.2171   -20.6272    14.4623 C.ar       2 BB2          0.0000
    34 H16       -1.0982   -18.0276    13.7185 H          2 BB2          0.0000
    35 H17       -0.5277   -17.8617    12.0405 H          2 BB2          0.0000
    36 H18        2.8460   -18.6997    12.3341 H          2 BB2          0.0000
    37 H19        1.7321   -17.5187    11.5762 H          2 BB2          0.0000
    38 H20        3.8707   -16.6068    12.9415 H          2 BB2          0.0000
    39 H21        2.2833   -15.8041    13.1798 H          2 BB2          0.0000
    40 H22        3.6181   -17.9430    14.9289 H          2 BB2          0.0000
    41 H23        2.8818   -16.3919    15.4406 H          2 BB2          0.0000
    42 H24        0.7104   -17.2350    15.3030 H          2 BB2          0.0000
    43 H25        1.5285   -18.8083    15.5183 H          2 BB2          0.0000
    44 H26        0.0709   -19.8041    11.3986 H          2 BB2          0.0000
    45 H27       -0.1949   -22.2488    11.2751 H          2 BB2          0.0000
    46 H28        0.4406   -23.6548    13.1941 H          2 BB2          0.0000
    47 H29        1.3426   -22.6160    15.2363 H          2 BB2          0.0000
    48 H30        1.6128   -20.1715    15.3580 H          2 BB2          0.0000
@<TRIPOS>BOND
     1      1      2 2
     2      2      3 1
     3      2     10 am
     4      3      4 1
     5      4      5 1
     6      4     11 1
     7      4     12 1
     8      5      6 1
     9      5     10 1
    10      5     13 1
    11      6      7 1
    12      6     14 1
    13      6     15 1
    14      7      8 1
    15      8      9 1
    16      8     16 1
    17      8     17 1
    18      9     10 1
    19      9     18 1
    20      9     19 1
    21     20     21 2
    22     21     22 1
    23     22     23 1
    24     22     34 1
    25     22     35 1
    26     23     24 1
    27     23     27 1
    28     23     28 1
    29     24     25 1
    30     24     36 1
    31     24     37 1
    32     25     26 1
    33     25     38 1
    34     25     39 1
    35     26     27 1
    36     26     40 1
    37     26     41 1
    38     27     42 1
    39     27     43 1
    40     28     29 ar
    41     28     33 ar
    42     29     30 ar
    43     29     44 1
    44     30     31 ar
    45     30     45 1
    46     31     32 ar
    47     31     46 1
    48     32     33 ar
    49     32     47 1
    50     33     48 1
    51      7     21 am
@<TRIPOS>SUBSTRUCTURE
     1 BB1           7
     2 BB2          21
@<TRIPOS>MOLECULE
EN300-109827_i001_EN300-344045_i001_13_8_1
  48   51   2   0   0
SMALL
USER_CHARGES
@<TRIPOS>ATOM
     1 O1         0.2009   -11.0230     7.5033 O.2        1 BB1          0.0000
     2 C2         0.4908   -12.1757     7.7562 C.2        1 BB1          0.0000
     3 O3         0.8229   -13.0742     6.8177 O.3        1 BB1          0.0000
     4 C4         1.2303   -14.3194     7.4601 C.3        1 BB1          0.0000
     5 C5         1.1544   -14.0029     8.9614 C.3        1 BB1          0.0000
     6 C6         0.2080   -14.9711     9.6773 C.3        1 BB1          0.0000
     7 N7        -0.1037   -14.4279    11.0075 N.am       1 BB1          0.0000
     8 C8        -0.8773   -13.1864    10.9018 C.3        1 BB1          0.0000
     9 C9        -0.0268   -12.0946    10.2333 C.3        1 BB1          0.0000
    10 N10        0.5152   -12.6689     8.9930 N.am       1 BB1          0.0000
    11 H11        0.5421   -15.1249     7.2039 H          1 BB1          0.0000
    12 H12        2.2495   -14.5809     7.1755 H          1 BB1          0.0000
    13 H13        2.1431   -13.9985     9.4203 H          1 BB1          0.0000
    14 H14       -0.7111   -15.0773     9.1009 H          1 BB1          0.0000
    15 H15        0.6904   -15.9429     9.7829 H          1 BB1          0.0000
    16 H16       -1.7706   -13.3662    10.3037 H          1 BB1          0.0000
    17 H17       -1.1709   -12.8569    11.8984 H          1 BB1          0.0000
    18 H18       -0.6469   -11.2281    10.0038 H          1 BB1          0.0000
    19 H19        0.7911   -11.8040    10.8927 H          1 BB1          0.0000
    20 O1         0.1977   -15.0634    12.4746 O.2        2 BB2          0.0000
    21 C2        -0.1011   -15.8922    13.3172 C.2        2 BB2          0.0000
    22 C4        -0.5242   -17.2760    12.8963 C.3        2 BB2          0.0000
    23 C5         0.5490   -18.2852    13.3093 C.3        2 BB2          0.0000
    24 C6         1.8848   -17.9504    12.6139 C.3        2 BB2          0.0000
    25 C7         2.6573   -17.1093    13.6602 C.3        2 BB2          0.0000
    26 C8         2.2891   -17.8025    14.9954 C.3        2 BB2          0.0000
    27 C9         0.8061   -18.1912    14.8234 C.3        2 BB2          0.0000
    28 C10        0.1126   -19.6807    12.9444 C.ar       2 BB2          0.0000
    29 C11       -1.0025   -20.2352    13.5441 C.ar       2 BB2          0.0000
    30 C12       -1.4027   -21.5153    13.2094 C.ar       2 BB2          0.0000
    31 C13       -0.6881   -22.2407    12.2744 C.ar       2 BB2          0.0000
    32 C14        0.4266   -21.6858    11.6741 C.ar       2 BB2          0.0000
    33 C15        0.8243   -20.4040    12.0056 C.ar       2 BB2          0.0000
    34 H16       -1.4675   -17.5304    13.3797 H          2 BB2          0.0000
    35 H17       -0.6516   -17.3036    11.8140 H          2 BB2          0.0000
    36 H18        2.4319   -18.8634    12.3791 H          2 BB2          0.0000
    37 H19        1.7087   -17.3669    11.7102 H          2 BB2          0.0000
    38 H20        3.7313   -17.1616    13.4811 H          2 BB2          0.0000
    39 H21        2.3136   -16.0749    13.6543 H          2 BB2          0.0000
    40 H22        2.9015   -18.6917    15.1453 H          2 BB2          0.0000
    41 H23        2.4080   -17.1112    15.8297 H          2 BB2          0.0000
    42 H24        0.1663   -17.4266    15.2641 H          2 BB2          0.0000
    43 H25        0.6156   -19.1552    15.2951 H          2 BB2          0.0000
    44 H26       -1.5609   -19.6686    14.2745 H          2 BB2          0.0000
    45 H27       -2.2735   -21.9489    13.6785 H          2 BB2          0.0000
    46 H28       -1.0003   -23.2410    12.0135 H          2 BB2          0.0000
    47 H29        0.9852   -22.2526    10.9438 H          2 BB2          0.0000
    48 H30        1.6951   -19.9705    11.5365 H          2 BB2          0.0000
@<TRIPOS>BOND
     1      1      2 2
     2      2      3 1
     3      2     10 am
     4      3      4 1
     5      4      5 1
     6      4     11 1
     7      4     12 1
     8      5      6 1
     9      5     10 1
    10      5     13 1
    11      6      7 1
    12      6     14 1
    13      6     15 1
    14      7      8 1
    15      8      9 1
    16      8     16 1
    17      8     17 1
    18      9     10 1
    19      9     18 1
    20      9     19 1
    21     20     21 2
    22     21     22 1
    23     22     23 1
    24     22     34 1
    25     22     35 1
    26     23     24 1
    27     23     27 1
    28     23     28 1
    29     24     25 1
    30     24     36 1
    31     24     37 1
    32     25     26 1
    33     25     38 1
    34     25     39 1
    35     26     27 1
    36     26     40 1
    37     26     41 1
    38     27     42 1
    39     27     43 1
    40     28     29 ar
    41     28     33 ar
    42     29     30 ar
    43     29     44 1
    44     30     31 ar
    45     30     45 1
    46     31     32 ar
    47     31     46 1
    48     32     33 ar
    49     32     47 1
    50     33     48 1
    51      7     21 am
@<TRIPOS>SUBSTRUCTURE
     1 BB1           7
     2 BB2          21
@<TRIPOS>MOLECULE
EN300-109827_i001_EN300-15782_i003_13_1_1
  53   55   2   0   0
SMALL
USER_CHARGES
@<TRIPOS>ATOM
     1 O1         0.2009   -11.0230     7.5033 O.2        1 BB1          0.0000
     2 C2         0.4908   -12.1757     7.7562 C.2        1 BB1          0.0000
     3 O3         0.8229   -13.0742     6.8177 O.3        1 BB1          0.0000
     4 C4         1.2303   -14.3194     7.4601 C.3        1 BB1          0.0000
     5 C5         1.1544   -14.0029     8.9614 C.3        1 BB1          0.0000
     6 C6         0.2080   -14.9711     9.6773 C.3        1 BB1          0.0000
     7 N7        -0.1037   -14.4279    11.0075 N.am       1 BB1          0.0000
     8 C8        -0.8773   -13.1864    10.9018 C.3        1 BB1          0.0000
     9 C9        -0.0268   -12.0946    10.2333 C.3        1 BB1          0.0000
    10 N10        0.5152   -12.6689     8.9930 N.am       1 BB1          0.0000
    11 H11        0.5421   -15.1249     7.2039 H          1 BB1          0.0000
    12 H12        2.2495   -14.5809     7.1755 H          1 BB1          0.0000
    13 H13        2.1431   -13.9985     9.4203 H          1 BB1          0.0000
    14 H14       -0.7111   -15.0773     9.1009 H          1 BB1          0.0000
    15 H15        0.6904   -15.9429     9.7829 H          1 BB1          0.0000
    16 H16       -1.7706   -13.3662    10.3037 H          1 BB1          0.0000
    17 H17       -1.1709   -12.8569    11.8984 H          1 BB1          0.0000
    18 H18       -0.6469   -11.2281    10.0038 H          1 BB1          0.0000
    19 H19        0.7911   -11.8040    10.8927 H          1 BB1          0.0000
    20 C1         2.8040   -17.0897    14.7732 C.3        2 BB2          0.0000
    21 C2         2.4576   -16.8604    13.3007 C.3        2 BB2          0.0000
    22 O3         3.3001   -17.6732    12.4810 O.3        2 BB2          0.0000
    23 C4         0.9943   -17.2346    13.0567 C.3        2 BB2          0.0000
    24 N5         0.8397   -17.7347    11.6884 N.pl3      2 BB2          0.0000
    25 S6        -0.3586   -18.8215    11.3345 S.o2       2 BB2          0.0000
    26 O7        -1.5562   -18.2922    11.8866 O.2        2 BB2          0.0000
    27 O8        -0.2136   -19.1445     9.9584 O.2        2 BB2          0.0000
    28 C9        -0.0065   -20.2966    12.2316 C.ar       2 BB2          0.0000
    29 C10        1.1015   -20.3563    13.0557 C.ar       2 BB2          0.0000
    30 C11        1.3777   -21.5139    13.7596 C.ar       2 BB2          0.0000
    31 C12        0.5457   -22.6109    13.6394 C.ar       2 BB2          0.0000
    32 C13        0.8472   -23.8727    14.4063 C.3        2 BB2          0.0000
    33 C14       -0.5633   -22.5507    12.8162 C.ar       2 BB2          0.0000
    34 C15       -1.4707   -23.7467    12.6856 C.3        2 BB2          0.0000
    35 C16       -0.8416   -21.3922    12.1155 C.ar       2 BB2          0.0000
    36 C17        0.1261   -16.0176    13.2478 C.2        2 BB2          0.0000
    37 O19       -0.4176   -15.4997    12.2872 O.2        2 BB2          0.0000
    38 H20        3.8466   -16.8233    14.9470 H          2 BB2          0.0000
    39 H21        2.1614   -16.4699    15.3984 H          2 BB2          0.0000
    40 H22        2.6508   -18.1396    15.0233 H          2 BB2          0.0000
    41 H23        2.6109   -15.8106    13.0506 H          2 BB2          0.0000
    42 H24        0.6947   -18.0090    13.7627 H          2 BB2          0.0000
    43 H25        1.7516   -19.4990    13.1496 H          2 BB2          0.0000
    44 H26        2.2439   -21.5608    14.4030 H          2 BB2          0.0000
    45 H27        0.3543   -23.8341    15.3777 H          2 BB2          0.0000
    46 H28        0.4814   -24.7339    13.8472 H          2 BB2          0.0000
    47 H29        1.9242   -23.9628    14.5487 H          2 BB2          0.0000
    48 H30       -2.2548   -23.6921    13.4408 H          2 BB2          0.0000
    49 H31       -1.9218   -23.7540    11.6934 H          2 BB2          0.0000
    50 H32       -0.8918   -24.6592    12.8283 H          2 BB2          0.0000
    51 H33       -1.7081   -21.3452    11.4724 H          2 BB2          0.0000
    52 H34        3.2428   -17.4720    11.5370 H          2 BB2          0.0000
    53 H35        1.4393   -17.4293    10.9898 H          2 BB2          0.0000
@<TRIPOS>BOND
     1      1      2 2
     2      2      3 1
     3      2     10 am
     4      3      4 1
     5      4      5 1
     6      4     11 1
     7      4     12 1
     8      5      6 1
     9      5     10 1
    10      5     13 1
    11      6      7 1
    12      6     14 1
    13      6     15 1
    14      7      8 1
    15      8      9 1
    16      8     16 1
    17      8     17 1
    18      9     10 1
    19      9     18 1
    20      9     19 1
    21     20     21 1
    22     20     38 1
    23     20     39 1
    24     20     40 1
    25     21     22 1
    26     21     23 1
    27     21     41 1
    28     22     52 1
    29     23     24 1
    30     23     36 1
    31     23     42 1
    32     24     25 1
    33     24     53 1
    34     25     26 2
    35     25     27 2
    36     25     28 1
    37     28     29 ar
    38     28     35 ar
    39     29     30 ar
    40     29     43 1
    41     30     31 ar
    42     30     44 1
    43     31     32 1
    44     31     33 ar
    45     32     45 1
    46     32     46 1
    47     32     47 1
    48     33     34 1
    49     33     35 ar
    50     34     48 1
    51     34     49 1
    52     34     50 1
    53     35     51 1
    54     36     37 2
    55      7     36 am
@<TRIPOS>SUBSTRUCTURE
     1 BB1           7
     2 BB2          36
@<TRIPOS>MOLECULE
EN300-109827_i001_EN300-15782_i003_13_11_1
  53   55   2   0   0
SMALL
USER_CHARGES
@<TRIPOS>ATOM
     1 O1         0.2009   -11.0230     7.5033 O.2        1 BB1          0.0000
     2 C2         0.4908   -12.1757     7.7562 C.2        1 BB1          0.0000
     3 O3         0.8229   -13.0742     6.8177 O.3        1 BB1          0.0000
     4 C4         1.2303   -14.3194     7.4601 C.3        1 BB1          0.0000
     5 C5         1.1544   -14.0029     8.9614 C.3        1 BB1          0.0000
     6 C6         0.2080   -14.9711     9.6773 C.3        1 BB1          0.0000
     7 N7        -0.1037   -14.4279    11.0075 N.am       1 BB1          0.0000
     8 C8        -0.8773   -13.1864    10.9018 C.3        1 BB1          0.0000
     9 C9        -0.0268   -12.0946    10.2333 C.3        1 BB1          0.0000
    10 N10        0.5152   -12.6689     8.9930 N.am       1 BB1          0.0000
    11 H11        0.5421   -15.1249     7.2039 H          1 BB1          0.0000
    12 H12        2.2495   -14.5809     7.1755 H          1 BB1          0.0000
    13 H13        2.1431   -13.9985     9.4203 H          1 BB1          0.0000
    14 H14       -0.7111   -15.0773     9.1009 H          1 BB1          0.0000
    15 H15        0.6904   -15.9429     9.7829 H          1 BB1          0.0000
    16 H16       -1.7706   -13.3662    10.3037 H          1 BB1          0.0000
    17 H17       -1.1709   -12.8569    11.8984 H          1 BB1          0.0000
    18 H18       -0.6469   -11.2281    10.0038 H          1 BB1          0.0000
    19 H19        0.7911   -11.8040    10.8927 H          1 BB1          0.0000
    20 C1         2.3888   -16.8238    14.4189 C.3        2 BB2          0.0000
    21 C2         1.9103   -16.1792    13.1165 C.3        2 BB2          0.0000
    22 O3         2.9070   -16.3493    12.1065 O.3        2 BB2          0.0000
    23 C4         0.6087   -16.8453    12.6658 C.3        2 BB2          0.0000
    24 N5         0.8534   -18.2651    12.4000 N.pl3      2 BB2          0.0000
    25 S6        -0.3647   -19.2187    11.8092 S.o2       2 BB2          0.0000
    26 O7        -1.5814   -18.6453    12.2674 O.2        2 BB2          0.0000
    27 O8        -0.0757   -19.4327    10.4344 O.2        2 BB2          0.0000
    28 C9        -0.2267   -20.7888    12.5969 C.ar       2 BB2          0.0000
    29 C10        0.9570   -21.1520    13.2110 C.ar       2 BB2          0.0000
    30 C11        1.0653   -22.3840    13.8291 C.ar       2 BB2          0.0000
    31 C12       -0.0101   -23.2521    13.8331 C.ar       2 BB2          0.0000
    32 C13        0.1082   -24.5951    14.5064 C.3        2 BB2          0.0000
    33 C14       -1.1946   -22.8882    13.2199 C.ar       2 BB2          0.0000
    34 C15       -2.3673   -23.8345    13.2247 C.3        2 BB2          0.0000
    35 C16       -1.3041   -21.6550    12.6054 C.ar       2 BB2          0.0000
    36 C17        0.1114   -16.1775    11.4097 C.2        2 BB2          0.0000
    37 O18       -0.0451   -14.9687    11.3830 O.2        2 BB2          0.0000
    38 H20        3.3161   -16.3492    14.7399 H          2 BB2          0.0000
    39 H21        1.6286   -16.6940    15.1892 H          2 BB2          0.0000
    40 H22        2.5626   -17.8873    14.2555 H          2 BB2          0.0000
    41 H23        1.7365   -15.1155    13.2799 H          2 BB2          0.0000
    42 H24       -0.1407   -16.7465    13.4510 H          2 BB2          0.0000
    43 H25        1.7974   -20.4736    13.2080 H          2 BB2          0.0000
    44 H26        1.9905   -22.6682    14.3085 H          2 BB2          0.0000
    45 H27       -0.1932   -24.5062    15.5500 H          2 BB2          0.0000
    46 H28       -0.5383   -25.3129    14.0014 H          2 BB2          0.0000
    47 H29        1.1417   -24.9378    14.4545 H          2 BB2          0.0000
    48 H30       -2.9797   -23.6499    14.1073 H          2 BB2          0.0000
    49 H31       -2.9659   -23.6760    12.3276 H          2 BB2          0.0000
    50 H32       -2.0048   -24.8623    13.2426 H          2 BB2          0.0000
    51 H33       -2.2295   -21.3707    12.1264 H          2 BB2          0.0000
    52 H34        2.5702   -16.7226    11.2806 H          2 BB2          0.0000
    53 H35        1.7288   -18.6466    12.5701 H          2 BB2          0.0000
@<TRIPOS>BOND
     1      1      2 2
     2      2      3 1
     3      2     10 am
     4      3      4 1
     5      4      5 1
     6      4     11 1
     7      4     12 1
     8      5      6 1
     9      5     10 1
    10      5     13 1
    11      6      7 1
    12      6     14 1
    13      6     15 1
    14      7      8 1
    15      8      9 1
    16      8     16 1
    17      8     17 1
    18      9     10 1
    19      9     18 1
    20      9     19 1
    21     20     21 1
    22     20     38 1
    23     20     39 1
    24     20     40 1
    25     21     22 1
    26     21     23 1
    27     21     41 1
    28     22     52 1
    29     23     24 1
    30     23     36 1
    31     23     42 1
    32     24     25 1
    33     24     53 1
    34     25     26 2
    35     25     27 2
    36     25     28 1
    37     28     29 ar
    38     28     35 ar
    39     29     30 ar
    40     29     43 1
    41     30     31 ar
    42     30     44 1
    43     31     32 1
    44     31     33 ar
    45     32     45 1
    46     32     46 1
    47     32     47 1
    48     33     34 1
    49     33     35 ar
    50     34     48 1
    51     34     49 1
    52     34     50 1
    53     35     51 1
    54     36     37 2
    55      7     36 am
@<TRIPOS>SUBSTRUCTURE
     1 BB1           7
     2 BB2          36
@<TRIPOS>MOLECULE
EN300-109827_i001_EN300-15782_i003_13_14_1
  53   55   2   0   0
SMALL
USER_CHARGES
@<TRIPOS>ATOM
     1 O1         0.2009   -11.0230     7.5033 O.2        1 BB1          0.0000
     2 C2         0.4908   -12.1757     7.7562 C.2        1 BB1          0.0000
     3 O3         0.8229   -13.0742     6.8177 O.3        1 BB1          0.0000
     4 C4         1.2303   -14.3194     7.4601 C.3        1 BB1          0.0000
     5 C5         1.1544   -14.0029     8.9614 C.3        1 BB1          0.0000
     6 C6         0.2080   -14.9711     9.6773 C.3        1 BB1          0.0000
     7 N7        -0.1037   -14.4279    11.0075 N.am       1 BB1          0.0000
     8 C8        -0.8773   -13.1864    10.9018 C.3        1 BB1          0.0000
     9 C9        -0.0268   -12.0946    10.2333 C.3        1 BB1          0.0000
    10 N10        0.5152   -12.6689     8.9930 N.am       1 BB1          0.0000
    11 H11        0.5421   -15.1249     7.2039 H          1 BB1          0.0000
    12 H12        2.2495   -14.5809     7.1755 H          1 BB1          0.0000
    13 H13        2.1431   -13.9985     9.4203 H          1 BB1          0.0000
    14 H14       -0.7111   -15.0773     9.1009 H          1 BB1          0.0000
    15 H15        0.6904   -15.9429     9.7829 H          1 BB1          0.0000
    16 H16       -1.7706   -13.3662    10.3037 H          1 BB1          0.0000
    17 H17       -1.1709   -12.8569    11.8984 H          1 BB1          0.0000
    18 H18       -0.6469   -11.2281    10.0038 H          1 BB1          0.0000
    19 H19        0.7911   -11.8040    10.8927 H          1 BB1          0.0000
    20 C1         0.4223   -15.2869    10.4105 C.3        2 BB2          0.0000
    21 C2        -0.3078   -16.4969    10.9967 C.3        2 BB2          0.0000
    22 O3        -0.2377   -17.5876    10.0759 O.3        2 BB2          0.0000
    23 C4         0.3523   -16.9006    12.3166 C.3        2 BB2          0.0000
    24 N5        -0.3344   -18.0714    12.8679 N.pl3      2 BB2          0.0000
    25 S6         0.0976   -18.6611    14.3538 S.o2       2 BB2          0.0000
    26 O7         1.4814   -18.3790    14.5107 O.2        2 BB2          0.0000
    27 O8        -0.8951   -18.2141    15.2670 O.2        2 BB2          0.0000
    28 C9        -0.0474   -20.4156    14.2809 C.ar       2 BB2          0.0000
    29 C10        1.0739   -21.2087    14.4360 C.ar       2 BB2          0.0000
    30 C11        0.9601   -22.5854    14.3788 C.ar       2 BB2          0.0000
    31 C12       -0.2749   -23.1685    14.1669 C.ar       2 BB2          0.0000
    32 C13       -0.3987   -24.6691    14.1041 C.3        2 BB2          0.0000
    33 C14       -1.3967   -22.3753    14.0132 C.ar       2 BB2          0.0000
    34 C15       -2.7433   -23.0112    13.7826 C.3        2 BB2          0.0000
    35 C16       -1.2835   -20.9991    14.0742 C.ar       2 BB2          0.0000
    36 C17        0.2602   -15.7576    13.2945 C.2        2 BB2          0.0000
    37 O18       -0.3554   -14.7483    12.9963 O.2        2 BB2          0.0000
    38 H20       -0.0479   -14.9993     9.4701 H          2 BB2          0.0000
    39 H21        0.3689   -14.4550    11.1128 H          2 BB2          0.0000
    40 H22        1.4662   -15.5443    10.2310 H          2 BB2          0.0000
    41 H23       -1.3517   -16.2395    11.1762 H          2 BB2          0.0000
    42 H24        1.3999   -17.1437    12.1395 H          2 BB2          0.0000
    43 H25        2.0390   -20.7530    14.6016 H          2 BB2          0.0000
    44 H26        1.8364   -23.2051    14.4993 H          2 BB2          0.0000
    45 H27       -0.5888   -25.0602    15.1035 H          2 BB2          0.0000
    46 H28       -1.2245   -24.9383    13.4454 H          2 BB2          0.0000
    47 H29        0.5276   -25.0944    13.7176 H          2 BB2          0.0000
    48 H30       -3.2279   -23.1938    14.7418 H          2 BB2          0.0000
    49 H31       -3.3629   -22.3434    13.1840 H          2 BB2          0.0000
    50 H32       -2.6134   -23.9563    13.2555 H          2 BB2          0.0000
    51 H33       -2.1600   -20.3795    13.9541 H          2 BB2          0.0000
    52 H34        0.6587   -17.9163     9.9232 H          2 BB2          0.0000
    53 H35       -1.0421   -18.5012    12.3626 H          2 BB2          0.0000
@<TRIPOS>BOND
     1      1      2 2
     2      2      3 1
     3      2     10 am
     4      3      4 1
     5      4      5 1
     6      4     11 1
     7      4     12 1
     8      5      6 1
     9      5     10 1
    10      5     13 1
    11      6      7 1
    12      6     14 1
    13      6     15 1
    14      7      8 1
    15      8      9 1
    16      8     16 1
    17      8     17 1
    18      9     10 1
    19      9     18 1
    20      9     19 1
    21     20     21 1
    22     20     38 1
    23     20     39 1
    24     20     40 1
    25     21     22 1
    26     21     23 1
    27     21     41 1
    28     22     52 1
    29     23     24 1
    30     23     36 1
    31     23     42 1
    32     24     25 1
    33     24     53 1
    34     25     26 2
    35     25     27 2
    36     25     28 1
    37     28     29 ar
    38     28     35 ar
    39     29     30 ar
    40     29     43 1
    41     30     31 ar
    42     30     44 1
    43     31     32 1
    44     31     33 ar
    45     32     45 1
    46     32     46 1
    47     32     47 1
    48     33     34 1
    49     33     35 ar
    50     34     48 1
    51     34     49 1
    52     34     50 1
    53     35     51 1
    54     36     37 2
    55      7     36 am
@<TRIPOS>SUBSTRUCTURE
     1 BB1           7
     2 BB2          36
@<TRIPOS>MOLECULE
EN300-109827_i001_EN300-4287209_i001_14_4_1
  34   36   2   0   0
SMALL
USER_CHARGES
@<TRIPOS>ATOM
     1 O1         0.5487   -11.0952     7.8854 O.2        1 BB1          0.0000
     2 C2        -0.0904   -11.4009     8.8727 C.2        1 BB1          0.0000
     3 O3        -0.7481   -10.5099     9.6290 O.3        1 BB1          0.0000
     4 C4        -1.5081   -11.2127    10.6573 C.3        1 BB1          0.0000
     5 C5        -1.2540   -12.6973    10.3549 C.3        1 BB1          0.0000
     6 C6        -0.6426   -13.4055    11.5674 C.3        1 BB1          0.0000
     7 N7        -0.1005   -14.7011    11.1322 N.am       1 BB1          0.0000
     8 C8         1.0316   -14.5185    10.2180 C.3        1 BB1          0.0000
     9 C9         0.5537   -13.8491     8.9196 C.3        1 BB1          0.0000
    10 N10       -0.2110   -12.6542     9.3064 N.am       1 BB1          0.0000
    11 H11       -1.1374   -10.9558    11.6496 H          1 BB1          0.0000
    12 H12       -2.5700   -10.9816    10.5731 H          1 BB1          0.0000
    13 H13       -2.1608   -13.1979    10.0156 H          1 BB1          0.0000
    14 H14        0.1591   -12.7943    11.9821 H          1 BB1          0.0000
    15 H15       -1.4114   -13.5661    12.3232 H          1 BB1          0.0000
    16 H16        1.7836   -13.8892    10.6940 H          1 BB1          0.0000
    17 H17        1.4689   -15.4893     9.9849 H          1 BB1          0.0000
    18 H18        1.4113   -13.5626     8.3110 H          1 BB1          0.0000
    19 H19       -0.0875   -14.5324     8.3628 H          1 BB1          0.0000
    20 O1        -0.1097   -14.9704    12.6208 O.2        2 BB2          0.0000
    21 C2         0.1374   -15.9786    13.2675 C.2        2 BB2          0.0000
    22 C4         0.0246   -17.3063    12.6353 C.ar       2 BB2          0.0000
    23 C5        -0.4127   -17.4178    11.3154 C.ar       2 BB2          0.0000
    24 C6        -0.5157   -18.6752    10.7265 C.ar       2 BB2          0.0000
    25 C7        -0.9632   -18.7981     9.3719 C.1        2 BB2          0.0000
    26 C8        -1.3302   -18.8989     8.2612 C.1        2 BB2          0.0000
    27 C9        -0.1813   -19.8166    11.4589 C.ar       2 BB2          0.0000
    28 C10        0.2505   -19.7020    12.7651 C.ar       2 BB2          0.0000
    29 C11        0.3614   -18.4578    13.3560 C.ar       2 BB2          0.0000
    30 Cl12       0.9055   -18.3238    14.9992 Cl         2 BB2          0.0000
    31 H13       -0.6705   -16.5327    10.7528 H          2 BB2          0.0000
    32 H14       -1.6582   -18.9891     7.2679 H          2 BB2          0.0000
    33 H15       -0.2613   -20.7919    11.0019 H          2 BB2          0.0000
    34 H16        0.5072   -20.5884    13.3261 H          2 BB2          0.0000
@<TRIPOS>BOND
     1      1      2 2
     2      2      3 1
     3      2     10 am
     4      3      4 1
     5      4      5 1
     6      4     11 1
     7      4     12 1
     8      5      6 1
     9      5     10 1
    10      5     13 1
    11      6      7 1
    12      6     14 1
    13      6     15 1
    14      7      8 1
    15      8      9 1
    16      8     16 1
    17      8     17 1
    18      9     10 1
    19      9     18 1
    20      9     19 1
    21     20     21 2
    22     21     22 1
    23     22     23 ar
    24     22     29 ar
    25     23     24 ar
    26     23     31 1
    27     24     25 1
    28     24     27 ar
    29     25     26 3
    30     26     32 1
    31     27     28 ar
    32     27     33 1
    33     28     29 ar
    34     28     34 1
    35     29     30 1
    36      7     21 am
@<TRIPOS>SUBSTRUCTURE
     1 BB1           7
     2 BB2          21
@<TRIPOS>MOLECULE
EN300-109827_i001_EN300-97777_i001_14_19_1
  47   48   2   0   0
SMALL
USER_CHARGES
@<TRIPOS>ATOM
     1 O1         0.5487   -11.0952     7.8854 O.2        1 BB1          0.0000
     2 C2        -0.0904   -11.4009     8.8727 C.2        1 BB1          0.0000
     3 O3        -0.7481   -10.5099     9.6290 O.3        1 BB1          0.0000
     4 C4        -1.5081   -11.2127    10.6573 C.3        1 BB1          0.0000
     5 C5        -1.2540   -12.6973    10.3549 C.3        1 BB1          0.0000
     6 C6        -0.6426   -13.4055    11.5674 C.3        1 BB1          0.0000
     7 N7        -0.1005   -14.7011    11.1322 N.am       1 BB1          0.0000
     8 C8         1.0316   -14.5185    10.2180 C.3        1 BB1          0.0000
     9 C9         0.5537   -13.8491     8.9196 C.3        1 BB1          0.0000
    10 N10       -0.2110   -12.6542     9.3064 N.am       1 BB1          0.0000
    11 H11       -1.1374   -10.9558    11.6496 H          1 BB1          0.0000
    12 H12       -2.5700   -10.9816    10.5731 H          1 BB1          0.0000
    13 H13       -2.1608   -13.1979    10.0156 H          1 BB1          0.0000
    14 H14        0.1591   -12.7943    11.9821 H          1 BB1          0.0000
    15 H15       -1.4114   -13.5661    12.3232 H          1 BB1          0.0000
    16 H16        1.7836   -13.8892    10.6940 H          1 BB1          0.0000
    17 H17        1.4689   -15.4893     9.9849 H          1 BB1          0.0000
    18 H18        1.4113   -13.5626     8.3110 H          1 BB1          0.0000
    19 H19       -0.0875   -14.5324     8.3628 H          1 BB1          0.0000
    20 C1         0.0416   -20.7360    14.9060 C.3        2 BB2          0.0000
    21 C2         0.1840   -20.5981    13.3889 C.3        2 BB2          0.0000
    22 C3         1.6587   -20.7254    13.0013 C.3        2 BB2          0.0000
    23 C4        -0.6217   -21.7004    12.6986 C.3        2 BB2          0.0000
    24 O5        -0.3156   -19.3001    12.9719 O.3        2 BB2          0.0000
    25 C6        -0.1370   -18.9623    11.6808 C.2        2 BB2          0.0000
    26 O7         0.1824   -19.8090    10.8700 O.2        2 BB2          0.0000
    27 N8        -0.3127   -17.6851    11.2879 N.am       2 BB2          0.0000
    28 C9        -0.1185   -17.3176     9.8831 C.3        2 BB2          0.0000
    29 C10       -1.0017   -18.1350     9.0354 C.1        2 BB2          0.0000
    30 C11       -1.7062   -18.7868     8.3594 C.1        2 BB2          0.0000
    31 C12       -0.6979   -16.6643    12.2656 C.3        2 BB2          0.0000
    32 C13        0.4114   -16.4870    13.2702 C.2        2 BB2          0.0000
    33 O14        0.3050   -15.6556    14.1555 O.2        2 BB2          0.0000
    34 H16        0.6157   -19.9507    15.3977 H          2 BB2          0.0000
    35 H17       -1.0089   -20.6453    15.1820 H          2 BB2          0.0000
    36 H18        0.4168   -21.7104    15.2190 H          2 BB2          0.0000
    37 H19        2.0337   -21.6998    13.3144 H          2 BB2          0.0000
    38 H20        1.7601   -20.6270    11.9205 H          2 BB2          0.0000
    39 H21        2.2327   -19.9400    13.4932 H          2 BB2          0.0000
    40 H22       -1.6723   -21.6096    12.9747 H          2 BB2          0.0000
    41 H23       -0.5203   -21.6021    11.6178 H          2 BB2          0.0000
    42 H24       -0.2466   -22.6748    13.0116 H          2 BB2          0.0000
    43 H25       -0.3582   -16.2631     9.7470 H          2 BB2          0.0000
    44 H26        0.9198   -17.4935     9.6018 H          2 BB2          0.0000
    45 H27       -2.3362   -19.3699     7.7548 H          2 BB2          0.0000
    46 H28       -0.8780   -15.7195    11.7527 H          2 BB2          0.0000
    47 H29       -1.6067   -16.9778    12.7794 H          2 BB2          0.0000
@<TRIPOS>BOND
     1      1      2 2
     2      2      3 1
     3      2     10 am
     4      3      4 1
     5      4      5 1
     6      4     11 1
     7      4     12 1
     8      5      6 1
     9      5     10 1
    10      5     13 1
    11      6      7 1
    12      6     14 1
    13      6     15 1
    14      7      8 1
    15      8      9 1
    16      8     16 1
    17      8     17 1
    18      9     10 1
    19      9     18 1
    20      9     19 1
    21     20     21 1
    22     20     34 1
    23     20     35 1
    24     20     36 1
    25     21     22 1
    26     21     23 1
    27     21     24 1
    28     22     37 1
    29     22     38 1
    30     22     39 1
    31     23     40 1
    32     23     41 1
    33     23     42 1
    34     24     25 1
    35     25     26 2
    36     25     27 am
    37     27     28 1
    38     27     31 1
    39     28     29 1
    40     28     43 1
    41     28     44 1
    42     29     30 3
    43     30     45 1
    44     31     32 1
    45     31     46 1
    46     31     47 1
    47     32     33 2
    48      7     32 am
@<TRIPOS>SUBSTRUCTURE
     1 BB1           7
     2 BB2          32
@<TRIPOS>MOLECULE
EN300-109827_i001_EN300-222254_i002_14_20_1
  42   45   2   0   0
SMALL
USER_CHARGES
@<TRIPOS>ATOM
     1 O1         0.5487   -11.0952     7.8854 O.2        1 BB1          0.0000
     2 C2        -0.0904   -11.4009     8.8727 C.2        1 BB1          0.0000
     3 O3        -0.7481   -10.5099     9.6290 O.3        1 BB1          0.0000
     4 C4        -1.5081   -11.2127    10.6573 C.3        1 BB1          0.0000
     5 C5        -1.2540   -12.6973    10.3549 C.3        1 BB1          0.0000
     6 C6        -0.6426   -13.4055    11.5674 C.3        1 BB1          0.0000
     7 N7        -0.1005   -14.7011    11.1322 N.am       1 BB1          0.0000
     8 C8         1.0316   -14.5185    10.2180 C.3        1 BB1          0.0000
     9 C9         0.5537   -13.8491     8.9196 C.3        1 BB1          0.0000
    10 N10       -0.2110   -12.6542     9.3064 N.am       1 BB1          0.0000
    11 H11       -1.1374   -10.9558    11.6496 H          1 BB1          0.0000
    12 H12       -2.5700   -10.9816    10.5731 H          1 BB1          0.0000
    13 H13       -2.1608   -13.1979    10.0156 H          1 BB1          0.0000
    14 H14        0.1591   -12.7943    11.9821 H          1 BB1          0.0000
    15 H15       -1.4114   -13.5661    12.3232 H          1 BB1          0.0000
    16 H16        1.7836   -13.8892    10.6940 H          1 BB1          0.0000
    17 H17        1.4689   -15.4893     9.9849 H          1 BB1          0.0000
    18 H18        1.4113   -13.5626     8.3110 H          1 BB1          0.0000
    19 H19       -0.0875   -14.5324     8.3628 H          1 BB1          0.0000
    20 O1        -0.1937   -15.4726    12.3986 O.2        2 BB2          0.0000
    21 C2        -0.2904   -16.6423    12.7290 C.2        2 BB2          0.0000
    22 C4         0.4712   -17.1529    13.9248 C.3        2 BB2          0.0000
    23 C5         1.6394   -16.2452    14.3447 C.3        2 BB2          0.0000
    24 C6         2.4427   -17.5309    14.6026 C.3        2 BB2          0.0000
    25 C7         1.5260   -18.2160    13.5753 C.3        2 BB2          0.0000
    26 C8         1.1243   -19.6156    13.9636 C.ar       2 BB2          0.0000
    27 C9         0.6320   -19.8668    15.2300 C.ar       2 BB2          0.0000
    28 C10        0.2636   -21.1505    15.5872 C.ar       2 BB2          0.0000
    29 C11        0.3868   -22.1850    14.6770 C.ar       2 BB2          0.0000
    30 Cl12      -0.0766   -23.7965    15.1264 Cl         2 BB2          0.0000
    31 C13        0.8790   -21.9351    13.4085 C.ar       2 BB2          0.0000
    32 C14        1.2430   -20.6489    13.0492 C.ar       2 BB2          0.0000
    33 F15        1.7234   -20.4034    11.8106 F          2 BB2          0.0000
    34 H16       -0.1798   -17.4371    14.7515 H          2 BB2          0.0000
    35 H17        2.0357   -15.6387    13.5304 H          2 BB2          0.0000
    36 H18        1.4403   -15.6665    15.2467 H          2 BB2          0.0000
    37 H19        3.4833   -17.4666    14.2848 H          2 BB2          0.0000
    38 H20        2.3314   -17.9196    15.6148 H          2 BB2          0.0000
    39 H21        1.8913   -18.1483    12.5506 H          2 BB2          0.0000
    40 H22        0.5354   -19.0599    15.9414 H          2 BB2          0.0000
    41 H23       -0.1204   -21.3460    16.5776 H          2 BB2          0.0000
    42 H24        0.9754   -22.7424    12.6977 H          2 BB2          0.0000
@<TRIPOS>BOND
     1      1      2 2
     2      2      3 1
     3      2     10 am
     4      3      4 1
     5      4      5 1
     6      4     11 1
     7      4     12 1
     8      5      6 1
     9      5     10 1
    10      5     13 1
    11      6      7 1
    12      6     14 1
    13      6     15 1
    14      7      8 1
    15      8      9 1
    16      8     16 1
    17      8     17 1
    18      9     10 1
    19      9     18 1
    20      9     19 1
    21     20     21 2
    22     21     22 1
    23     22     23 1
    24     22     25 1
    25     22     34 1
    26     23     24 1
    27     23     35 1
    28     23     36 1
    29     24     25 1
    30     24     37 1
    31     24     38 1
    32     25     26 1
    33     25     39 1
    34     26     27 ar
    35     26     32 ar
    36     27     28 ar
    37     27     40 1
    38     28     29 ar
    39     28     41 1
    40     29     30 1
    41     29     31 ar
    42     31     32 ar
    43     31     42 1
    44     32     33 1
    45      7     21 am
@<TRIPOS>SUBSTRUCTURE
     1 BB1           7
     2 BB2          21
@<TRIPOS>MOLECULE
EN300-109827_i001_EN300-34862_i002_14_14_1
  31   33   2   0   0
SMALL
USER_CHARGES
@<TRIPOS>ATOM
     1 O1         0.5487   -11.0952     7.8854 O.2        1 BB1          0.0000
     2 C2        -0.0904   -11.4009     8.8727 C.2        1 BB1          0.0000
     3 O3        -0.7481   -10.5099     9.6290 O.3        1 BB1          0.0000
     4 C4        -1.5081   -11.2127    10.6573 C.3        1 BB1          0.0000
     5 C5        -1.2540   -12.6973    10.3549 C.3        1 BB1          0.0000
     6 C6        -0.6426   -13.4055    11.5674 C.3        1 BB1          0.0000
     7 N7        -0.1005   -14.7011    11.1322 N.am       1 BB1          0.0000
     8 C8         1.0316   -14.5185    10.2180 C.3        1 BB1          0.0000
     9 C9         0.5537   -13.8491     8.9196 C.3        1 BB1          0.0000
    10 N10       -0.2110   -12.6542     9.3064 N.am       1 BB1          0.0000
    11 H11       -1.1374   -10.9558    11.6496 H          1 BB1          0.0000
    12 H12       -2.5700   -10.9816    10.5731 H          1 BB1          0.0000
    13 H13       -2.1608   -13.1979    10.0156 H          1 BB1          0.0000
    14 H14        0.1591   -12.7943    11.9821 H          1 BB1          0.0000
    15 H15       -1.4114   -13.5661    12.3232 H          1 BB1          0.0000
    16 H16        1.7836   -13.8892    10.6940 H          1 BB1          0.0000
    17 H17        1.4689   -15.4893     9.9849 H          1 BB1          0.0000
    18 H18        1.4113   -13.5626     8.3110 H          1 BB1          0.0000
    19 H19       -0.0875   -14.5324     8.3628 H          1 BB1          0.0000
    20 O1         0.6242   -15.5676    12.3308 O.2        2 BB2          0.0000
    21 C2         0.8251   -16.2952    13.2882 C.2        2 BB2          0.0000
    22 C4         1.0108   -17.7766    13.0830 C.3        2 BB2          0.0000
    23 C5        -0.0651   -18.5304    13.8755 C.3        2 BB2          0.0000
    24 S6        -0.9625   -19.4773    12.6055 S.3        2 BB2          0.0000
    25 C7         0.0017   -18.9102    11.2376 C.2        2 BB2          0.0000
    26 O8        -0.1655   -19.2378    10.0784 O.2        2 BB2          0.0000
    27 N9         0.9376   -18.0697    11.6695 N.am       2 BB2          0.0000
    28 H10        1.9940   -18.0661    13.4540 H          2 BB2          0.0000
    29 H11        0.3944   -19.2026    14.6002 H          2 BB2          0.0000
    30 H12       -0.7345   -17.8292    14.3739 H          2 BB2          0.0000
    31 H13        1.5594   -17.6608    11.0474 H          2 BB2          0.0000
@<TRIPOS>BOND
     1      1      2 2
     2      2      3 1
     3      2     10 am
     4      3      4 1
     5      4      5 1
     6      4     11 1
     7      4     12 1
     8      5      6 1
     9      5     10 1
    10      5     13 1
    11      6      7 1
    12      6     14 1
    13      6     15 1
    14      7      8 1
    15      8      9 1
    16      8     16 1
    17      8     17 1
    18      9     10 1
    19      9     18 1
    20      9     19 1
    21     20     21 2
    22     21     22 1
    23     22     23 1
    24     22     27 1
    25     22     28 1
    26     23     24 1
    27     23     29 1
    28     23     30 1
    29     24     25 1
    30     25     26 2
    31     25     27 am
    32     27     31 1
    33      7     21 am
@<TRIPOS>SUBSTRUCTURE
     1 BB1           7
     2 BB2          21
@<TRIPOS>MOLECULE
EN300-109827_i001_EN300-34862_i002_14_15_1
  31   33   2   0   0
SMALL
USER_CHARGES
@<TRIPOS>ATOM
     1 O1         0.5487   -11.0952     7.8854 O.2        1 BB1          0.0000
     2 C2        -0.0904   -11.4009     8.8727 C.2        1 BB1          0.0000
     3 O3        -0.7481   -10.5099     9.6290 O.3        1 BB1          0.0000
     4 C4        -1.5081   -11.2127    10.6573 C.3        1 BB1          0.0000
     5 C5        -1.2540   -12.6973    10.3549 C.3        1 BB1          0.0000
     6 C6        -0.6426   -13.4055    11.5674 C.3        1 BB1          0.0000
     7 N7        -0.1005   -14.7011    11.1322 N.am       1 BB1          0.0000
     8 C8         1.0316   -14.5185    10.2180 C.3        1 BB1          0.0000
     9 C9         0.5537   -13.8491     8.9196 C.3        1 BB1          0.0000
    10 N10       -0.2110   -12.6542     9.3064 N.am       1 BB1          0.0000
    11 H11       -1.1374   -10.9558    11.6496 H          1 BB1          0.0000
    12 H12       -2.5700   -10.9816    10.5731 H          1 BB1          0.0000
    13 H13       -2.1608   -13.1979    10.0156 H          1 BB1          0.0000
    14 H14        0.1591   -12.7943    11.9821 H          1 BB1          0.0000
    15 H15       -1.4114   -13.5661    12.3232 H          1 BB1          0.0000
    16 H16        1.7836   -13.8892    10.6940 H          1 BB1          0.0000
    17 H17        1.4689   -15.4893     9.9849 H          1 BB1          0.0000
    18 H18        1.4113   -13.5626     8.3110 H          1 BB1          0.0000
    19 H19       -0.0875   -14.5324     8.3628 H          1 BB1          0.0000
    20 O1        -0.2724   -15.2098    12.6585 O.2        2 BB2          0.0000
    21 C2        -0.0124   -15.9764    13.5702 C.2        2 BB2          0.0000
    22 C4         0.4111   -17.3907    13.2679 C.3        2 BB2          0.0000
    23 C5         1.8467   -17.6008    13.7666 C.3        2 BB2          0.0000
    24 S6         1.6988   -18.9603    14.9686 S.3        2 BB2          0.0000
    25 C7        -0.0459   -19.1754    14.7894 C.2        2 BB2          0.0000
    26 O8        -0.7166   -19.9937    15.3890 O.2        2 BB2          0.0000
    27 N9        -0.5136   -18.3050    13.8991 N.am       2 BB2          0.0000
    28 H10        0.3827   -17.5471    12.1895 H          2 BB2          0.0000
    29 H11        2.4995   -17.8884    12.9424 H          2 BB2          0.0000
    30 H12        2.2183   -16.6990    14.2531 H          2 BB2          0.0000
    31 H13       -1.4577   -18.2838    13.6778 H          2 BB2          0.0000
@<TRIPOS>BOND
     1      1      2 2
     2      2      3 1
     3      2     10 am
     4      3      4 1
     5      4      5 1
     6      4     11 1
     7      4     12 1
     8      5      6 1
     9      5     10 1
    10      5     13 1
    11      6      7 1
    12      6     14 1
    13      6     15 1
    14      7      8 1
    15      8      9 1
    16      8     16 1
    17      8     17 1
    18      9     10 1
    19      9     18 1
    20      9     19 1
    21     20     21 2
    22     21     22 1
    23     22     23 1
    24     22     27 1
    25     22     28 1
    26     23     24 1
    27     23     29 1
    28     23     30 1
    29     24     25 1
    30     25     26 2
    31     25     27 am
    32     27     31 1
    33      7     21 am
@<TRIPOS>SUBSTRUCTURE
     1 BB1           7
     2 BB2          21
@<TRIPOS>MOLECULE
EN300-109827_i001_EN300-34862_i002_14_4_1
  31   33   2   0   0
SMALL
USER_CHARGES
@<TRIPOS>ATOM
     1 O1         0.5487   -11.0952     7.8854 O.2        1 BB1          0.0000
     2 C2        -0.0904   -11.4009     8.8727 C.2        1 BB1          0.0000
     3 O3        -0.7481   -10.5099     9.6290 O.3        1 BB1          0.0000
     4 C4        -1.5081   -11.2127    10.6573 C.3        1 BB1          0.0000
     5 C5        -1.2540   -12.6973    10.3549 C.3        1 BB1          0.0000
     6 C6        -0.6426   -13.4055    11.5674 C.3        1 BB1          0.0000
     7 N7        -0.1005   -14.7011    11.1322 N.am       1 BB1          0.0000
     8 C8         1.0316   -14.5185    10.2180 C.3        1 BB1          0.0000
     9 C9         0.5537   -13.8491     8.9196 C.3        1 BB1          0.0000
    10 N10       -0.2110   -12.6542     9.3064 N.am       1 BB1          0.0000
    11 H11       -1.1374   -10.9558    11.6496 H          1 BB1          0.0000
    12 H12       -2.5700   -10.9816    10.5731 H          1 BB1          0.0000
    13 H13       -2.1608   -13.1979    10.0156 H          1 BB1          0.0000
    14 H14        0.1591   -12.7943    11.9821 H          1 BB1          0.0000
    15 H15       -1.4114   -13.5661    12.3232 H          1 BB1          0.0000
    16 H16        1.7836   -13.8892    10.6940 H          1 BB1          0.0000
    17 H17        1.4689   -15.4893     9.9849 H          1 BB1          0.0000
    18 H18        1.4113   -13.5626     8.3110 H          1 BB1          0.0000
    19 H19       -0.0875   -14.5324     8.3628 H          1 BB1          0.0000
    20 C2         0.4217   -16.2811    13.4086 C.2        2 BB2          0.0000
    21 O3        -0.1845   -16.2055    12.3535 O.2        2 BB2          0.0000
    22 C4         1.6010   -17.2107    13.5351 C.3        2 BB2          0.0000
    23 C5         1.4164   -18.0867    14.7810 C.3        2 BB2          0.0000
    24 S6         1.4167   -19.7857    14.1264 S.3        2 BB2          0.0000
    25 C7         1.6347   -19.3303    12.4330 C.2        2 BB2          0.0000
    26 O8         1.7078   -20.1089    11.5015 O.2        2 BB2          0.0000
    27 N9         1.7057   -18.0060    12.3327 N.am       2 BB2          0.0000
    28 H10        2.5093   -16.6187    13.6480 H          2 BB2          0.0000
    29 H11        2.2449   -17.9441    15.4749 H          2 BB2          0.0000
    30 H12        0.4666   -17.8645    15.2674 H          2 BB2          0.0000
    31 H13        1.8252   -17.5817    11.4687 H          2 BB2          0.0000
@<TRIPOS>BOND
     1      1      2 2
     2      2      3 1
     3      2     10 am
     4      3      4 1
     5      4      5 1
     6      4     11 1
     7      4     12 1
     8      5      6 1
     9      5     10 1
    10      5     13 1
    11      6      7 1
    12      6     14 1
    13      6     15 1
    14      7      8 1
    15      8      9 1
    16      8     16 1
    17      8     17 1
    18      9     10 1
    19      9     18 1
    20      9     19 1
    21     20     21 2
    22     20     22 1
    23     22     23 1
    24     22     27 1
    25     22     28 1
    26     23     24 1
    27     23     29 1
    28     23     30 1
    29     24     25 1
    30     25     26 2
    31     25     27 am
    32     27     31 1
    33      7     20 am
@<TRIPOS>SUBSTRUCTURE
     1 BB1           7
     2 BB2          20
@<TRIPOS>MOLECULE
EN300-109827_i001_EN300-107901_i001_14_12_1
  45   48   2   0   0
SMALL
USER_CHARGES
@<TRIPOS>ATOM
     1 O1         0.5487   -11.0952     7.8854 O.2        1 BB1          0.0000
     2 C2        -0.0904   -11.4009     8.8727 C.2        1 BB1          0.0000
     3 O3        -0.7481   -10.5099     9.6290 O.3        1 BB1          0.0000
     4 C4        -1.5081   -11.2127    10.6573 C.3        1 BB1          0.0000
     5 C5        -1.2540   -12.6973    10.3549 C.3        1 BB1          0.0000
     6 C6        -0.6426   -13.4055    11.5674 C.3        1 BB1          0.0000
     7 N7        -0.1005   -14.7011    11.1322 N.am       1 BB1          0.0000
     8 C8         1.0316   -14.5185    10.2180 C.3        1 BB1          0.0000
     9 C9         0.5537   -13.8491     8.9196 C.3        1 BB1          0.0000
    10 N10       -0.2110   -12.6542     9.3064 N.am       1 BB1          0.0000
    11 H11       -1.1374   -10.9558    11.6496 H          1 BB1          0.0000
    12 H12       -2.5700   -10.9816    10.5731 H          1 BB1          0.0000
    13 H13       -2.1608   -13.1979    10.0156 H          1 BB1          0.0000
    14 H14        0.1591   -12.7943    11.9821 H          1 BB1          0.0000
    15 H15       -1.4114   -13.5661    12.3232 H          1 BB1          0.0000
    16 H16        1.7836   -13.8892    10.6940 H          1 BB1          0.0000
    17 H17        1.4689   -15.4893     9.9849 H          1 BB1          0.0000
    18 H18        1.4113   -13.5626     8.3110 H          1 BB1          0.0000
    19 H19       -0.0875   -14.5324     8.3628 H          1 BB1          0.0000
    20 O1        -0.1040   -16.8127    10.9419 O.2        2 BB2          0.0000
    21 C2        -0.6586   -17.0647    11.9980 C.2        2 BB2          0.0000
    22 C4        -0.5081   -16.1395    13.1591 C.3        2 BB2          0.0000
    23 C5         0.8714   -15.6148    13.5202 C.3        2 BB2          0.0000
    24 C6         2.0718   -15.9927    12.6993 C.3        2 BB2          0.0000
    25 C7         2.9006   -17.0996    13.4447 C.3        2 BB2          0.0000
    26 C8         2.5304   -18.3463    12.5651 C.3        2 BB2          0.0000
    27 C9         1.3193   -19.1710    12.9337 C.3        2 BB2          0.0000
    28 C10        0.3748   -18.9766    14.0680 C.3        2 BB2          0.0000
    29 C11        0.7279   -17.7895    14.9401 C.3        2 BB2          0.0000
    30 C12        0.1108   -16.4913    14.4829 C.3        2 BB2          0.0000
    31 H13       -1.3221   -15.3755    13.1908 H          2 BB2          0.0000
    32 H14        0.8986   -14.5156    13.7853 H          2 BB2          0.0000
    33 H15        1.8115   -16.3477    11.7082 H          2 BB2          0.0000
    34 H16        2.7334   -15.1198    12.5839 H          2 BB2          0.0000
    35 H17        3.9712   -16.8793    13.2373 H          2 BB2          0.0000
    36 H18        2.7591   -17.1473    14.4662 H          2 BB2          0.0000
    37 H19        2.4322   -17.9925    11.5342 H          2 BB2          0.0000
    38 H20        3.4173   -18.9981    12.5812 H          2 BB2          0.0000
    39 H21        0.7203   -19.2946    12.0023 H          2 BB2          0.0000
    40 H22        1.7166   -20.2196    13.0503 H          2 BB2          0.0000
    41 H23       -0.6753   -18.9302    13.7299 H          2 BB2          0.0000
    42 H24        0.3881   -19.9005    14.7055 H          2 BB2          0.0000
    43 H25        0.2169   -18.0196    15.9493 H          2 BB2          0.0000
    44 H26        1.7414   -17.7849    15.3103 H          2 BB2          0.0000
    45 H27       -0.3766   -15.9447    15.3713 H          2 BB2          0.0000
@<TRIPOS>BOND
     1      1      2 2
     2      2      3 1
     3      2     10 am
     4      3      4 1
     5      4      5 1
     6      4     11 1
     7      4     12 1
     8      5      6 1
     9      5     10 1
    10      5     13 1
    11      6      7 1
    12      6     14 1
    13      6     15 1
    14      7      8 1
    15      8      9 1
    16      8     16 1
    17      8     17 1
    18      9     10 1
    19      9     18 1
    20      9     19 1
    21     20     21 2
    22     21     22 1
    23     22     23 1
    24     22     30 1
    25     22     31 1
    26     23     24 1
    27     23     30 1
    28     23     32 1
    29     24     25 1
    30     24     33 1
    31     24     34 1
    32     25     26 1
    33     25     35 1
    34     25     36 1
    35     26     27 1
    36     26     37 1
    37     26     38 1
    38     27     28 1
    39     27     39 1
    40     27     40 1
    41     28     29 1
    42     28     41 1
    43     28     42 1
    44     29     30 1
    45     29     43 1
    46     29     44 1
    47     30     45 1
    48      7     21 am
@<TRIPOS>SUBSTRUCTURE
     1 BB1           7
     2 BB2          21
@<TRIPOS>MOLECULE
EN300-109827_i001_EN300-344045_i001_14_10_1
  48   51   2   0   0
SMALL
USER_CHARGES
@<TRIPOS>ATOM
     1 O1         0.5487   -11.0952     7.8854 O.2        1 BB1          0.0000
     2 C2        -0.0904   -11.4009     8.8727 C.2        1 BB1          0.0000
     3 O3        -0.7481   -10.5099     9.6290 O.3        1 BB1          0.0000
     4 C4        -1.5081   -11.2127    10.6573 C.3        1 BB1          0.0000
     5 C5        -1.2540   -12.6973    10.3549 C.3        1 BB1          0.0000
     6 C6        -0.6426   -13.4055    11.5674 C.3        1 BB1          0.0000
     7 N7        -0.1005   -14.7011    11.1322 N.am       1 BB1          0.0000
     8 C8         1.0316   -14.5185    10.2180 C.3        1 BB1          0.0000
     9 C9         0.5537   -13.8491     8.9196 C.3        1 BB1          0.0000
    10 N10       -0.2110   -12.6542     9.3064 N.am       1 BB1          0.0000
    11 H11       -1.1374   -10.9558    11.6496 H          1 BB1          0.0000
    12 H12       -2.5700   -10.9816    10.5731 H          1 BB1          0.0000
    13 H13       -2.1608   -13.1979    10.0156 H          1 BB1          0.0000
    14 H14        0.1591   -12.7943    11.9821 H          1 BB1          0.0000
    15 H15       -1.4114   -13.5661    12.3232 H          1 BB1          0.0000
    16 H16        1.7836   -13.8892    10.6940 H          1 BB1          0.0000
    17 H17        1.4689   -15.4893     9.9849 H          1 BB1          0.0000
    18 H18        1.4113   -13.5626     8.3110 H          1 BB1          0.0000
    19 H19       -0.0875   -14.5324     8.3628 H          1 BB1          0.0000
    20 O1        -0.1020   -15.4251    12.3109 O.2        2 BB2          0.0000
    21 C2        -0.1552   -16.1642    13.2791 C.2        2 BB2          0.0000
    22 C4        -0.2949   -17.6520    13.0845 C.3        2 BB2          0.0000
    23 C5         1.0177   -18.3411    13.4627 C.3        2 BB2          0.0000
    24 C6         2.1466   -17.8837    12.5159 C.3        2 BB2          0.0000
    25 C7         2.8436   -16.7333    13.2840 C.3        2 BB2          0.0000
    26 C8         2.8113   -17.2322    14.7500 C.3        2 BB2          0.0000
    27 C9         1.4404   -17.9270    14.8830 C.3        2 BB2          0.0000
    28 C10        0.8553   -19.8375    13.3870 C.ar       2 BB2          0.0000
    29 C11        0.3498   -20.4207    12.2402 C.ar       2 BB2          0.0000
    30 C12        0.2007   -21.7932    12.1708 C.ar       2 BB2          0.0000
    31 C13        0.5577   -22.5826    13.2481 C.ar       2 BB2          0.0000
    32 C14        1.0640   -21.9994    14.3945 C.ar       2 BB2          0.0000
    33 C15        1.2171   -20.6272    14.4623 C.ar       2 BB2          0.0000
    34 H16       -1.0982   -18.0276    13.7185 H          2 BB2          0.0000
    35 H17       -0.5277   -17.8617    12.0405 H          2 BB2          0.0000
    36 H18        2.8460   -18.6997    12.3341 H          2 BB2          0.0000
    37 H19        1.7321   -17.5187    11.5762 H          2 BB2          0.0000
    38 H20        3.8707   -16.6068    12.9415 H          2 BB2          0.0000
    39 H21        2.2833   -15.8041    13.1798 H          2 BB2          0.0000
    40 H22        3.6181   -17.9430    14.9289 H          2 BB2          0.0000
    41 H23        2.8818   -16.3919    15.4406 H          2 BB2          0.0000
    42 H24        0.7104   -17.2350    15.3030 H          2 BB2          0.0000
    43 H25        1.5285   -18.8083    15.5183 H          2 BB2          0.0000
    44 H26        0.0709   -19.8041    11.3986 H          2 BB2          0.0000
    45 H27       -0.1949   -22.2488    11.2751 H          2 BB2          0.0000
    46 H28        0.4406   -23.6548    13.1941 H          2 BB2          0.0000
    47 H29        1.3426   -22.6160    15.2363 H          2 BB2          0.0000
    48 H30        1.6128   -20.1715    15.3580 H          2 BB2          0.0000
@<TRIPOS>BOND
     1      1      2 2
     2      2      3 1
     3      2     10 am
     4      3      4 1
     5      4      5 1
     6      4     11 1
     7      4     12 1
     8      5      6 1
     9      5     10 1
    10      5     13 1
    11      6      7 1
    12      6     14 1
    13      6     15 1
    14      7      8 1
    15      8      9 1
    16      8     16 1
    17      8     17 1
    18      9     10 1
    19      9     18 1
    20      9     19 1
    21     20     21 2
    22     21     22 1
    23     22     23 1
    24     22     34 1
    25     22     35 1
    26     23     24 1
    27     23     27 1
    28     23     28 1
    29     24     25 1
    30     24     36 1
    31     24     37 1
    32     25     26 1
    33     25     38 1
    34     25     39 1
    35     26     27 1
    36     26     40 1
    37     26     41 1
    38     27     42 1
    39     27     43 1
    40     28     29 ar
    41     28     33 ar
    42     29     30 ar
    43     29     44 1
    44     30     31 ar
    45     30     45 1
    46     31     32 ar
    47     31     46 1
    48     32     33 ar
    49     32     47 1
    50     33     48 1
    51      7     21 am
@<TRIPOS>SUBSTRUCTURE
     1 BB1           7
     2 BB2          21
@<TRIPOS>MOLECULE
EN300-109827_i001_EN300-344045_i001_14_8_1
  48   51   2   0   0
SMALL
USER_CHARGES
@<TRIPOS>ATOM
     1 O1         0.5487   -11.0952     7.8854 O.2        1 BB1          0.0000
     2 C2        -0.0904   -11.4009     8.8727 C.2        1 BB1          0.0000
     3 O3        -0.7481   -10.5099     9.6290 O.3        1 BB1          0.0000
     4 C4        -1.5081   -11.2127    10.6573 C.3        1 BB1          0.0000
     5 C5        -1.2540   -12.6973    10.3549 C.3        1 BB1          0.0000
     6 C6        -0.6426   -13.4055    11.5674 C.3        1 BB1          0.0000
     7 N7        -0.1005   -14.7011    11.1322 N.am       1 BB1          0.0000
     8 C8         1.0316   -14.5185    10.2180 C.3        1 BB1          0.0000
     9 C9         0.5537   -13.8491     8.9196 C.3        1 BB1          0.0000
    10 N10       -0.2110   -12.6542     9.3064 N.am       1 BB1          0.0000
    11 H11       -1.1374   -10.9558    11.6496 H          1 BB1          0.0000
    12 H12       -2.5700   -10.9816    10.5731 H          1 BB1          0.0000
    13 H13       -2.1608   -13.1979    10.0156 H          1 BB1          0.0000
    14 H14        0.1591   -12.7943    11.9821 H          1 BB1          0.0000
    15 H15       -1.4114   -13.5661    12.3232 H          1 BB1          0.0000
    16 H16        1.7836   -13.8892    10.6940 H          1 BB1          0.0000
    17 H17        1.4689   -15.4893     9.9849 H          1 BB1          0.0000
    18 H18        1.4113   -13.5626     8.3110 H          1 BB1          0.0000
    19 H19       -0.0875   -14.5324     8.3628 H          1 BB1          0.0000
    20 O1         0.1977   -15.0634    12.4746 O.2        2 BB2          0.0000
    21 C2        -0.1011   -15.8922    13.3172 C.2        2 BB2          0.0000
    22 C4        -0.5242   -17.2760    12.8963 C.3        2 BB2          0.0000
    23 C5         0.5490   -18.2852    13.3093 C.3        2 BB2          0.0000
    24 C6         1.8848   -17.9504    12.6139 C.3        2 BB2          0.0000
    25 C7         2.6573   -17.1093    13.6602 C.3        2 BB2          0.0000
    26 C8         2.2891   -17.8025    14.9954 C.3        2 BB2          0.0000
    27 C9         0.8061   -18.1912    14.8234 C.3        2 BB2          0.0000
    28 C10        0.1126   -19.6807    12.9444 C.ar       2 BB2          0.0000
    29 C11       -1.0025   -20.2352    13.5441 C.ar       2 BB2          0.0000
    30 C12       -1.4027   -21.5153    13.2094 C.ar       2 BB2          0.0000
    31 C13       -0.6881   -22.2407    12.2744 C.ar       2 BB2          0.0000
    32 C14        0.4266   -21.6858    11.6741 C.ar       2 BB2          0.0000
    33 C15        0.8243   -20.4040    12.0056 C.ar       2 BB2          0.0000
    34 H16       -1.4675   -17.5304    13.3797 H          2 BB2          0.0000
    35 H17       -0.6516   -17.3036    11.8140 H          2 BB2          0.0000
    36 H18        2.4319   -18.8634    12.3791 H          2 BB2          0.0000
    37 H19        1.7087   -17.3669    11.7102 H          2 BB2          0.0000
    38 H20        3.7313   -17.1616    13.4811 H          2 BB2          0.0000
    39 H21        2.3136   -16.0749    13.6543 H          2 BB2          0.0000
    40 H22        2.9015   -18.6917    15.1453 H          2 BB2          0.0000
    41 H23        2.4080   -17.1112    15.8297 H          2 BB2          0.0000
    42 H24        0.1663   -17.4266    15.2641 H          2 BB2          0.0000
    43 H25        0.6156   -19.1552    15.2951 H          2 BB2          0.0000
    44 H26       -1.5609   -19.6686    14.2745 H          2 BB2          0.0000
    45 H27       -2.2735   -21.9489    13.6785 H          2 BB2          0.0000
    46 H28       -1.0003   -23.2410    12.0135 H          2 BB2          0.0000
    47 H29        0.9852   -22.2526    10.9438 H          2 BB2          0.0000
    48 H30        1.6951   -19.9705    11.5365 H          2 BB2          0.0000
@<TRIPOS>BOND
     1      1      2 2
     2      2      3 1
     3      2     10 am
     4      3      4 1
     5      4      5 1
     6      4     11 1
     7      4     12 1
     8      5      6 1
     9      5     10 1
    10      5     13 1
    11      6      7 1
    12      6     14 1
    13      6     15 1
    14      7      8 1
    15      8      9 1
    16      8     16 1
    17      8     17 1
    18      9     10 1
    19      9     18 1
    20      9     19 1
    21     20     21 2
    22     21     22 1
    23     22     23 1
    24     22     34 1
    25     22     35 1
    26     23     24 1
    27     23     27 1
    28     23     28 1
    29     24     25 1
    30     24     36 1
    31     24     37 1
    32     25     26 1
    33     25     38 1
    34     25     39 1
    35     26     27 1
    36     26     40 1
    37     26     41 1
    38     27     42 1
    39     27     43 1
    40     28     29 ar
    41     28     33 ar
    42     29     30 ar
    43     29     44 1
    44     30     31 ar
    45     30     45 1
    46     31     32 ar
    47     31     46 1
    48     32     33 ar
    49     32     47 1
    50     33     48 1
    51      7     21 am
@<TRIPOS>SUBSTRUCTURE
     1 BB1           7
     2 BB2          21
@<TRIPOS>MOLECULE
EN300-109827_i001_EN300-15782_i003_14_1_1
  53   55   2   0   0
SMALL
USER_CHARGES
@<TRIPOS>ATOM
     1 O1         0.5487   -11.0952     7.8854 O.2        1 BB1          0.0000
     2 C2        -0.0904   -11.4009     8.8727 C.2        1 BB1          0.0000
     3 O3        -0.7481   -10.5099     9.6290 O.3        1 BB1          0.0000
     4 C4        -1.5081   -11.2127    10.6573 C.3        1 BB1          0.0000
     5 C5        -1.2540   -12.6973    10.3549 C.3        1 BB1          0.0000
     6 C6        -0.6426   -13.4055    11.5674 C.3        1 BB1          0.0000
     7 N7        -0.1005   -14.7011    11.1322 N.am       1 BB1          0.0000
     8 C8         1.0316   -14.5185    10.2180 C.3        1 BB1          0.0000
     9 C9         0.5537   -13.8491     8.9196 C.3        1 BB1          0.0000
    10 N10       -0.2110   -12.6542     9.3064 N.am       1 BB1          0.0000
    11 H11       -1.1374   -10.9558    11.6496 H          1 BB1          0.0000
    12 H12       -2.5700   -10.9816    10.5731 H          1 BB1          0.0000
    13 H13       -2.1608   -13.1979    10.0156 H          1 BB1          0.0000
    14 H14        0.1591   -12.7943    11.9821 H          1 BB1          0.0000
    15 H15       -1.4114   -13.5661    12.3232 H          1 BB1          0.0000
    16 H16        1.7836   -13.8892    10.6940 H          1 BB1          0.0000
    17 H17        1.4689   -15.4893     9.9849 H          1 BB1          0.0000
    18 H18        1.4113   -13.5626     8.3110 H          1 BB1          0.0000
    19 H19       -0.0875   -14.5324     8.3628 H          1 BB1          0.0000
    20 C1         2.8040   -17.0897    14.7732 C.3        2 BB2          0.0000
    21 C2         2.4576   -16.8604    13.3007 C.3        2 BB2          0.0000
    22 O3         3.3001   -17.6732    12.4810 O.3        2 BB2          0.0000
    23 C4         0.9943   -17.2346    13.0567 C.3        2 BB2          0.0000
    24 N5         0.8397   -17.7347    11.6884 N.pl3      2 BB2          0.0000
    25 S6        -0.3586   -18.8215    11.3345 S.o2       2 BB2          0.0000
    26 O7        -1.5562   -18.2922    11.8866 O.2        2 BB2          0.0000
    27 O8        -0.2136   -19.1445     9.9584 O.2        2 BB2          0.0000
    28 C9        -0.0065   -20.2966    12.2316 C.ar       2 BB2          0.0000
    29 C10        1.1015   -20.3563    13.0557 C.ar       2 BB2          0.0000
    30 C11        1.3777   -21.5139    13.7596 C.ar       2 BB2          0.0000
    31 C12        0.5457   -22.6109    13.6394 C.ar       2 BB2          0.0000
    32 C13        0.8472   -23.8727    14.4063 C.3        2 BB2          0.0000
    33 C14       -0.5633   -22.5507    12.8162 C.ar       2 BB2          0.0000
    34 C15       -1.4707   -23.7467    12.6856 C.3        2 BB2          0.0000
    35 C16       -0.8416   -21.3922    12.1155 C.ar       2 BB2          0.0000
    36 C17        0.1261   -16.0176    13.2478 C.2        2 BB2          0.0000
    37 O19       -0.4176   -15.4997    12.2872 O.2        2 BB2          0.0000
    38 H20        3.8466   -16.8233    14.9470 H          2 BB2          0.0000
    39 H21        2.1614   -16.4699    15.3984 H          2 BB2          0.0000
    40 H22        2.6508   -18.1396    15.0233 H          2 BB2          0.0000
    41 H23        2.6109   -15.8106    13.0506 H          2 BB2          0.0000
    42 H24        0.6947   -18.0090    13.7627 H          2 BB2          0.0000
    43 H25        1.7516   -19.4990    13.1496 H          2 BB2          0.0000
    44 H26        2.2439   -21.5608    14.4030 H          2 BB2          0.0000
    45 H27        0.3543   -23.8341    15.3777 H          2 BB2          0.0000
    46 H28        0.4814   -24.7339    13.8472 H          2 BB2          0.0000
    47 H29        1.9242   -23.9628    14.5487 H          2 BB2          0.0000
    48 H30       -2.2548   -23.6921    13.4408 H          2 BB2          0.0000
    49 H31       -1.9218   -23.7540    11.6934 H          2 BB2          0.0000
    50 H32       -0.8918   -24.6592    12.8283 H          2 BB2          0.0000
    51 H33       -1.7081   -21.3452    11.4724 H          2 BB2          0.0000
    52 H34        3.2428   -17.4720    11.5370 H          2 BB2          0.0000
    53 H35        1.4393   -17.4293    10.9898 H          2 BB2          0.0000
@<TRIPOS>BOND
     1      1      2 2
     2      2      3 1
     3      2     10 am
     4      3      4 1
     5      4      5 1
     6      4     11 1
     7      4     12 1
     8      5      6 1
     9      5     10 1
    10      5     13 1
    11      6      7 1
    12      6     14 1
    13      6     15 1
    14      7      8 1
    15      8      9 1
    16      8     16 1
    17      8     17 1
    18      9     10 1
    19      9     18 1
    20      9     19 1
    21     20     21 1
    22     20     38 1
    23     20     39 1
    24     20     40 1
    25     21     22 1
    26     21     23 1
    27     21     41 1
    28     22     52 1
    29     23     24 1
    30     23     36 1
    31     23     42 1
    32     24     25 1
    33     24     53 1
    34     25     26 2
    35     25     27 2
    36     25     28 1
    37     28     29 ar
    38     28     35 ar
    39     29     30 ar
    40     29     43 1
    41     30     31 ar
    42     30     44 1
    43     31     32 1
    44     31     33 ar
    45     32     45 1
    46     32     46 1
    47     32     47 1
    48     33     34 1
    49     33     35 ar
    50     34     48 1
    51     34     49 1
    52     34     50 1
    53     35     51 1
    54     36     37 2
    55      7     36 am
@<TRIPOS>SUBSTRUCTURE
     1 BB1           7
     2 BB2          36
@<TRIPOS>MOLECULE
EN300-109827_i001_EN300-15782_i003_14_14_1
  53   55   2   0   0
SMALL
USER_CHARGES
@<TRIPOS>ATOM
     1 O1         0.5487   -11.0952     7.8854 O.2        1 BB1          0.0000
     2 C2        -0.0904   -11.4009     8.8727 C.2        1 BB1          0.0000
     3 O3        -0.7481   -10.5099     9.6290 O.3        1 BB1          0.0000
     4 C4        -1.5081   -11.2127    10.6573 C.3        1 BB1          0.0000
     5 C5        -1.2540   -12.6973    10.3549 C.3        1 BB1          0.0000
     6 C6        -0.6426   -13.4055    11.5674 C.3        1 BB1          0.0000
     7 N7        -0.1005   -14.7011    11.1322 N.am       1 BB1          0.0000
     8 C8         1.0316   -14.5185    10.2180 C.3        1 BB1          0.0000
     9 C9         0.5537   -13.8491     8.9196 C.3        1 BB1          0.0000
    10 N10       -0.2110   -12.6542     9.3064 N.am       1 BB1          0.0000
    11 H11       -1.1374   -10.9558    11.6496 H          1 BB1          0.0000
    12 H12       -2.5700   -10.9816    10.5731 H          1 BB1          0.0000
    13 H13       -2.1608   -13.1979    10.0156 H          1 BB1          0.0000
    14 H14        0.1591   -12.7943    11.9821 H          1 BB1          0.0000
    15 H15       -1.4114   -13.5661    12.3232 H          1 BB1          0.0000
    16 H16        1.7836   -13.8892    10.6940 H          1 BB1          0.0000
    17 H17        1.4689   -15.4893     9.9849 H          1 BB1          0.0000
    18 H18        1.4113   -13.5626     8.3110 H          1 BB1          0.0000
    19 H19       -0.0875   -14.5324     8.3628 H          1 BB1          0.0000
    20 C1         0.4223   -15.2869    10.4105 C.3        2 BB2          0.0000
    21 C2        -0.3078   -16.4969    10.9967 C.3        2 BB2          0.0000
    22 O3        -0.2377   -17.5876    10.0759 O.3        2 BB2          0.0000
    23 C4         0.3523   -16.9006    12.3166 C.3        2 BB2          0.0000
    24 N5        -0.3344   -18.0714    12.8679 N.pl3      2 BB2          0.0000
    25 S6         0.0976   -18.6611    14.3538 S.o2       2 BB2          0.0000
    26 O7         1.4814   -18.3790    14.5107 O.2        2 BB2          0.0000
    27 O8        -0.8951   -18.2141    15.2670 O.2        2 BB2          0.0000
    28 C9        -0.0474   -20.4156    14.2809 C.ar       2 BB2          0.0000
    29 C10        1.0739   -21.2087    14.4360 C.ar       2 BB2          0.0000
    30 C11        0.9601   -22.5854    14.3788 C.ar       2 BB2          0.0000
    31 C12       -0.2749   -23.1685    14.1669 C.ar       2 BB2          0.0000
    32 C13       -0.3987   -24.6691    14.1041 C.3        2 BB2          0.0000
    33 C14       -1.3967   -22.3753    14.0132 C.ar       2 BB2          0.0000
    34 C15       -2.7433   -23.0112    13.7826 C.3        2 BB2          0.0000
    35 C16       -1.2835   -20.9991    14.0742 C.ar       2 BB2          0.0000
    36 C17        0.2602   -15.7576    13.2945 C.2        2 BB2          0.0000
    37 O18       -0.3554   -14.7483    12.9963 O.2        2 BB2          0.0000
    38 H20       -0.0479   -14.9993     9.4701 H          2 BB2          0.0000
    39 H21        0.3689   -14.4550    11.1128 H          2 BB2          0.0000
    40 H22        1.4662   -15.5443    10.2310 H          2 BB2          0.0000
    41 H23       -1.3517   -16.2395    11.1762 H          2 BB2          0.0000
    42 H24        1.3999   -17.1437    12.1395 H          2 BB2          0.0000
    43 H25        2.0390   -20.7530    14.6016 H          2 BB2          0.0000
    44 H26        1.8364   -23.2051    14.4993 H          2 BB2          0.0000
    45 H27       -0.5888   -25.0602    15.1035 H          2 BB2          0.0000
    46 H28       -1.2245   -24.9383    13.4454 H          2 BB2          0.0000
    47 H29        0.5276   -25.0944    13.7176 H          2 BB2          0.0000
    48 H30       -3.2279   -23.1938    14.7418 H          2 BB2          0.0000
    49 H31       -3.3629   -22.3434    13.1840 H          2 BB2          0.0000
    50 H32       -2.6134   -23.9563    13.2555 H          2 BB2          0.0000
    51 H33       -2.1600   -20.3795    13.9541 H          2 BB2          0.0000
    52 H34        0.6587   -17.9163     9.9232 H          2 BB2          0.0000
    53 H35       -1.0421   -18.5012    12.3626 H          2 BB2          0.0000
@<TRIPOS>BOND
     1      1      2 2
     2      2      3 1
     3      2     10 am
     4      3      4 1
     5      4      5 1
     6      4     11 1
     7      4     12 1
     8      5      6 1
     9      5     10 1
    10      5     13 1
    11      6      7 1
    12      6     14 1
    13      6     15 1
    14      7      8 1
    15      8      9 1
    16      8     16 1
    17      8     17 1
    18      9     10 1
    19      9     18 1
    20      9     19 1
    21     20     21 1
    22     20     38 1
    23     20     39 1
    24     20     40 1
    25     21     22 1
    26     21     23 1
    27     21     41 1
    28     22     52 1
    29     23     24 1
    30     23     36 1
    31     23     42 1
    32     24     25 1
    33     24     53 1
    34     25     26 2
    35     25     27 2
    36     25     28 1
    37     28     29 ar
    38     28     35 ar
    39     29     30 ar
    40     29     43 1
    41     30     31 ar
    42     30     44 1
    43     31     32 1
    44     31     33 ar
    45     32     45 1
    46     32     46 1
    47     32     47 1
    48     33     34 1
    49     33     35 ar
    50     34     48 1
    51     34     49 1
    52     34     50 1
    53     35     51 1
    54     36     37 2
    55      7     36 am
@<TRIPOS>SUBSTRUCTURE
     1 BB1           7
     2 BB2          36
@<TRIPOS>MOLECULE
EN300-109827_i001_EN300-1198129_i001_17_19_1
  43   45   2   0   0
SMALL
USER_CHARGES
@<TRIPOS>ATOM
     1 O1        -1.3331   -19.6227    13.4698 O.2        1 BB1          0.0000
     2 C2        -0.2249   -19.1774    13.6933 C.2        1 BB1          0.0000
     3 O3         0.4741   -19.4639    14.8014 O.3        1 BB1          0.0000
     4 C4         1.8041   -18.8719    14.7034 C.3        1 BB1          0.0000
     5 C5         1.8205   -18.2288    13.3084 C.3        1 BB1          0.0000
     6 C6         2.1226   -16.7302    13.4006 C.3        1 BB1          0.0000
     7 N7         1.7866   -16.1020    12.1144 N.am       1 BB1          0.0000
     8 C8         0.3433   -16.1596    11.8608 C.3        1 BB1          0.0000
     9 C9        -0.1024   -17.6217    11.6995 C.3        1 BB1          0.0000
    10 N10        0.4170   -18.3614    12.8593 N.am       1 BB1          0.0000
    11 H11        1.9436   -18.1149    15.4751 H          1 BB1          0.0000
    12 H12        2.5719   -19.6420    14.7785 H          1 BB1          0.0000
    13 H13        2.5177   -18.7362    12.6416 H          1 BB1          0.0000
    14 H14        1.5220   -16.2842    14.1935 H          1 BB1          0.0000
    15 H15        3.1813   -16.5830    13.6140 H          1 BB1          0.0000
    16 H16       -0.1897   -15.7091    12.6981 H          1 BB1          0.0000
    17 H17        0.1137   -15.6085    10.9488 H          1 BB1          0.0000
    18 H18       -1.1906   -17.6788    11.6770 H          1 BB1          0.0000
    19 H19        0.3123   -18.0379    10.7814 H          1 BB1          0.0000
    20 C2        -0.0992   -16.0437    11.1864 C.2        2 BB2          0.0000
    21 O3         0.1100   -15.6461    12.3241 O.2        2 BB2          0.0000
    22 C4        -0.0979   -15.0920    10.0614 C.ar       2 BB2          0.0000
    23 C5        -0.0950   -13.7157    10.3052 C.ar       2 BB2          0.0000
    24 C6        -0.0937   -12.8313     9.2479 C.ar       2 BB2          0.0000
    25 C7        -0.0957   -13.3016     7.9456 C.ar       2 BB2          0.0000
    26 C8        -0.0987   -14.6609     7.6932 C.ar       2 BB2          0.0000
    27 C9        -0.0936   -15.5616     8.7423 C.ar       2 BB2          0.0000
    28 F10       -0.0964   -16.8898     8.4955 F          2 BB2          0.0000
    29 S11       -0.0901   -11.0963     9.5546 S.o2       2 BB2          0.0000
    30 O12        1.2590   -10.8027     9.8907 O.2        2 BB2          0.0000
    31 O13       -0.6960   -10.5347     8.3985 O.2        2 BB2          0.0000
    32 C14       -1.1656   -10.8901    11.0008 C.3        2 BB2          0.0000
    33 C15       -2.3179    -9.9470    10.6491 C.3        2 BB2          0.0000
    34 C16       -3.4317   -10.7237    10.0809 C.1        2 BB2          0.0000
    35 C17       -4.3201   -11.3431     9.6277 C.1        2 BB2          0.0000
    36 H18       -0.0940   -13.3459    11.3199 H          2 BB2          0.0000
    37 H19       -0.0955   -12.6026     7.1222 H          2 BB2          0.0000
    38 H20       -0.1002   -15.0199     6.6747 H          2 BB2          0.0000
    39 H21       -1.5669   -11.8595    11.2963 H          2 BB2          0.0000
    40 H22       -0.5898   -10.4688    11.8248 H          2 BB2          0.0000
    41 H23       -2.6551    -9.4338    11.5497 H          2 BB2          0.0000
    42 H24       -1.9769    -9.2132     9.9188 H          2 BB2          0.0000
    43 H25       -5.1147   -11.8971     9.2224 H          2 BB2          0.0000
@<TRIPOS>BOND
     1      1      2 2
     2      2      3 1
     3      2     10 am
     4      3      4 1
     5      4      5 1
     6      4     11 1
     7      4     12 1
     8      5      6 1
     9      5     10 1
    10      5     13 1
    11      6      7 1
    12      6     14 1
    13      6     15 1
    14      7      8 1
    15      8      9 1
    16      8     16 1
    17      8     17 1
    18      9     10 1
    19      9     18 1
    20      9     19 1
    21     20     21 2
    22     20     22 1
    23     22     23 ar
    24     22     27 ar
    25     23     24 ar
    26     23     36 1
    27     24     25 ar
    28     24     29 1
    29     25     26 ar
    30     25     37 1
    31     26     27 ar
    32     26     38 1
    33     27     28 1
    34     29     30 2
    35     29     31 2
    36     29     32 1
    37     32     33 1
    38     32     39 1
    39     32     40 1
    40     33     34 1
    41     33     41 1
    42     33     42 1
    43     34     35 3
    44     35     43 1
    45      7     20 am
@<TRIPOS>SUBSTRUCTURE
     1 BB1           7
     2 BB2          20
@<TRIPOS>MOLECULE
EN300-109827_i001_EN300-1198129_i001_17_2_1
  43   45   2   0   0
SMALL
USER_CHARGES
@<TRIPOS>ATOM
     1 O1        -1.3331   -19.6227    13.4698 O.2        1 BB1          0.0000
     2 C2        -0.2249   -19.1774    13.6933 C.2        1 BB1          0.0000
     3 O3         0.4741   -19.4639    14.8014 O.3        1 BB1          0.0000
     4 C4         1.8041   -18.8719    14.7034 C.3        1 BB1          0.0000
     5 C5         1.8205   -18.2288    13.3084 C.3        1 BB1          0.0000
     6 C6         2.1226   -16.7302    13.4006 C.3        1 BB1          0.0000
     7 N7         1.7866   -16.1020    12.1144 N.am       1 BB1          0.0000
     8 C8         0.3433   -16.1596    11.8608 C.3        1 BB1          0.0000
     9 C9        -0.1024   -17.6217    11.6995 C.3        1 BB1          0.0000
    10 N10        0.4170   -18.3614    12.8593 N.am       1 BB1          0.0000
    11 H11        1.9436   -18.1149    15.4751 H          1 BB1          0.0000
    12 H12        2.5719   -19.6420    14.7785 H          1 BB1          0.0000
    13 H13        2.5177   -18.7362    12.6416 H          1 BB1          0.0000
    14 H14        1.5220   -16.2842    14.1935 H          1 BB1          0.0000
    15 H15        3.1813   -16.5830    13.6140 H          1 BB1          0.0000
    16 H16       -0.1897   -15.7091    12.6981 H          1 BB1          0.0000
    17 H17        0.1137   -15.6085    10.9488 H          1 BB1          0.0000
    18 H18       -1.1906   -17.6788    11.6770 H          1 BB1          0.0000
    19 H19        0.3123   -18.0379    10.7814 H          1 BB1          0.0000
    20 O1         0.0773   -15.2613    13.2069 O.2        2 BB2          0.0000
    21 C2        -0.3925   -15.7871    12.2073 C.2        2 BB2          0.0000
    22 C4        -0.2354   -15.1414    10.8922 C.ar       2 BB2          0.0000
    23 C5        -0.1788   -13.7480    10.7957 C.ar       2 BB2          0.0000
    24 C6        -0.0318   -13.1509     9.5621 C.ar       2 BB2          0.0000
    25 C7         0.0595   -13.9262     8.4186 C.ar       2 BB2          0.0000
    26 C8         0.0046   -15.3051     8.5026 C.ar       2 BB2          0.0000
    27 C9        -0.1363   -15.9203     9.7329 C.ar       2 BB2          0.0000
    28 F10       -0.1899   -17.2677     9.8148 F          2 BB2          0.0000
    29 S11        0.0396   -11.3946     9.4399 S.o2       2 BB2          0.0000
    30 O12        0.3047   -10.9615    10.7671 O.2        2 BB2          0.0000
    31 O13        0.9678   -11.1537     8.3914 O.2        2 BB2          0.0000
    32 C14       -1.6330   -10.9078     8.9338 C.3        2 BB2          0.0000
    33 C15       -2.3738   -10.3081    10.1306 C.3        2 BB2          0.0000
    34 C16       -3.8145   -10.5817    10.0032 C.1        2 BB2          0.0000
    35 C17       -4.9636   -10.7998     9.9015 C.1        2 BB2          0.0000
    36 H18       -0.2504   -13.1407    11.6858 H          2 BB2          0.0000
    37 H19        0.1738   -13.4511     7.4554 H          2 BB2          0.0000
    38 H20        0.0765   -15.9029     7.6061 H          2 BB2          0.0000
    39 H21       -1.5702   -10.1667     8.1369 H          2 BB2          0.0000
    40 H22       -2.1731   -11.7834     8.5738 H          2 BB2          0.0000
    41 H23       -1.9991   -10.7556    11.0512 H          2 BB2          0.0000
    42 H24       -2.2095    -9.2309    10.1572 H          2 BB2          0.0000
    43 H25       -5.9913   -10.9949     9.8107 H          2 BB2          0.0000
@<TRIPOS>BOND
     1      1      2 2
     2      2      3 1
     3      2     10 am
     4      3      4 1
     5      4      5 1
     6      4     11 1
     7      4     12 1
     8      5      6 1
     9      5     10 1
    10      5     13 1
    11      6      7 1
    12      6     14 1
    13      6     15 1
    14      7      8 1
    15      8      9 1
    16      8     16 1
    17      8     17 1
    18      9     10 1
    19      9     18 1
    20      9     19 1
    21     20     21 2
    22     21     22 1
    23     22     23 ar
    24     22     27 ar
    25     23     24 ar
    26     23     36 1
    27     24     25 ar
    28     24     29 1
    29     25     26 ar
    30     25     37 1
    31     26     27 ar
    32     26     38 1
    33     27     28 1
    34     29     30 2
    35     29     31 2
    36     29     32 1
    37     32     33 1
    38     32     39 1
    39     32     40 1
    40     33     34 1
    41     33     41 1
    42     33     42 1
    43     34     35 3
    44     35     43 1
    45      7     21 am
@<TRIPOS>SUBSTRUCTURE
     1 BB1           7
     2 BB2          21
@<TRIPOS>MOLECULE
EN300-109827_i001_EN300-97777_i001_17_3_1
  47   48   2   0   0
SMALL
USER_CHARGES
@<TRIPOS>ATOM
     1 O1        -1.3331   -19.6227    13.4698 O.2        1 BB1          0.0000
     2 C2        -0.2249   -19.1774    13.6933 C.2        1 BB1          0.0000
     3 O3         0.4741   -19.4639    14.8014 O.3        1 BB1          0.0000
     4 C4         1.8041   -18.8719    14.7034 C.3        1 BB1          0.0000
     5 C5         1.8205   -18.2288    13.3084 C.3        1 BB1          0.0000
     6 C6         2.1226   -16.7302    13.4006 C.3        1 BB1          0.0000
     7 N7         1.7866   -16.1020    12.1144 N.am       1 BB1          0.0000
     8 C8         0.3433   -16.1596    11.8608 C.3        1 BB1          0.0000
     9 C9        -0.1024   -17.6217    11.6995 C.3        1 BB1          0.0000
    10 N10        0.4170   -18.3614    12.8593 N.am       1 BB1          0.0000
    11 H11        1.9436   -18.1149    15.4751 H          1 BB1          0.0000
    12 H12        2.5719   -19.6420    14.7785 H          1 BB1          0.0000
    13 H13        2.5177   -18.7362    12.6416 H          1 BB1          0.0000
    14 H14        1.5220   -16.2842    14.1935 H          1 BB1          0.0000
    15 H15        3.1813   -16.5830    13.6140 H          1 BB1          0.0000
    16 H16       -0.1897   -15.7091    12.6981 H          1 BB1          0.0000
    17 H17        0.1137   -15.6085    10.9488 H          1 BB1          0.0000
    18 H18       -1.1906   -17.6788    11.6770 H          1 BB1          0.0000
    19 H19        0.3123   -18.0379    10.7814 H          1 BB1          0.0000
    20 C1        -1.5392   -10.5689    11.7089 C.3        2 BB2          0.0000
    21 C2        -1.5677   -11.2425    10.3355 C.3        2 BB2          0.0000
    22 C3        -2.9433   -11.8711    10.1040 C.3        2 BB2          0.0000
    23 C4        -1.2944   -10.1995     9.2500 C.3        2 BB2          0.0000
    24 O5        -0.5485   -12.2753    10.2818 O.3        2 BB2          0.0000
    25 C6        -0.7051   -13.3319    11.1016 C.2        2 BB2          0.0000
    26 O7        -1.5463   -13.3014    11.9779 O.2        2 BB2          0.0000
    27 N8         0.0712   -14.4232    10.9502 N.am       2 BB2          0.0000
    28 C9         1.0854   -14.4598     9.8936 C.3        2 BB2          0.0000
    29 C10        0.4242   -14.4570     8.5785 C.1        2 BB2          0.0000
    30 C11       -0.1031   -14.4548     7.5296 C.1        2 BB2          0.0000
    31 C12       -0.0992   -15.5728    11.8422 C.3        2 BB2          0.0000
    32 C13        1.0675   -15.6478    12.7932 C.2        2 BB2          0.0000
    33 O14        2.2016   -15.7569    12.3594 O.2        2 BB2          0.0000
    34 H16       -1.7339   -11.3120    12.4821 H          2 BB2          0.0000
    35 H17       -0.5592   -10.1211    11.8737 H          2 BB2          0.0000
    36 H18       -2.3044    -9.7936    11.7492 H          2 BB2          0.0000
    37 H19       -3.7084   -11.0958    10.1443 H          2 BB2          0.0000
    38 H20       -2.9635   -12.3511     9.1256 H          2 BB2          0.0000
    39 H21       -3.1380   -12.6142    10.8774 H          2 BB2          0.0000
    40 H22       -0.3143    -9.7517     9.4149 H          2 BB2          0.0000
    41 H23       -1.3146   -10.6794     8.2715 H          2 BB2          0.0000
    42 H24       -2.0595    -9.4243     9.2903 H          2 BB2          0.0000
    43 H25        1.7298   -13.5849     9.9782 H          2 BB2          0.0000
    44 H26        1.6851   -15.3641     9.9968 H          2 BB2          0.0000
    45 H27       -0.5748   -14.4528     6.5915 H          2 BB2          0.0000
    46 H28       -1.0232   -15.4590    12.4091 H          2 BB2          0.0000
    47 H29       -0.1456   -16.4875    11.2513 H          2 BB2          0.0000
@<TRIPOS>BOND
     1      1      2 2
     2      2      3 1
     3      2     10 am
     4      3      4 1
     5      4      5 1
     6      4     11 1
     7      4     12 1
     8      5      6 1
     9      5     10 1
    10      5     13 1
    11      6      7 1
    12      6     14 1
    13      6     15 1
    14      7      8 1
    15      8      9 1
    16      8     16 1
    17      8     17 1
    18      9     10 1
    19      9     18 1
    20      9     19 1
    21     20     21 1
    22     20     34 1
    23     20     35 1
    24     20     36 1
    25     21     22 1
    26     21     23 1
    27     21     24 1
    28     22     37 1
    29     22     38 1
    30     22     39 1
    31     23     40 1
    32     23     41 1
    33     23     42 1
    34     24     25 1
    35     25     26 2
    36     25     27 am
    37     27     28 1
    38     27     31 1
    39     28     29 1
    40     28     43 1
    41     28     44 1
    42     29     30 3
    43     30     45 1
    44     31     32 1
    45     31     46 1
    46     31     47 1
    47     32     33 2
    48      7     32 am
@<TRIPOS>SUBSTRUCTURE
     1 BB1           7
     2 BB2          32
@<TRIPOS>MOLECULE
EN300-109827_i001_EN300-97777_i001_17_8_1
  47   48   2   0   0
SMALL
USER_CHARGES
@<TRIPOS>ATOM
     1 O1        -1.3331   -19.6227    13.4698 O.2        1 BB1          0.0000
     2 C2        -0.2249   -19.1774    13.6933 C.2        1 BB1          0.0000
     3 O3         0.4741   -19.4639    14.8014 O.3        1 BB1          0.0000
     4 C4         1.8041   -18.8719    14.7034 C.3        1 BB1          0.0000
     5 C5         1.8205   -18.2288    13.3084 C.3        1 BB1          0.0000
     6 C6         2.1226   -16.7302    13.4006 C.3        1 BB1          0.0000
     7 N7         1.7866   -16.1020    12.1144 N.am       1 BB1          0.0000
     8 C8         0.3433   -16.1596    11.8608 C.3        1 BB1          0.0000
     9 C9        -0.1024   -17.6217    11.6995 C.3        1 BB1          0.0000
    10 N10        0.4170   -18.3614    12.8593 N.am       1 BB1          0.0000
    11 H11        1.9436   -18.1149    15.4751 H          1 BB1          0.0000
    12 H12        2.5719   -19.6420    14.7785 H          1 BB1          0.0000
    13 H13        2.5177   -18.7362    12.6416 H          1 BB1          0.0000
    14 H14        1.5220   -16.2842    14.1935 H          1 BB1          0.0000
    15 H15        3.1813   -16.5830    13.6140 H          1 BB1          0.0000
    16 H16       -0.1897   -15.7091    12.6981 H          1 BB1          0.0000
    17 H17        0.1137   -15.6085    10.9488 H          1 BB1          0.0000
    18 H18       -1.1906   -17.6788    11.6770 H          1 BB1          0.0000
    19 H19        0.3123   -18.0379    10.7814 H          1 BB1          0.0000
    20 C1        -1.8238   -10.7306     9.0157 C.3        2 BB2          0.0000
    21 C2        -1.8143   -10.8225    10.5429 C.3        2 BB2          0.0000
    22 C3        -0.6982    -9.9367    11.1002 C.3        2 BB2          0.0000
    23 C4        -3.1623   -10.3495    11.0907 C.3        2 BB2          0.0000
    24 O5        -1.5852   -12.1992    10.9435 O.3        2 BB2          0.0000
    25 C6        -0.4439   -12.7765    10.5227 C.2        2 BB2          0.0000
    26 O7         0.3377   -12.1479     9.8369 O.2        2 BB2          0.0000
    27 N8        -0.1686   -14.0514    10.8621 N.am       2 BB2          0.0000
    28 C9         1.0732   -14.6795    10.4043 C.3        2 BB2          0.0000
    29 C10        1.1107   -14.6769     8.9327 C.1        2 BB2          0.0000
    30 C11        1.1408   -14.6748     7.7592 C.1        2 BB2          0.0000
    31 C12       -1.1112   -14.8091    11.6891 C.3        2 BB2          0.0000
    32 C13       -0.3637   -15.8619    12.4662 C.2        2 BB2          0.0000
    33 O15        0.7064   -15.5921    12.9845 O.2        2 BB2          0.0000
    34 H16       -0.8635   -11.0675     8.6255 H          2 BB2          0.0000
    35 H17       -2.6190   -11.3616     8.6187 H          2 BB2          0.0000
    36 H18       -1.9957    -9.6971     8.7149 H          2 BB2          0.0000
    37 H19       -0.8702    -8.9032    10.7994 H          2 BB2          0.0000
    38 H20       -0.6914   -10.0022    12.1882 H          2 BB2          0.0000
    39 H21        0.2622   -10.2736    10.7099 H          2 BB2          0.0000
    40 H22       -3.9575   -10.9806    10.6936 H          2 BB2          0.0000
    41 H23       -3.1556   -10.4150    12.1787 H          2 BB2          0.0000
    42 H24       -3.3342    -9.3160    10.7899 H          2 BB2          0.0000
    43 H25        1.9262   -14.1218    10.7905 H          2 BB2          0.0000
    44 H26        1.1161   -15.7064    10.7669 H          2 BB2          0.0000
    45 H27        1.1676   -14.6729     6.7094 H          2 BB2          0.0000
    46 H28       -1.6115   -14.1327    12.3822 H          2 BB2          0.0000
    47 H29       -1.8526   -15.2876    11.0493 H          2 BB2          0.0000
@<TRIPOS>BOND
     1      1      2 2
     2      2      3 1
     3      2     10 am
     4      3      4 1
     5      4      5 1
     6      4     11 1
     7      4     12 1
     8      5      6 1
     9      5     10 1
    10      5     13 1
    11      6      7 1
    12      6     14 1
    13      6     15 1
    14      7      8 1
    15      8      9 1
    16      8     16 1
    17      8     17 1
    18      9     10 1
    19      9     18 1
    20      9     19 1
    21     20     21 1
    22     20     34 1
    23     20     35 1
    24     20     36 1
    25     21     22 1
    26     21     23 1
    27     21     24 1
    28     22     37 1
    29     22     38 1
    30     22     39 1
    31     23     40 1
    32     23     41 1
    33     23     42 1
    34     24     25 1
    35     25     26 2
    36     25     27 am
    37     27     28 1
    38     27     31 1
    39     28     29 1
    40     28     43 1
    41     28     44 1
    42     29     30 3
    43     30     45 1
    44     31     32 1
    45     31     46 1
    46     31     47 1
    47     32     33 2
    48      7     32 am
@<TRIPOS>SUBSTRUCTURE
     1 BB1           7
     2 BB2          32
@<TRIPOS>MOLECULE
EN300-109827_i001_EN300-306118_i001_17_13_1
  41   44   2   0   0
SMALL
USER_CHARGES
@<TRIPOS>ATOM
     1 O1        -1.3331   -19.6227    13.4698 O.2        1 BB1          0.0000
     2 C2        -0.2249   -19.1774    13.6933 C.2        1 BB1          0.0000
     3 O3         0.4741   -19.4639    14.8014 O.3        1 BB1          0.0000
     4 C4         1.8041   -18.8719    14.7034 C.3        1 BB1          0.0000
     5 C5         1.8205   -18.2288    13.3084 C.3        1 BB1          0.0000
     6 C6         2.1226   -16.7302    13.4006 C.3        1 BB1          0.0000
     7 N7         1.7866   -16.1020    12.1144 N.am       1 BB1          0.0000
     8 C8         0.3433   -16.1596    11.8608 C.3        1 BB1          0.0000
     9 C9        -0.1024   -17.6217    11.6995 C.3        1 BB1          0.0000
    10 N10        0.4170   -18.3614    12.8593 N.am       1 BB1          0.0000
    11 H11        1.9436   -18.1149    15.4751 H          1 BB1          0.0000
    12 H12        2.5719   -19.6420    14.7785 H          1 BB1          0.0000
    13 H13        2.5177   -18.7362    12.6416 H          1 BB1          0.0000
    14 H14        1.5220   -16.2842    14.1935 H          1 BB1          0.0000
    15 H15        3.1813   -16.5830    13.6140 H          1 BB1          0.0000
    16 H16       -0.1897   -15.7091    12.6981 H          1 BB1          0.0000
    17 H17        0.1137   -15.6085    10.9488 H          1 BB1          0.0000
    18 H18       -1.1906   -17.6788    11.6770 H          1 BB1          0.0000
    19 H19        0.3123   -18.0379    10.7814 H          1 BB1          0.0000
    20 O1        -0.3061   -15.6175    10.8075 O.2        2 BB2          0.0000
    21 C2        -0.2542   -14.4147    11.0220 C.2        2 BB2          0.0000
    22 C4        -0.0888   -13.4717     9.8995 C.ar       2 BB2          0.0000
    23 C5         0.7755   -13.7793     8.8460 C.ar       2 BB2          0.0000
    24 C6         0.9252   -12.8927     7.7999 C.ar       2 BB2          0.0000
    25 C7         0.2221   -11.7011     7.7926 C.ar       2 BB2          0.0000
    26 C8        -0.6359   -11.3897     8.8329 C.ar       2 BB2          0.0000
    27 C9        -0.8003   -12.2692     9.8823 C.ar       2 BB2          0.0000
    28 C10       -1.7356   -11.9285    11.0138 C.3        2 BB2          0.0000
    29 N11       -2.8881   -11.1914    10.4898 N.pl3      2 BB2          0.0000
    30 C12       -3.9824   -11.7380     9.9113 C.2        2 BB2          0.0000
    31 C13       -4.7891   -10.7036     9.5780 C.2        2 BB2          0.0000
    32 N14       -4.1572    -9.5894     9.9637 N.2        2 BB2          0.0000
    33 N15       -3.0361    -9.9129    10.5053 N.2        2 BB2          0.0000
    34 H16        1.3254   -14.7088     8.8509 H          2 BB2          0.0000
    35 H17        1.5931   -13.1291     6.9848 H          2 BB2          0.0000
    36 H18        0.3438   -11.0104     6.9712 H          2 BB2          0.0000
    37 H19       -1.1813   -10.4576     8.8207 H          2 BB2          0.0000
    38 H20       -2.0780   -12.8466    11.4912 H          2 BB2          0.0000
    39 H21       -1.2121   -11.3124    11.7448 H          2 BB2          0.0000
    40 H22       -4.1735   -12.7883     9.7481 H          2 BB2          0.0000
    41 H23       -5.7532   -10.7654     9.0952 H          2 BB2          0.0000
@<TRIPOS>BOND
     1      1      2 2
     2      2      3 1
     3      2     10 am
     4      3      4 1
     5      4      5 1
     6      4     11 1
     7      4     12 1
     8      5      6 1
     9      5     10 1
    10      5     13 1
    11      6      7 1
    12      6     14 1
    13      6     15 1
    14      7      8 1
    15      8      9 1
    16      8     16 1
    17      8     17 1
    18      9     10 1
    19      9     18 1
    20      9     19 1
    21     20     21 2
    22     21     22 1
    23     22     23 ar
    24     22     27 ar
    25     23     24 ar
    26     23     34 1
    27     24     25 ar
    28     24     35 1
    29     25     26 ar
    30     25     36 1
    31     26     27 ar
    32     26     37 1
    33     27     28 1
    34     28     29 1
    35     28     38 1
    36     28     39 1
    37     29     30 1
    38     29     33 1
    39     30     31 2
    40     30     40 1
    41     31     32 1
    42     31     41 1
    43     32     33 2
    44      7     21 am
@<TRIPOS>SUBSTRUCTURE
     1 BB1           7
     2 BB2          21
@<TRIPOS>MOLECULE
EN300-109827_i001_EN300-344045_i001_17_2_1
  48   51   2   0   0
SMALL
USER_CHARGES
@<TRIPOS>ATOM
     1 O1        -1.3331   -19.6227    13.4698 O.2        1 BB1          0.0000
     2 C2        -0.2249   -19.1774    13.6933 C.2        1 BB1          0.0000
     3 O3         0.4741   -19.4639    14.8014 O.3        1 BB1          0.0000
     4 C4         1.8041   -18.8719    14.7034 C.3        1 BB1          0.0000
     5 C5         1.8205   -18.2288    13.3084 C.3        1 BB1          0.0000
     6 C6         2.1226   -16.7302    13.4006 C.3        1 BB1          0.0000
     7 N7         1.7866   -16.1020    12.1144 N.am       1 BB1          0.0000
     8 C8         0.3433   -16.1596    11.8608 C.3        1 BB1          0.0000
     9 C9        -0.1024   -17.6217    11.6995 C.3        1 BB1          0.0000
    10 N10        0.4170   -18.3614    12.8593 N.am       1 BB1          0.0000
    11 H11        1.9436   -18.1149    15.4751 H          1 BB1          0.0000
    12 H12        2.5719   -19.6420    14.7785 H          1 BB1          0.0000
    13 H13        2.5177   -18.7362    12.6416 H          1 BB1          0.0000
    14 H14        1.5220   -16.2842    14.1935 H          1 BB1          0.0000
    15 H15        3.1813   -16.5830    13.6140 H          1 BB1          0.0000
    16 H16       -0.1897   -15.7091    12.6981 H          1 BB1          0.0000
    17 H17        0.1137   -15.6085    10.9488 H          1 BB1          0.0000
    18 H18       -1.1906   -17.6788    11.6770 H          1 BB1          0.0000
    19 H19        0.3123   -18.0379    10.7814 H          1 BB1          0.0000
    20 O1         0.5661   -15.7707    10.9576 O.2        2 BB2          0.0000
    21 C2         0.2489   -14.5943    11.0019 C.2        2 BB2          0.0000
    22 C4         0.9922   -13.5817    10.1694 C.3        2 BB2          0.0000
    23 C5         0.0568   -13.0163     9.0988 C.3        2 BB2          0.0000
    24 C6         0.8768   -12.3025     8.0042 C.3        2 BB2          0.0000
    25 C7         1.0511   -13.3749     6.9002 C.3        2 BB2          0.0000
    26 C8        -0.3163   -14.1023     6.9114 C.3        2 BB2          0.0000
    27 C9        -0.7017   -14.1605     8.4040 C.3        2 BB2          0.0000
    28 C10       -0.9194   -12.0528     9.7233 C.ar       2 BB2          0.0000
    29 C11       -0.7018   -11.5818    11.0046 C.ar       2 BB2          0.0000
    30 C12       -1.5972   -10.6981    11.5774 C.ar       2 BB2          0.0000
    31 C13       -2.7099   -10.2850    10.8687 C.ar       2 BB2          0.0000
    32 C14       -2.9270   -10.7553     9.5871 C.ar       2 BB2          0.0000
    33 C15       -2.0292   -11.6357     9.0126 C.ar       2 BB2          0.0000
    34 H16        1.3431   -12.7722    10.8096 H          2 BB2          0.0000
    35 H17        1.8455   -14.0614     9.6898 H          2 BB2          0.0000
    36 H18        0.3298   -11.4425     7.6177 H          2 BB2          0.0000
    37 H19        1.8472   -11.9949     8.3939 H          2 BB2          0.0000
    38 H20        1.2319   -12.9071     5.9324 H          2 BB2          0.0000
    39 H21        1.8570   -14.0634     7.1543 H          2 BB2          0.0000
    40 H22       -1.0559   -13.5330     6.3483 H          2 BB2          0.0000
    41 H23       -0.2166   -15.1082     6.5036 H          2 BB2          0.0000
    42 H24       -0.4034   -15.1187     8.8294 H          2 BB2          0.0000
    43 H25       -1.7765   -14.0194     8.5179 H          2 BB2          0.0000
    44 H26        0.1674   -11.9045    11.5583 H          2 BB2          0.0000
    45 H27       -1.4278   -10.3307    12.5787 H          2 BB2          0.0000
    46 H28       -3.4099    -9.5951    11.3165 H          2 BB2          0.0000
    47 H29       -3.7964   -10.4328     9.0334 H          2 BB2          0.0000
    48 H30       -2.1987   -12.0032     8.0113 H          2 BB2          0.0000
@<TRIPOS>BOND
     1      1      2 2
     2      2      3 1
     3      2     10 am
     4      3      4 1
     5      4      5 1
     6      4     11 1
     7      4     12 1
     8      5      6 1
     9      5     10 1
    10      5     13 1
    11      6      7 1
    12      6     14 1
    13      6     15 1
    14      7      8 1
    15      8      9 1
    16      8     16 1
    17      8     17 1
    18      9     10 1
    19      9     18 1
    20      9     19 1
    21     20     21 2
    22     21     22 1
    23     22     23 1
    24     22     34 1
    25     22     35 1
    26     23     24 1
    27     23     27 1
    28     23     28 1
    29     24     25 1
    30     24     36 1
    31     24     37 1
    32     25     26 1
    33     25     38 1
    34     25     39 1
    35     26     27 1
    36     26     40 1
    37     26     41 1
    38     27     42 1
    39     27     43 1
    40     28     29 ar
    41     28     33 ar
    42     29     30 ar
    43     29     44 1
    44     30     31 ar
    45     30     45 1
    46     31     32 ar
    47     31     46 1
    48     32     33 ar
    49     32     47 1
    50     33     48 1
    51      7     21 am
@<TRIPOS>SUBSTRUCTURE
     1 BB1           7
     2 BB2          21
@<TRIPOS>MOLECULE
EN300-109827_i001_EN300-1198129_i001_2_19_1
  43   45   2   0   0
SMALL
USER_CHARGES
@<TRIPOS>ATOM
     1 O1        -0.9579   -18.8444    14.5430 O.2        1 BB1          0.0000
     2 C2         0.1226   -18.3213    14.3545 C.2        1 BB1          0.0000
     3 O3         1.0984   -18.2952    15.2740 O.3        1 BB1          0.0000
     4 C4         2.2989   -17.7046    14.6917 C.3        1 BB1          0.0000
     5 C5         1.9070   -17.4353    13.2310 C.3        1 BB1          0.0000
     6 C6         2.0755   -15.9531    12.8839 C.3        1 BB1          0.0000
     7 N7         1.3723   -15.6821    11.6214 N.am       1 BB1          0.0000
     8 C8        -0.0762   -15.8488    11.7787 C.3        1 BB1          0.0000
     9 C9        -0.4038   -17.3178    12.0904 C.3        1 BB1          0.0000
    10 N10        0.4558   -17.7226    13.2126 N.am       1 BB1          0.0000
    11 H11        2.5508   -16.7727    15.1980 H          1 BB1          0.0000
    12 H12        3.1324   -18.4052    14.7411 H          1 BB1          0.0000
    13 H13        2.4633   -18.0720    12.5431 H          1 BB1          0.0000
    14 H14        1.6494   -15.3407    13.6787 H          1 BB1          0.0000
    15 H15        3.1347   -15.7225    12.7694 H          1 BB1          0.0000
    16 H16       -0.4266   -15.2186    12.5960 H          1 BB1          0.0000
    17 H17       -0.5767   -15.5543    10.8563 H          1 BB1          0.0000
    18 H18       -1.4528   -17.4140    12.3699 H          1 BB1          0.0000
    19 H19       -0.1909   -17.9392    11.2205 H          1 BB1          0.0000
    20 C2        -0.0992   -16.0437    11.1864 C.2        2 BB2          0.0000
    21 O3         0.1100   -15.6461    12.3241 O.2        2 BB2          0.0000
    22 C4        -0.0979   -15.0920    10.0614 C.ar       2 BB2          0.0000
    23 C5        -0.0950   -13.7157    10.3052 C.ar       2 BB2          0.0000
    24 C6        -0.0937   -12.8313     9.2479 C.ar       2 BB2          0.0000
    25 C7        -0.0957   -13.3016     7.9456 C.ar       2 BB2          0.0000
    26 C8        -0.0987   -14.6609     7.6932 C.ar       2 BB2          0.0000
    27 C9        -0.0936   -15.5616     8.7423 C.ar       2 BB2          0.0000
    28 F10       -0.0964   -16.8898     8.4955 F          2 BB2          0.0000
    29 S11       -0.0901   -11.0963     9.5546 S.o2       2 BB2          0.0000
    30 O12        1.2590   -10.8027     9.8907 O.2        2 BB2          0.0000
    31 O13       -0.6960   -10.5347     8.3985 O.2        2 BB2          0.0000
    32 C14       -1.1656   -10.8901    11.0008 C.3        2 BB2          0.0000
    33 C15       -2.3179    -9.9470    10.6491 C.3        2 BB2          0.0000
    34 C16       -3.4317   -10.7237    10.0809 C.1        2 BB2          0.0000
    35 C17       -4.3201   -11.3431     9.6277 C.1        2 BB2          0.0000
    36 H18       -0.0940   -13.3459    11.3199 H          2 BB2          0.0000
    37 H19       -0.0955   -12.6026     7.1222 H          2 BB2          0.0000
    38 H20       -0.1002   -15.0199     6.6747 H          2 BB2          0.0000
    39 H21       -1.5669   -11.8595    11.2963 H          2 BB2          0.0000
    40 H22       -0.5898   -10.4688    11.8248 H          2 BB2          0.0000
    41 H23       -2.6551    -9.4338    11.5497 H          2 BB2          0.0000
    42 H24       -1.9769    -9.2132     9.9188 H          2 BB2          0.0000
    43 H25       -5.1147   -11.8971     9.2224 H          2 BB2          0.0000
@<TRIPOS>BOND
     1      1      2 2
     2      2      3 1
     3      2     10 am
     4      3      4 1
     5      4      5 1
     6      4     11 1
     7      4     12 1
     8      5      6 1
     9      5     10 1
    10      5     13 1
    11      6      7 1
    12      6     14 1
    13      6     15 1
    14      7      8 1
    15      8      9 1
    16      8     16 1
    17      8     17 1
    18      9     10 1
    19      9     18 1
    20      9     19 1
    21     20     21 2
    22     20     22 1
    23     22     23 ar
    24     22     27 ar
    25     23     24 ar
    26     23     36 1
    27     24     25 ar
    28     24     29 1
    29     25     26 ar
    30     25     37 1
    31     26     27 ar
    32     26     38 1
    33     27     28 1
    34     29     30 2
    35     29     31 2
    36     29     32 1
    37     32     33 1
    38     32     39 1
    39     32     40 1
    40     33     34 1
    41     33     41 1
    42     33     42 1
    43     34     35 3
    44     35     43 1
    45      7     20 am
@<TRIPOS>SUBSTRUCTURE
     1 BB1           7
     2 BB2          20
@<TRIPOS>MOLECULE
EN300-109827_i001_EN300-4287209_i001_2_3_1
  34   36   2   0   0
SMALL
USER_CHARGES
@<TRIPOS>ATOM
     1 O1        -0.9579   -18.8444    14.5430 O.2        1 BB1          0.0000
     2 C2         0.1226   -18.3213    14.3545 C.2        1 BB1          0.0000
     3 O3         1.0984   -18.2952    15.2740 O.3        1 BB1          0.0000
     4 C4         2.2989   -17.7046    14.6917 C.3        1 BB1          0.0000
     5 C5         1.9070   -17.4353    13.2310 C.3        1 BB1          0.0000
     6 C6         2.0755   -15.9531    12.8839 C.3        1 BB1          0.0000
     7 N7         1.3723   -15.6821    11.6214 N.am       1 BB1          0.0000
     8 C8        -0.0762   -15.8488    11.7787 C.3        1 BB1          0.0000
     9 C9        -0.4038   -17.3178    12.0904 C.3        1 BB1          0.0000
    10 N10        0.4558   -17.7226    13.2126 N.am       1 BB1          0.0000
    11 H11        2.5508   -16.7727    15.1980 H          1 BB1          0.0000
    12 H12        3.1324   -18.4052    14.7411 H          1 BB1          0.0000
    13 H13        2.4633   -18.0720    12.5431 H          1 BB1          0.0000
    14 H14        1.6494   -15.3407    13.6787 H          1 BB1          0.0000
    15 H15        3.1347   -15.7225    12.7694 H          1 BB1          0.0000
    16 H16       -0.4266   -15.2186    12.5960 H          1 BB1          0.0000
    17 H17       -0.5767   -15.5543    10.8563 H          1 BB1          0.0000
    18 H18       -1.4528   -17.4140    12.3699 H          1 BB1          0.0000
    19 H19       -0.1909   -17.9392    11.2205 H          1 BB1          0.0000
    20 O1         0.9022   -15.2848    11.2052 O.2        2 BB2          0.0000
    21 C2        -0.0043   -14.5201    11.5040 C.2        2 BB2          0.0000
    22 C4        -0.4017   -13.4480    10.5724 C.ar       2 BB2          0.0000
    23 C5        -1.5033   -12.6425    10.8617 C.ar       2 BB2          0.0000
    24 C6        -1.8709   -11.6325     9.9767 C.ar       2 BB2          0.0000
    25 C7        -3.0001   -10.8010    10.2667 C.1        2 BB2          0.0000
    26 C8        -3.9259   -10.1193    10.5044 C.1        2 BB2          0.0000
    27 C9        -1.1364   -11.4311     8.8058 C.ar       2 BB2          0.0000
    28 C10       -0.0472   -12.2308     8.5230 C.ar       2 BB2          0.0000
    29 C11        0.3287   -13.2319     9.3982 C.ar       2 BB2          0.0000
    30 Cl12       1.6998   -14.2324     9.0338 Cl         2 BB2          0.0000
    31 H13       -2.0687   -12.8018    11.7680 H          2 BB2          0.0000
    32 H14       -4.7538    -9.5095    10.7170 H          2 BB2          0.0000
    33 H15       -1.4217   -10.6476     8.1195 H          2 BB2          0.0000
    34 H16        0.5164   -12.0702     7.6158 H          2 BB2          0.0000
@<TRIPOS>BOND
     1      1      2 2
     2      2      3 1
     3      2     10 am
     4      3      4 1
     5      4      5 1
     6      4     11 1
     7      4     12 1
     8      5      6 1
     9      5     10 1
    10      5     13 1
    11      6      7 1
    12      6     14 1
    13      6     15 1
    14      7      8 1
    15      8      9 1
    16      8     16 1
    17      8     17 1
    18      9     10 1
    19      9     18 1
    20      9     19 1
    21     20     21 2
    22     21     22 1
    23     22     23 ar
    24     22     29 ar
    25     23     24 ar
    26     23     31 1
    27     24     25 1
    28     24     27 ar
    29     25     26 3
    30     26     32 1
    31     27     28 ar
    32     27     33 1
    33     28     29 ar
    34     28     34 1
    35     29     30 1
    36      7     21 am
@<TRIPOS>SUBSTRUCTURE
     1 BB1           7
     2 BB2          21
@<TRIPOS>MOLECULE
EN300-109827_i001_EN300-97777_i001_2_8_1
  47   48   2   0   0
SMALL
USER_CHARGES
@<TRIPOS>ATOM
     1 O1        -0.9579   -18.8444    14.5430 O.2        1 BB1          0.0000
     2 C2         0.1226   -18.3213    14.3545 C.2        1 BB1          0.0000
     3 O3         1.0984   -18.2952    15.2740 O.3        1 BB1          0.0000
     4 C4         2.2989   -17.7046    14.6917 C.3        1 BB1          0.0000
     5 C5         1.9070   -17.4353    13.2310 C.3        1 BB1          0.0000
     6 C6         2.0755   -15.9531    12.8839 C.3        1 BB1          0.0000
     7 N7         1.3723   -15.6821    11.6214 N.am       1 BB1          0.0000
     8 C8        -0.0762   -15.8488    11.7787 C.3        1 BB1          0.0000
     9 C9        -0.4038   -17.3178    12.0904 C.3        1 BB1          0.0000
    10 N10        0.4558   -17.7226    13.2126 N.am       1 BB1          0.0000
    11 H11        2.5508   -16.7727    15.1980 H          1 BB1          0.0000
    12 H12        3.1324   -18.4052    14.7411 H          1 BB1          0.0000
    13 H13        2.4633   -18.0720    12.5431 H          1 BB1          0.0000
    14 H14        1.6494   -15.3407    13.6787 H          1 BB1          0.0000
    15 H15        3.1347   -15.7225    12.7694 H          1 BB1          0.0000
    16 H16       -0.4266   -15.2186    12.5960 H          1 BB1          0.0000
    17 H17       -0.5767   -15.5543    10.8563 H          1 BB1          0.0000
    18 H18       -1.4528   -17.4140    12.3699 H          1 BB1          0.0000
    19 H19       -0.1909   -17.9392    11.2205 H          1 BB1          0.0000
    20 C1        -1.8238   -10.7306     9.0157 C.3        2 BB2          0.0000
    21 C2        -1.8143   -10.8225    10.5429 C.3        2 BB2          0.0000
    22 C3        -0.6982    -9.9367    11.1002 C.3        2 BB2          0.0000
    23 C4        -3.1623   -10.3495    11.0907 C.3        2 BB2          0.0000
    24 O5        -1.5852   -12.1992    10.9435 O.3        2 BB2          0.0000
    25 C6        -0.4439   -12.7765    10.5227 C.2        2 BB2          0.0000
    26 O7         0.3377   -12.1479     9.8369 O.2        2 BB2          0.0000
    27 N8        -0.1686   -14.0514    10.8621 N.am       2 BB2          0.0000
    28 C9         1.0732   -14.6795    10.4043 C.3        2 BB2          0.0000
    29 C10        1.1107   -14.6769     8.9327 C.1        2 BB2          0.0000
    30 C11        1.1408   -14.6748     7.7592 C.1        2 BB2          0.0000
    31 C12       -1.1112   -14.8091    11.6891 C.3        2 BB2          0.0000
    32 C13       -0.3637   -15.8619    12.4662 C.2        2 BB2          0.0000
    33 O15        0.7064   -15.5921    12.9845 O.2        2 BB2          0.0000
    34 H16       -0.8635   -11.0675     8.6255 H          2 BB2          0.0000
    35 H17       -2.6190   -11.3616     8.6187 H          2 BB2          0.0000
    36 H18       -1.9957    -9.6971     8.7149 H          2 BB2          0.0000
    37 H19       -0.8702    -8.9032    10.7994 H          2 BB2          0.0000
    38 H20       -0.6914   -10.0022    12.1882 H          2 BB2          0.0000
    39 H21        0.2622   -10.2736    10.7099 H          2 BB2          0.0000
    40 H22       -3.9575   -10.9806    10.6936 H          2 BB2          0.0000
    41 H23       -3.1556   -10.4150    12.1787 H          2 BB2          0.0000
    42 H24       -3.3342    -9.3160    10.7899 H          2 BB2          0.0000
    43 H25        1.9262   -14.1218    10.7905 H          2 BB2          0.0000
    44 H26        1.1161   -15.7064    10.7669 H          2 BB2          0.0000
    45 H27        1.1676   -14.6729     6.7094 H          2 BB2          0.0000
    46 H28       -1.6115   -14.1327    12.3822 H          2 BB2          0.0000
    47 H29       -1.8526   -15.2876    11.0493 H          2 BB2          0.0000
@<TRIPOS>BOND
     1      1      2 2
     2      2      3 1
     3      2     10 am
     4      3      4 1
     5      4      5 1
     6      4     11 1
     7      4     12 1
     8      5      6 1
     9      5     10 1
    10      5     13 1
    11      6      7 1
    12      6     14 1
    13      6     15 1
    14      7      8 1
    15      8      9 1
    16      8     16 1
    17      8     17 1
    18      9     10 1
    19      9     18 1
    20      9     19 1
    21     20     21 1
    22     20     34 1
    23     20     35 1
    24     20     36 1
    25     21     22 1
    26     21     23 1
    27     21     24 1
    28     22     37 1
    29     22     38 1
    30     22     39 1
    31     23     40 1
    32     23     41 1
    33     23     42 1
    34     24     25 1
    35     25     26 2
    36     25     27 am
    37     27     28 1
    38     27     31 1
    39     28     29 1
    40     28     43 1
    41     28     44 1
    42     29     30 3
    43     30     45 1
    44     31     32 1
    45     31     46 1
    46     31     47 1
    47     32     33 2
    48      7     32 am
@<TRIPOS>SUBSTRUCTURE
     1 BB1           7
     2 BB2          32
@<TRIPOS>MOLECULE
EN300-109827_i001_EN300-222254_i002_2_7_1
  42   45   2   0   0
SMALL
USER_CHARGES
@<TRIPOS>ATOM
     1 O1        -0.9579   -18.8444    14.5430 O.2        1 BB1          0.0000
     2 C2         0.1226   -18.3213    14.3545 C.2        1 BB1          0.0000
     3 O3         1.0984   -18.2952    15.2740 O.3        1 BB1          0.0000
     4 C4         2.2989   -17.7046    14.6917 C.3        1 BB1          0.0000
     5 C5         1.9070   -17.4353    13.2310 C.3        1 BB1          0.0000
     6 C6         2.0755   -15.9531    12.8839 C.3        1 BB1          0.0000
     7 N7         1.3723   -15.6821    11.6214 N.am       1 BB1          0.0000
     8 C8        -0.0762   -15.8488    11.7787 C.3        1 BB1          0.0000
     9 C9        -0.4038   -17.3178    12.0904 C.3        1 BB1          0.0000
    10 N10        0.4558   -17.7226    13.2126 N.am       1 BB1          0.0000
    11 H11        2.5508   -16.7727    15.1980 H          1 BB1          0.0000
    12 H12        3.1324   -18.4052    14.7411 H          1 BB1          0.0000
    13 H13        2.4633   -18.0720    12.5431 H          1 BB1          0.0000
    14 H14        1.6494   -15.3407    13.6787 H          1 BB1          0.0000
    15 H15        3.1347   -15.7225    12.7694 H          1 BB1          0.0000
    16 H16       -0.4266   -15.2186    12.5960 H          1 BB1          0.0000
    17 H17       -0.5767   -15.5543    10.8563 H          1 BB1          0.0000
    18 H18       -1.4528   -17.4140    12.3699 H          1 BB1          0.0000
    19 H19       -0.1909   -17.9392    11.2205 H          1 BB1          0.0000
    20 O1         1.0761   -15.2604    11.4874 O.2        2 BB2          0.0000
    21 C2         0.0691   -14.5794    11.3943 C.2        2 BB2          0.0000
    22 C4        -0.3286   -14.0010    10.0609 C.3        2 BB2          0.0000
    23 C5         0.7881   -14.0614     9.0053 C.3        2 BB2          0.0000
    24 C6         0.3404   -12.6575     8.5654 C.3        2 BB2          0.0000
    25 C7        -0.2035   -12.4698     9.9915 C.3        2 BB2          0.0000
    26 C8        -1.5280   -11.7529    10.0428 C.ar       2 BB2          0.0000
    27 C9        -2.6243   -12.2791     9.3866 C.ar       2 BB2          0.0000
    28 C10       -3.8397   -11.6218     9.4328 C.ar       2 BB2          0.0000
    29 C11       -3.9599   -10.4369    10.1366 C.ar       2 BB2          0.0000
    30 Cl12      -5.4867    -9.6127    10.1944 Cl         2 BB2          0.0000
    31 C13       -2.8635    -9.9090    10.7946 C.ar       2 BB2          0.0000
    32 C14       -1.6479   -10.5698    10.7526 C.ar       2 BB2          0.0000
    33 F15       -0.5765   -10.0555    11.3951 F          2 BB2          0.0000
    34 H16       -1.2870   -14.3786     9.7046 H          2 BB2          0.0000
    35 H17        1.7910   -14.0862     9.4316 H          2 BB2          0.0000
    36 H18        0.6306   -14.8277     8.2463 H          2 BB2          0.0000
    37 H19        1.1683   -11.9913     8.3226 H          2 BB2          0.0000
    38 H20       -0.4354   -12.6666     7.7998 H          2 BB2          0.0000
    39 H21        0.5283   -12.0595    10.6874 H          2 BB2          0.0000
    40 H22       -2.5316   -13.2041     8.8369 H          2 BB2          0.0000
    41 H23       -4.6958   -12.0336     8.9190 H          2 BB2          0.0000
    42 H24       -2.9569    -8.9840    11.3440 H          2 BB2          0.0000
@<TRIPOS>BOND
     1      1      2 2
     2      2      3 1
     3      2     10 am
     4      3      4 1
     5      4      5 1
     6      4     11 1
     7      4     12 1
     8      5      6 1
     9      5     10 1
    10      5     13 1
    11      6      7 1
    12      6     14 1
    13      6     15 1
    14      7      8 1
    15      8      9 1
    16      8     16 1
    17      8     17 1
    18      9     10 1
    19      9     18 1
    20      9     19 1
    21     20     21 2
    22     21     22 1
    23     22     23 1
    24     22     25 1
    25     22     34 1
    26     23     24 1
    27     23     35 1
    28     23     36 1
    29     24     25 1
    30     24     37 1
    31     24     38 1
    32     25     26 1
    33     25     39 1
    34     26     27 ar
    35     26     32 ar
    36     27     28 ar
    37     27     40 1
    38     28     29 ar
    39     28     41 1
    40     29     30 1
    41     29     31 ar
    42     31     32 ar
    43     31     42 1
    44     32     33 1
    45      7     21 am
@<TRIPOS>SUBSTRUCTURE
     1 BB1           7
     2 BB2          21
@<TRIPOS>MOLECULE
EN300-109827_i001_EN300-306118_i001_2_10_1
  41   44   2   0   0
SMALL
USER_CHARGES
@<TRIPOS>ATOM
     1 O1        -0.9579   -18.8444    14.5430 O.2        1 BB1          0.0000
     2 C2         0.1226   -18.3213    14.3545 C.2        1 BB1          0.0000
     3 O3         1.0984   -18.2952    15.2740 O.3        1 BB1          0.0000
     4 C4         2.2989   -17.7046    14.6917 C.3        1 BB1          0.0000
     5 C5         1.9070   -17.4353    13.2310 C.3        1 BB1          0.0000
     6 C6         2.0755   -15.9531    12.8839 C.3        1 BB1          0.0000
     7 N7         1.3723   -15.6821    11.6214 N.am       1 BB1          0.0000
     8 C8        -0.0762   -15.8488    11.7787 C.3        1 BB1          0.0000
     9 C9        -0.4038   -17.3178    12.0904 C.3        1 BB1          0.0000
    10 N10        0.4558   -17.7226    13.2126 N.am       1 BB1          0.0000
    11 H11        2.5508   -16.7727    15.1980 H          1 BB1          0.0000
    12 H12        3.1324   -18.4052    14.7411 H          1 BB1          0.0000
    13 H13        2.4633   -18.0720    12.5431 H          1 BB1          0.0000
    14 H14        1.6494   -15.3407    13.6787 H          1 BB1          0.0000
    15 H15        3.1347   -15.7225    12.7694 H          1 BB1          0.0000
    16 H16       -0.4266   -15.2186    12.5960 H          1 BB1          0.0000
    17 H17       -0.5767   -15.5543    10.8563 H          1 BB1          0.0000
    18 H18       -1.4528   -17.4140    12.3699 H          1 BB1          0.0000
    19 H19       -0.1909   -17.9392    11.2205 H          1 BB1          0.0000
    20 C2         0.1195   -14.4038    10.7566 C.2        2 BB2          0.0000
    21 O3         0.6856   -15.3919    11.2023 O.2        2 BB2          0.0000
    22 C4         0.4114   -13.9416     9.3863 C.ar       2 BB2          0.0000
    23 C5         0.5717   -14.8674     8.3525 C.ar       2 BB2          0.0000
    24 C6         0.8445   -14.4280     7.0737 C.ar       2 BB2          0.0000
    25 C7         0.9599   -13.0739     6.8139 C.ar       2 BB2          0.0000
    26 C8         0.8024   -12.1509     7.8331 C.ar       2 BB2          0.0000
    27 C9         0.5231   -12.5754     9.1151 C.ar       2 BB2          0.0000
    28 C10        0.3514   -11.5687    10.2234 C.3        2 BB2          0.0000
    29 N11       -1.0436   -11.1231    10.2665 N.pl3      2 BB2          0.0000
    30 C12       -1.4690    -9.8410    10.1885 C.2        2 BB2          0.0000
    31 C13       -2.8194    -9.8863    10.2682 C.2        2 BB2          0.0000
    32 N14       -3.1497   -11.1769    10.3896 N.2        2 BB2          0.0000
    33 N15       -2.0753   -11.8843    10.3797 N.2        2 BB2          0.0000
    34 H16        0.4826   -15.9247     8.5541 H          2 BB2          0.0000
    35 H17        0.9688   -15.1425     6.2735 H          2 BB2          0.0000
    36 H18        1.1744   -12.7356     5.8108 H          2 BB2          0.0000
    37 H19        0.8941   -11.0955     7.6231 H          2 BB2          0.0000
    38 H20        0.6156   -12.0283    11.1758 H          2 BB2          0.0000
    39 H21        1.0008   -10.7127    10.0405 H          2 BB2          0.0000
    40 H22       -0.8546    -8.9590    10.0839 H          2 BB2          0.0000
    41 H23       -3.4970    -9.0458    10.2398 H          2 BB2          0.0000
@<TRIPOS>BOND
     1      1      2 2
     2      2      3 1
     3      2     10 am
     4      3      4 1
     5      4      5 1
     6      4     11 1
     7      4     12 1
     8      5      6 1
     9      5     10 1
    10      5     13 1
    11      6      7 1
    12      6     14 1
    13      6     15 1
    14      7      8 1
    15      8      9 1
    16      8     16 1
    17      8     17 1
    18      9     10 1
    19      9     18 1
    20      9     19 1
    21     20     21 2
    22     20     22 1
    23     22     23 ar
    24     22     27 ar
    25     23     24 ar
    26     23     34 1
    27     24     25 ar
    28     24     35 1
    29     25     26 ar
    30     25     36 1
    31     26     27 ar
    32     26     37 1
    33     27     28 1
    34     28     29 1
    35     28     38 1
    36     28     39 1
    37     29     30 1
    38     29     33 1
    39     30     31 2
    40     30     40 1
    41     31     32 1
    42     31     41 1
    43     32     33 2
    44      7     20 am
@<TRIPOS>SUBSTRUCTURE
     1 BB1           7
     2 BB2          20
@<TRIPOS>MOLECULE
EN300-109827_i001_EN300-306118_i001_2_13_1
  41   44   2   0   0
SMALL
USER_CHARGES
@<TRIPOS>ATOM
     1 O1        -0.9579   -18.8444    14.5430 O.2        1 BB1          0.0000
     2 C2         0.1226   -18.3213    14.3545 C.2        1 BB1          0.0000
     3 O3         1.0984   -18.2952    15.2740 O.3        1 BB1          0.0000
     4 C4         2.2989   -17.7046    14.6917 C.3        1 BB1          0.0000
     5 C5         1.9070   -17.4353    13.2310 C.3        1 BB1          0.0000
     6 C6         2.0755   -15.9531    12.8839 C.3        1 BB1          0.0000
     7 N7         1.3723   -15.6821    11.6214 N.am       1 BB1          0.0000
     8 C8        -0.0762   -15.8488    11.7787 C.3        1 BB1          0.0000
     9 C9        -0.4038   -17.3178    12.0904 C.3        1 BB1          0.0000
    10 N10        0.4558   -17.7226    13.2126 N.am       1 BB1          0.0000
    11 H11        2.5508   -16.7727    15.1980 H          1 BB1          0.0000
    12 H12        3.1324   -18.4052    14.7411 H          1 BB1          0.0000
    13 H13        2.4633   -18.0720    12.5431 H          1 BB1          0.0000
    14 H14        1.6494   -15.3407    13.6787 H          1 BB1          0.0000
    15 H15        3.1347   -15.7225    12.7694 H          1 BB1          0.0000
    16 H16       -0.4266   -15.2186    12.5960 H          1 BB1          0.0000
    17 H17       -0.5767   -15.5543    10.8563 H          1 BB1          0.0000
    18 H18       -1.4528   -17.4140    12.3699 H          1 BB1          0.0000
    19 H19       -0.1909   -17.9392    11.2205 H          1 BB1          0.0000
    20 O1        -0.3061   -15.6175    10.8075 O.2        2 BB2          0.0000
    21 C2        -0.2542   -14.4147    11.0220 C.2        2 BB2          0.0000
    22 C4        -0.0888   -13.4717     9.8995 C.ar       2 BB2          0.0000
    23 C5         0.7755   -13.7793     8.8460 C.ar       2 BB2          0.0000
    24 C6         0.9252   -12.8927     7.7999 C.ar       2 BB2          0.0000
    25 C7         0.2221   -11.7011     7.7926 C.ar       2 BB2          0.0000
    26 C8        -0.6359   -11.3897     8.8329 C.ar       2 BB2          0.0000
    27 C9        -0.8003   -12.2692     9.8823 C.ar       2 BB2          0.0000
    28 C10       -1.7356   -11.9285    11.0138 C.3        2 BB2          0.0000
    29 N11       -2.8881   -11.1914    10.4898 N.pl3      2 BB2          0.0000
    30 C12       -3.9824   -11.7380     9.9113 C.2        2 BB2          0.0000
    31 C13       -4.7891   -10.7036     9.5780 C.2        2 BB2          0.0000
    32 N14       -4.1572    -9.5894     9.9637 N.2        2 BB2          0.0000
    33 N15       -3.0361    -9.9129    10.5053 N.2        2 BB2          0.0000
    34 H16        1.3254   -14.7088     8.8509 H          2 BB2          0.0000
    35 H17        1.5931   -13.1291     6.9848 H          2 BB2          0.0000
    36 H18        0.3438   -11.0104     6.9712 H          2 BB2          0.0000
    37 H19       -1.1813   -10.4576     8.8207 H          2 BB2          0.0000
    38 H20       -2.0780   -12.8466    11.4912 H          2 BB2          0.0000
    39 H21       -1.2121   -11.3124    11.7448 H          2 BB2          0.0000
    40 H22       -4.1735   -12.7883     9.7481 H          2 BB2          0.0000
    41 H23       -5.7532   -10.7654     9.0952 H          2 BB2          0.0000
@<TRIPOS>BOND
     1      1      2 2
     2      2      3 1
     3      2     10 am
     4      3      4 1
     5      4      5 1
     6      4     11 1
     7      4     12 1
     8      5      6 1
     9      5     10 1
    10      5     13 1
    11      6      7 1
    12      6     14 1
    13      6     15 1
    14      7      8 1
    15      8      9 1
    16      8     16 1
    17      8     17 1
    18      9     10 1
    19      9     18 1
    20      9     19 1
    21     20     21 2
    22     21     22 1
    23     22     23 ar
    24     22     27 ar
    25     23     24 ar
    26     23     34 1
    27     24     25 ar
    28     24     35 1
    29     25     26 ar
    30     25     36 1
    31     26     27 ar
    32     26     37 1
    33     27     28 1
    34     28     29 1
    35     28     38 1
    36     28     39 1
    37     29     30 1
    38     29     33 1
    39     30     31 2
    40     30     40 1
    41     31     32 1
    42     31     41 1
    43     32     33 2
    44      7     21 am
@<TRIPOS>SUBSTRUCTURE
     1 BB1           7
     2 BB2          21
@<TRIPOS>MOLECULE
EN300-109827_i001_EN300-306118_i001_2_4_1
  41   44   2   0   0
SMALL
USER_CHARGES
@<TRIPOS>ATOM
     1 O1        -0.9579   -18.8444    14.5430 O.2        1 BB1          0.0000
     2 C2         0.1226   -18.3213    14.3545 C.2        1 BB1          0.0000
     3 O3         1.0984   -18.2952    15.2740 O.3        1 BB1          0.0000
     4 C4         2.2989   -17.7046    14.6917 C.3        1 BB1          0.0000
     5 C5         1.9070   -17.4353    13.2310 C.3        1 BB1          0.0000
     6 C6         2.0755   -15.9531    12.8839 C.3        1 BB1          0.0000
     7 N7         1.3723   -15.6821    11.6214 N.am       1 BB1          0.0000
     8 C8        -0.0762   -15.8488    11.7787 C.3        1 BB1          0.0000
     9 C9        -0.4038   -17.3178    12.0904 C.3        1 BB1          0.0000
    10 N10        0.4558   -17.7226    13.2126 N.am       1 BB1          0.0000
    11 H11        2.5508   -16.7727    15.1980 H          1 BB1          0.0000
    12 H12        3.1324   -18.4052    14.7411 H          1 BB1          0.0000
    13 H13        2.4633   -18.0720    12.5431 H          1 BB1          0.0000
    14 H14        1.6494   -15.3407    13.6787 H          1 BB1          0.0000
    15 H15        3.1347   -15.7225    12.7694 H          1 BB1          0.0000
    16 H16       -0.4266   -15.2186    12.5960 H          1 BB1          0.0000
    17 H17       -0.5767   -15.5543    10.8563 H          1 BB1          0.0000
    18 H18       -1.4528   -17.4140    12.3699 H          1 BB1          0.0000
    19 H19       -0.1909   -17.9392    11.2205 H          1 BB1          0.0000
    20 C2         0.0232   -14.5029    10.8440 C.2        2 BB2          0.0000
    21 O3         0.5964   -15.4713    11.3227 O.2        2 BB2          0.0000
    22 C4         0.1943   -14.1761     9.4156 C.ar       2 BB2          0.0000
    23 C5         0.2000   -15.1937     8.4585 C.ar       2 BB2          0.0000
    24 C6         0.3606   -14.8807     7.1247 C.ar       2 BB2          0.0000
    25 C7         0.5162   -13.5625     6.7340 C.ar       2 BB2          0.0000
    26 C8         0.5116   -12.5491     7.6766 C.ar       2 BB2          0.0000
    27 C9         0.3458   -12.8466     9.0128 C.ar       2 BB2          0.0000
    28 C10        0.3405   -11.7416    10.0376 C.3        2 BB2          0.0000
    29 N11       -0.8775   -10.9417     9.8869 N.pl3      2 BB2          0.0000
    30 C12       -1.9601   -10.9853    10.6975 C.2        2 BB2          0.0000
    31 C13       -2.8435   -10.0913    10.1954 C.2        2 BB2          0.0000
    32 N14       -2.2659    -9.5516     9.1162 N.2        2 BB2          0.0000
    33 N15       -1.0997   -10.0726     8.9638 N.2        2 BB2          0.0000
    34 H16        0.0794   -16.2231     8.7623 H          2 BB2          0.0000
    35 H17        0.3653   -15.6663     6.3837 H          2 BB2          0.0000
    36 H18        0.6423   -13.3234     5.6883 H          2 BB2          0.0000
    37 H19        0.6339   -11.5225     7.3644 H          2 BB2          0.0000
    38 H20        0.3700   -12.1736    11.0379 H          2 BB2          0.0000
    39 H21        1.2134   -11.1056     9.8906 H          2 BB2          0.0000
    40 H22       -2.0926   -11.6083    11.5697 H          2 BB2          0.0000
    41 H23       -3.8224    -9.8595    10.5883 H          2 BB2          0.0000
@<TRIPOS>BOND
     1      1      2 2
     2      2      3 1
     3      2     10 am
     4      3      4 1
     5      4      5 1
     6      4     11 1
     7      4     12 1
     8      5      6 1
     9      5     10 1
    10      5     13 1
    11      6      7 1
    12      6     14 1
    13      6     15 1
    14      7      8 1
    15      8      9 1
    16      8     16 1
    17      8     17 1
    18      9     10 1
    19      9     18 1
    20      9     19 1
    21     20     21 2
    22     20     22 1
    23     22     23 ar
    24     22     27 ar
    25     23     24 ar
    26     23     34 1
    27     24     25 ar
    28     24     35 1
    29     25     26 ar
    30     25     36 1
    31     26     27 ar
    32     26     37 1
    33     27     28 1
    34     28     29 1
    35     28     38 1
    36     28     39 1
    37     29     30 1
    38     29     33 1
    39     30     31 2
    40     30     40 1
    41     31     32 1
    42     31     41 1
    43     32     33 2
    44      7     20 am
@<TRIPOS>SUBSTRUCTURE
     1 BB1           7
     2 BB2          20
@<TRIPOS>MOLECULE
EN300-109827_i001_EN300-306118_i001_2_6_1
  41   44   2   0   0
SMALL
USER_CHARGES
@<TRIPOS>ATOM
     1 O1        -0.9579   -18.8444    14.5430 O.2        1 BB1          0.0000
     2 C2         0.1226   -18.3213    14.3545 C.2        1 BB1          0.0000
     3 O3         1.0984   -18.2952    15.2740 O.3        1 BB1          0.0000
     4 C4         2.2989   -17.7046    14.6917 C.3        1 BB1          0.0000
     5 C5         1.9070   -17.4353    13.2310 C.3        1 BB1          0.0000
     6 C6         2.0755   -15.9531    12.8839 C.3        1 BB1          0.0000
     7 N7         1.3723   -15.6821    11.6214 N.am       1 BB1          0.0000
     8 C8        -0.0762   -15.8488    11.7787 C.3        1 BB1          0.0000
     9 C9        -0.4038   -17.3178    12.0904 C.3        1 BB1          0.0000
    10 N10        0.4558   -17.7226    13.2126 N.am       1 BB1          0.0000
    11 H11        2.5508   -16.7727    15.1980 H          1 BB1          0.0000
    12 H12        3.1324   -18.4052    14.7411 H          1 BB1          0.0000
    13 H13        2.4633   -18.0720    12.5431 H          1 BB1          0.0000
    14 H14        1.6494   -15.3407    13.6787 H          1 BB1          0.0000
    15 H15        3.1347   -15.7225    12.7694 H          1 BB1          0.0000
    16 H16       -0.4266   -15.2186    12.5960 H          1 BB1          0.0000
    17 H17       -0.5767   -15.5543    10.8563 H          1 BB1          0.0000
    18 H18       -1.4528   -17.4140    12.3699 H          1 BB1          0.0000
    19 H19       -0.1909   -17.9392    11.2205 H          1 BB1          0.0000
    20 C2        -0.3996   -13.7304    10.8133 C.2        2 BB2          0.0000
    21 O3         0.0088   -14.6778    11.4700 O.2        2 BB2          0.0000
    22 C4         0.1276   -13.4914     9.4563 C.ar       2 BB2          0.0000
    23 C5         0.3583   -14.5656     8.5936 C.ar       2 BB2          0.0000
    24 C6         0.8514   -14.3346     7.3262 C.ar       2 BB2          0.0000
    25 C7         1.1179   -13.0426     6.9090 C.ar       2 BB2          0.0000
    26 C8         0.8918   -11.9734     7.7582 C.ar       2 BB2          0.0000
    27 C9         0.3932   -12.1888     9.0257 C.ar       2 BB2          0.0000
    28 C10        0.1472   -11.0231     9.9488 C.3        2 BB2          0.0000
    29 N11       -1.2932   -10.7753    10.0492 N.pl3      2 BB2          0.0000
    30 C12       -2.2529   -11.3618     9.2971 C.2        2 BB2          0.0000
    31 C13       -3.4309   -10.8465     9.7198 C.2        2 BB2          0.0000
    32 N14       -3.1380    -9.9810    10.6969 N.2        2 BB2          0.0000
    33 N15       -1.8637    -9.9660    10.8717 N.2        2 BB2          0.0000
    34 H16        0.1514   -15.5747     8.9183 H          2 BB2          0.0000
    35 H17        1.0303   -15.1641     6.6582 H          2 BB2          0.0000
    36 H18        1.5046   -12.8676     5.9157 H          2 BB2          0.0000
    37 H19        1.1024   -10.9676     7.4259 H          2 BB2          0.0000
    38 H20        0.5463   -11.2516    10.9369 H          2 BB2          0.0000
    39 H21        0.6418   -10.1360     9.5534 H          2 BB2          0.0000
    40 H22       -2.1081   -12.0939     8.5164 H          2 BB2          0.0000
    41 H23       -4.4139   -11.0863     9.3423 H          2 BB2          0.0000
@<TRIPOS>BOND
     1      1      2 2
     2      2      3 1
     3      2     10 am
     4      3      4 1
     5      4      5 1
     6      4     11 1
     7      4     12 1
     8      5      6 1
     9      5     10 1
    10      5     13 1
    11      6      7 1
    12      6     14 1
    13      6     15 1
    14      7      8 1
    15      8      9 1
    16      8     16 1
    17      8     17 1
    18      9     10 1
    19      9     18 1
    20      9     19 1
    21     20     21 2
    22     20     22 1
    23     22     23 ar
    24     22     27 ar
    25     23     24 ar
    26     23     34 1
    27     24     25 ar
    28     24     35 1
    29     25     26 ar
    30     25     36 1
    31     26     27 ar
    32     26     37 1
    33     27     28 1
    34     28     29 1
    35     28     38 1
    36     28     39 1
    37     29     30 1
    38     29     33 1
    39     30     31 2
    40     30     40 1
    41     31     32 1
    42     31     41 1
    43     32     33 2
    44      7     20 am
@<TRIPOS>SUBSTRUCTURE
     1 BB1           7
     2 BB2          20
@<TRIPOS>MOLECULE
EN300-109827_i001_EN300-306118_i001_2_7_1
  41   44   2   0   0
SMALL
USER_CHARGES
@<TRIPOS>ATOM
     1 O1        -0.9579   -18.8444    14.5430 O.2        1 BB1          0.0000
     2 C2         0.1226   -18.3213    14.3545 C.2        1 BB1          0.0000
     3 O3         1.0984   -18.2952    15.2740 O.3        1 BB1          0.0000
     4 C4         2.2989   -17.7046    14.6917 C.3        1 BB1          0.0000
     5 C5         1.9070   -17.4353    13.2310 C.3        1 BB1          0.0000
     6 C6         2.0755   -15.9531    12.8839 C.3        1 BB1          0.0000
     7 N7         1.3723   -15.6821    11.6214 N.am       1 BB1          0.0000
     8 C8        -0.0762   -15.8488    11.7787 C.3        1 BB1          0.0000
     9 C9        -0.4038   -17.3178    12.0904 C.3        1 BB1          0.0000
    10 N10        0.4558   -17.7226    13.2126 N.am       1 BB1          0.0000
    11 H11        2.5508   -16.7727    15.1980 H          1 BB1          0.0000
    12 H12        3.1324   -18.4052    14.7411 H          1 BB1          0.0000
    13 H13        2.4633   -18.0720    12.5431 H          1 BB1          0.0000
    14 H14        1.6494   -15.3407    13.6787 H          1 BB1          0.0000
    15 H15        3.1347   -15.7225    12.7694 H          1 BB1          0.0000
    16 H16       -0.4266   -15.2186    12.5960 H          1 BB1          0.0000
    17 H17       -0.5767   -15.5543    10.8563 H          1 BB1          0.0000
    18 H18       -1.4528   -17.4140    12.3699 H          1 BB1          0.0000
    19 H19       -0.1909   -17.9392    11.2205 H          1 BB1          0.0000
    20 C2         0.3107   -14.7692    11.2595 C.2        2 BB2          0.0000
    21 O3         1.3333   -15.2930    11.6783 O.2        2 BB2          0.0000
    22 C4         0.2910   -14.1590     9.9165 C.ar       2 BB2          0.0000
    23 C5         0.9400   -14.7869     8.8506 C.ar       2 BB2          0.0000
    24 C6         0.9175   -14.2104     7.5976 C.ar       2 BB2          0.0000
    25 C7         0.2545   -13.0130     7.3953 C.ar       2 BB2          0.0000
    26 C8        -0.3907   -12.3851     8.4465 C.ar       2 BB2          0.0000
    27 C9        -0.3818   -12.9530     9.7032 C.ar       2 BB2          0.0000
    28 C10       -1.0854   -12.2680    10.8464 C.3        2 BB2          0.0000
    29 N11       -1.9001   -11.1660    10.3286 N.pl3      2 BB2          0.0000
    30 C12       -3.2480   -11.0736    10.4030 C.2        2 BB2          0.0000
    31 C13       -3.5794    -9.9055     9.8051 C.2        2 BB2          0.0000
    32 N14       -2.4331    -9.3478     9.3992 N.2        2 BB2          0.0000
    33 N15       -1.4563   -10.1169     9.7294 N.2        2 BB2          0.0000
    34 H16        1.4585   -15.7213     9.0074 H          2 BB2          0.0000
    35 H17        1.4188   -14.6947     6.7727 H          2 BB2          0.0000
    36 H18        0.2408   -12.5658     6.4122 H          2 BB2          0.0000
    37 H19       -0.9059   -11.4505     8.2813 H          2 BB2          0.0000
    38 H20       -1.7270   -12.9843    11.3596 H          2 BB2          0.0000
    39 H21       -0.3465   -11.8763    11.5454 H          2 BB2          0.0000
    40 H22       -3.9235   -11.7882    10.8496 H          2 BB2          0.0000
    41 H23       -4.5737    -9.5029     9.6797 H          2 BB2          0.0000
@<TRIPOS>BOND
     1      1      2 2
     2      2      3 1
     3      2     10 am
     4      3      4 1
     5      4      5 1
     6      4     11 1
     7      4     12 1
     8      5      6 1
     9      5     10 1
    10      5     13 1
    11      6      7 1
    12      6     14 1
    13      6     15 1
    14      7      8 1
    15      8      9 1
    16      8     16 1
    17      8     17 1
    18      9     10 1
    19      9     18 1
    20      9     19 1
    21     20     21 2
    22     20     22 1
    23     22     23 ar
    24     22     27 ar
    25     23     24 ar
    26     23     34 1
    27     24     25 ar
    28     24     35 1
    29     25     26 ar
    30     25     36 1
    31     26     27 ar
    32     26     37 1
    33     27     28 1
    34     28     29 1
    35     28     38 1
    36     28     39 1
    37     29     30 1
    38     29     33 1
    39     30     31 2
    40     30     40 1
    41     31     32 1
    42     31     41 1
    43     32     33 2
    44      7     20 am
@<TRIPOS>SUBSTRUCTURE
     1 BB1           7
     2 BB2          20
@<TRIPOS>MOLECULE
EN300-109827_i001_EN300-344045_i001_2_2_1
  48   51   2   0   0
SMALL
USER_CHARGES
@<TRIPOS>ATOM
     1 O1        -0.9579   -18.8444    14.5430 O.2        1 BB1          0.0000
     2 C2         0.1226   -18.3213    14.3545 C.2        1 BB1          0.0000
     3 O3         1.0984   -18.2952    15.2740 O.3        1 BB1          0.0000
     4 C4         2.2989   -17.7046    14.6917 C.3        1 BB1          0.0000
     5 C5         1.9070   -17.4353    13.2310 C.3        1 BB1          0.0000
     6 C6         2.0755   -15.9531    12.8839 C.3        1 BB1          0.0000
     7 N7         1.3723   -15.6821    11.6214 N.am       1 BB1          0.0000
     8 C8        -0.0762   -15.8488    11.7787 C.3        1 BB1          0.0000
     9 C9        -0.4038   -17.3178    12.0904 C.3        1 BB1          0.0000
    10 N10        0.4558   -17.7226    13.2126 N.am       1 BB1          0.0000
    11 H11        2.5508   -16.7727    15.1980 H          1 BB1          0.0000
    12 H12        3.1324   -18.4052    14.7411 H          1 BB1          0.0000
    13 H13        2.4633   -18.0720    12.5431 H          1 BB1          0.0000
    14 H14        1.6494   -15.3407    13.6787 H          1 BB1          0.0000
    15 H15        3.1347   -15.7225    12.7694 H          1 BB1          0.0000
    16 H16       -0.4266   -15.2186    12.5960 H          1 BB1          0.0000
    17 H17       -0.5767   -15.5543    10.8563 H          1 BB1          0.0000
    18 H18       -1.4528   -17.4140    12.3699 H          1 BB1          0.0000
    19 H19       -0.1909   -17.9392    11.2205 H          1 BB1          0.0000
    20 O1         0.5661   -15.7707    10.9576 O.2        2 BB2          0.0000
    21 C2         0.2489   -14.5943    11.0019 C.2        2 BB2          0.0000
    22 C4         0.9922   -13.5817    10.1694 C.3        2 BB2          0.0000
    23 C5         0.0568   -13.0163     9.0988 C.3        2 BB2          0.0000
    24 C6         0.8768   -12.3025     8.0042 C.3        2 BB2          0.0000
    25 C7         1.0511   -13.3749     6.9002 C.3        2 BB2          0.0000
    26 C8        -0.3163   -14.1023     6.9114 C.3        2 BB2          0.0000
    27 C9        -0.7017   -14.1605     8.4040 C.3        2 BB2          0.0000
    28 C10       -0.9194   -12.0528     9.7233 C.ar       2 BB2          0.0000
    29 C11       -0.7018   -11.5818    11.0046 C.ar       2 BB2          0.0000
    30 C12       -1.5972   -10.6981    11.5774 C.ar       2 BB2          0.0000
    31 C13       -2.7099   -10.2850    10.8687 C.ar       2 BB2          0.0000
    32 C14       -2.9270   -10.7553     9.5871 C.ar       2 BB2          0.0000
    33 C15       -2.0292   -11.6357     9.0126 C.ar       2 BB2          0.0000
    34 H16        1.3431   -12.7722    10.8096 H          2 BB2          0.0000
    35 H17        1.8455   -14.0614     9.6898 H          2 BB2          0.0000
    36 H18        0.3298   -11.4425     7.6177 H          2 BB2          0.0000
    37 H19        1.8472   -11.9949     8.3939 H          2 BB2          0.0000
    38 H20        1.2319   -12.9071     5.9324 H          2 BB2          0.0000
    39 H21        1.8570   -14.0634     7.1543 H          2 BB2          0.0000
    40 H22       -1.0559   -13.5330     6.3483 H          2 BB2          0.0000
    41 H23       -0.2166   -15.1082     6.5036 H          2 BB2          0.0000
    42 H24       -0.4034   -15.1187     8.8294 H          2 BB2          0.0000
    43 H25       -1.7765   -14.0194     8.5179 H          2 BB2          0.0000
    44 H26        0.1674   -11.9045    11.5583 H          2 BB2          0.0000
    45 H27       -1.4278   -10.3307    12.5787 H          2 BB2          0.0000
    46 H28       -3.4099    -9.5951    11.3165 H          2 BB2          0.0000
    47 H29       -3.7964   -10.4328     9.0334 H          2 BB2          0.0000
    48 H30       -2.1987   -12.0032     8.0113 H          2 BB2          0.0000
@<TRIPOS>BOND
     1      1      2 2
     2      2      3 1
     3      2     10 am
     4      3      4 1
     5      4      5 1
     6      4     11 1
     7      4     12 1
     8      5      6 1
     9      5     10 1
    10      5     13 1
    11      6      7 1
    12      6     14 1
    13      6     15 1
    14      7      8 1
    15      8      9 1
    16      8     16 1
    17      8     17 1
    18      9     10 1
    19      9     18 1
    20      9     19 1
    21     20     21 2
    22     21     22 1
    23     22     23 1
    24     22     34 1
    25     22     35 1
    26     23     24 1
    27     23     27 1
    28     23     28 1
    29     24     25 1
    30     24     36 1
    31     24     37 1
    32     25     26 1
    33     25     38 1
    34     25     39 1
    35     26     27 1
    36     26     40 1
    37     26     41 1
    38     27     42 1
    39     27     43 1
    40     28     29 ar
    41     28     33 ar
    42     29     30 ar
    43     29     44 1
    44     30     31 ar
    45     30     45 1
    46     31     32 ar
    47     31     46 1
    48     32     33 ar
    49     32     47 1
    50     33     48 1
    51      7     21 am
@<TRIPOS>SUBSTRUCTURE
     1 BB1           7
     2 BB2          21
@<TRIPOS>MOLECULE
EN300-109827_i001_EN300-15782_i003_5_11_1
  53   55   2   0   0
SMALL
USER_CHARGES
@<TRIPOS>ATOM
     1 O1        -0.6958   -10.5272     8.7935 O.2        1 BB1          0.0000
     2 C2        -0.6798   -11.4338     9.6023 C.2        1 BB1          0.0000
     3 O3        -0.9813   -11.2694    10.8987 O.3        1 BB1          0.0000
     4 C4        -0.9855   -12.5676    11.5648 C.3        1 BB1          0.0000
     5 C5        -0.6999   -13.5652    10.4321 C.3        1 BB1          0.0000
     6 C6         0.5484   -14.3979    10.7385 C.3        1 BB1          0.0000
     7 N7         0.9797   -15.0717     9.5049 N.am       1 BB1          0.0000
     8 C8         1.4359   -14.1000     8.5056 C.3        1 BB1          0.0000
     9 C9         0.2619   -13.2114     8.0648 C.3        1 BB1          0.0000
    10 N10       -0.3665   -12.6893     9.2873 N.am       1 BB1          0.0000
    11 H11       -0.2012   -12.6122    12.3204 H          1 BB1          0.0000
    12 H12       -1.9599   -12.7650    12.0116 H          1 BB1          0.0000
    13 H13       -1.5630   -14.1994    10.2298 H          1 BB1          0.0000
    14 H14        1.3447   -13.7451    11.0963 H          1 BB1          0.0000
    15 H15        0.3136   -15.1426    11.4990 H          1 BB1          0.0000
    16 H16        2.2192   -13.4771     8.9375 H          1 BB1          0.0000
    17 H17        1.8332   -14.6304     7.6401 H          1 BB1          0.0000
    18 H18        0.6282   -12.3876     7.4522 H          1 BB1          0.0000
    19 H19       -0.4611   -13.8020     7.5023 H          1 BB1          0.0000
    20 C1         2.3888   -16.8238    14.4189 C.3        2 BB2          0.0000
    21 C2         1.9103   -16.1792    13.1165 C.3        2 BB2          0.0000
    22 O3         2.9070   -16.3493    12.1065 O.3        2 BB2          0.0000
    23 C4         0.6087   -16.8453    12.6658 C.3        2 BB2          0.0000
    24 N5         0.8534   -18.2651    12.4000 N.pl3      2 BB2          0.0000
    25 S6        -0.3647   -19.2187    11.8092 S.o2       2 BB2          0.0000
    26 O7        -1.5814   -18.6453    12.2674 O.2        2 BB2          0.0000
    27 O8        -0.0757   -19.4327    10.4344 O.2        2 BB2          0.0000
    28 C9        -0.2267   -20.7888    12.5969 C.ar       2 BB2          0.0000
    29 C10        0.9570   -21.1520    13.2110 C.ar       2 BB2          0.0000
    30 C11        1.0653   -22.3840    13.8291 C.ar       2 BB2          0.0000
    31 C12       -0.0101   -23.2521    13.8331 C.ar       2 BB2          0.0000
    32 C13        0.1082   -24.5951    14.5064 C.3        2 BB2          0.0000
    33 C14       -1.1946   -22.8882    13.2199 C.ar       2 BB2          0.0000
    34 C15       -2.3673   -23.8345    13.2247 C.3        2 BB2          0.0000
    35 C16       -1.3041   -21.6550    12.6054 C.ar       2 BB2          0.0000
    36 C17        0.1114   -16.1775    11.4097 C.2        2 BB2          0.0000
    37 O18       -0.0451   -14.9687    11.3830 O.2        2 BB2          0.0000
    38 H20        3.3161   -16.3492    14.7399 H          2 BB2          0.0000
    39 H21        1.6286   -16.6940    15.1892 H          2 BB2          0.0000
    40 H22        2.5626   -17.8873    14.2555 H          2 BB2          0.0000
    41 H23        1.7365   -15.1155    13.2799 H          2 BB2          0.0000
    42 H24       -0.1407   -16.7465    13.4510 H          2 BB2          0.0000
    43 H25        1.7974   -20.4736    13.2080 H          2 BB2          0.0000
    44 H26        1.9905   -22.6682    14.3085 H          2 BB2          0.0000
    45 H27       -0.1932   -24.5062    15.5500 H          2 BB2          0.0000
    46 H28       -0.5383   -25.3129    14.0014 H          2 BB2          0.0000
    47 H29        1.1417   -24.9378    14.4545 H          2 BB2          0.0000
    48 H30       -2.9797   -23.6499    14.1073 H          2 BB2          0.0000
    49 H31       -2.9659   -23.6760    12.3276 H          2 BB2          0.0000
    50 H32       -2.0048   -24.8623    13.2426 H          2 BB2          0.0000
    51 H33       -2.2295   -21.3707    12.1264 H          2 BB2          0.0000
    52 H34        2.5702   -16.7226    11.2806 H          2 BB2          0.0000
    53 H35        1.7288   -18.6466    12.5701 H          2 BB2          0.0000
@<TRIPOS>BOND
     1      1      2 2
     2      2      3 1
     3      2     10 am
     4      3      4 1
     5      4      5 1
     6      4     11 1
     7      4     12 1
     8      5      6 1
     9      5     10 1
    10      5     13 1
    11      6      7 1
    12      6     14 1
    13      6     15 1
    14      7      8 1
    15      8      9 1
    16      8     16 1
    17      8     17 1
    18      9     10 1
    19      9     18 1
    20      9     19 1
    21     20     21 1
    22     20     38 1
    23     20     39 1
    24     20     40 1
    25     21     22 1
    26     21     23 1
    27     21     41 1
    28     22     52 1
    29     23     24 1
    30     23     36 1
    31     23     42 1
    32     24     25 1
    33     24     53 1
    34     25     26 2
    35     25     27 2
    36     25     28 1
    37     28     29 ar
    38     28     35 ar
    39     29     30 ar
    40     29     43 1
    41     30     31 ar
    42     30     44 1
    43     31     32 1
    44     31     33 ar
    45     32     45 1
    46     32     46 1
    47     32     47 1
    48     33     34 1
    49     33     35 ar
    50     34     48 1
    51     34     49 1
    52     34     50 1
    53     35     51 1
    54     36     37 2
    55      7     36 am
@<TRIPOS>SUBSTRUCTURE
     1 BB1           7
     2 BB2          36
@<TRIPOS>MOLECULE
EN300-109827_i001_EN300-1087079_i001_8_11_1
  45   47   2   0   0
SMALL
USER_CHARGES
@<TRIPOS>ATOM
     1 O1         0.8970   -11.8792     8.7068 O.2        1 BB1          0.0000
     2 C2         0.6071   -12.9455     8.2013 C.2        1 BB1          0.0000
     3 O3         0.0371   -13.0565     6.9925 O.3        1 BB1          0.0000
     4 C4        -0.0660   -14.4666     6.6318 C.3        1 BB1          0.0000
     5 C5         0.6043   -15.1981     7.8046 C.3        1 BB1          0.0000
     6 C6        -0.3598   -16.1996     8.4473 C.3        1 BB1          0.0000
     7 N7         0.1855   -16.6090     9.7499 N.am       1 BB1          0.0000
     8 C8         0.2078   -15.4829    10.6893 C.3        1 BB1          0.0000
     9 C9         1.1814   -14.4035    10.1901 C.3        1 BB1          0.0000
    10 N10        0.8292   -14.1186     8.7912 N.am       1 BB1          0.0000
    11 H11       -1.1111   -14.7633     6.5432 H          1 BB1          0.0000
    12 H12        0.4686   -14.6637     5.7025 H          1 BB1          0.0000
    13 H13        1.5336   -15.6786     7.4985 H          1 BB1          0.0000
    14 H14       -1.3334   -15.7305     8.5894 H          1 BB1          0.0000
    15 H15       -0.4627   -17.0730     7.8032 H          1 BB1          0.0000
    16 H16       -0.7929   -15.0586    10.7696 H          1 BB1          0.0000
    17 H17        0.5297   -15.8354    11.6692 H          1 BB1          0.0000
    18 H18        1.0774   -13.5011    10.7925 H          1 BB1          0.0000
    19 H19        2.2056   -14.7723    10.2442 H          1 BB1          0.0000
    20 C1        -0.7723   -22.7048    12.2406 C.3        2 BB2          0.0000
    21 C2        -0.4916   -21.3064    11.6867 C.3        2 BB2          0.0000
    22 C3         0.7974   -20.7620    12.3055 C.3        2 BB2          0.0000
    23 C4         0.7267   -20.8124    13.8546 C.3        2 BB2          0.0000
    24 C5         1.6998   -19.6731    14.2476 C.3        2 BB2          0.0000
    25 N6         1.4862   -18.6268    13.2312 N.am       2 BB2          0.0000
    26 C7         0.9478   -19.2538    12.0152 C.3        2 BB2          0.0000
    27 C8        -0.3967   -18.6589    11.6843 C.2        2 BB2          0.0000
    28 O10       -0.6014   -18.1942    10.5758 O.2        2 BB2          0.0000
    29 C11        1.7415   -17.3131    13.3906 C.2        2 BB2          0.0000
    30 O12        1.5260   -16.5389    12.4822 O.2        2 BB2          0.0000
    31 C13        2.2948   -16.8061    14.6973 C.3        2 BB2          0.0000
    32 H14       -1.6906   -23.0926    11.7998 H          2 BB2          0.0000
    33 H15        0.0574   -23.3668    11.9931 H          2 BB2          0.0000
    34 H16       -0.8836   -22.6510    13.3236 H          2 BB2          0.0000
    35 H17       -0.3804   -21.3602    10.6038 H          2 BB2          0.0000
    36 H18       -1.3213   -20.6443    11.9342 H          2 BB2          0.0000
    37 H19        1.6624   -21.3158    11.9408 H          2 BB2          0.0000
    38 H20       -0.2833   -20.6023    14.2066 H          2 BB2          0.0000
    39 H21        1.0778   -21.7733    14.2307 H          2 BB2          0.0000
    40 H22        1.4578   -19.2928    15.2401 H          2 BB2          0.0000
    41 H23        2.7304   -20.0270    14.2170 H          2 BB2          0.0000
    42 H24        1.6369   -19.1031    11.1842 H          2 BB2          0.0000
    43 H25        2.4212   -17.6409    15.3868 H          2 BB2          0.0000
    44 H26        3.2595   -16.3295    14.5231 H          2 BB2          0.0000
    45 H27        1.6038   -16.0811    15.1277 H          2 BB2          0.0000
@<TRIPOS>BOND
     1      1      2 2
     2      2      3 1
     3      2     10 am
     4      3      4 1
     5      4      5 1
     6      4     11 1
     7      4     12 1
     8      5      6 1
     9      5     10 1
    10      5     13 1
    11      6      7 1
    12      6     14 1
    13      6     15 1
    14      7      8 1
    15      8      9 1
    16      8     16 1
    17      8     17 1
    18      9     10 1
    19      9     18 1
    20      9     19 1
    21     20     21 1
    22     20     32 1
    23     20     33 1
    24     20     34 1
    25     21     22 1
    26     21     35 1
    27     21     36 1
    28     22     23 1
    29     22     26 1
    30     22     37 1
    31     23     24 1
    32     23     38 1
    33     23     39 1
    34     24     25 1
    35     24     40 1
    36     24     41 1
    37     25     26 1
    38     25     29 am
    39     26     27 1
    40     26     42 1
    41     27     28 2
    42     29     30 2
    43     29     31 1
    44     31     43 1
    45     31     44 1
    46     31     45 1
    47      7     27 am
@<TRIPOS>SUBSTRUCTURE
     1 BB1           7
     2 BB2          27
@<TRIPOS>MOLECULE
EN300-109827_i001_EN300-1087079_i001_8_7_1
  45   47   2   0   0
SMALL
USER_CHARGES
@<TRIPOS>ATOM
     1 O1         0.8970   -11.8792     8.7068 O.2        1 BB1          0.0000
     2 C2         0.6071   -12.9455     8.2013 C.2        1 BB1          0.0000
     3 O3         0.0371   -13.0565     6.9925 O.3        1 BB1          0.0000
     4 C4        -0.0660   -14.4666     6.6318 C.3        1 BB1          0.0000
     5 C5         0.6043   -15.1981     7.8046 C.3        1 BB1          0.0000
     6 C6        -0.3598   -16.1996     8.4473 C.3        1 BB1          0.0000
     7 N7         0.1855   -16.6090     9.7499 N.am       1 BB1          0.0000
     8 C8         0.2078   -15.4829    10.6893 C.3        1 BB1          0.0000
     9 C9         1.1814   -14.4035    10.1901 C.3        1 BB1          0.0000
    10 N10        0.8292   -14.1186     8.7912 N.am       1 BB1          0.0000
    11 H11       -1.1111   -14.7633     6.5432 H          1 BB1          0.0000
    12 H12        0.4686   -14.6637     5.7025 H          1 BB1          0.0000
    13 H13        1.5336   -15.6786     7.4985 H          1 BB1          0.0000
    14 H14       -1.3334   -15.7305     8.5894 H          1 BB1          0.0000
    15 H15       -0.4627   -17.0730     7.8032 H          1 BB1          0.0000
    16 H16       -0.7929   -15.0586    10.7696 H          1 BB1          0.0000
    17 H17        0.5297   -15.8354    11.6692 H          1 BB1          0.0000
    18 H18        1.0774   -13.5011    10.7925 H          1 BB1          0.0000
    19 H19        2.2056   -14.7723    10.2442 H          1 BB1          0.0000
    20 C1         0.0812   -22.3818    12.8543 C.3        2 BB2          0.0000
    21 C2         0.1562   -21.0870    12.0427 C.3        2 BB2          0.0000
    22 C3         1.2294   -20.1734    12.6380 C.3        2 BB2          0.0000
    23 C4         1.0894   -20.0951    14.1813 C.3        2 BB2          0.0000
    24 C5         1.7190   -18.7118    14.4809 C.3        2 BB2          0.0000
    25 N6         1.3030   -17.8558    13.3551 N.am       2 BB2          0.0000
    26 C7         1.0082   -18.7114    12.1963 C.3        2 BB2          0.0000
    27 C8        -0.4230   -18.5167    11.7664 C.2        2 BB2          0.0000
    28 O9        -0.6772   -18.2092    10.6144 O.2        2 BB2          0.0000
    29 C11        1.2079   -16.5117    13.3836 C.2        2 BB2          0.0000
    30 O12        1.4771   -15.9063    14.3994 O.2        2 BB2          0.0000
    31 C13        0.7670   -15.7612    12.1535 C.3        2 BB2          0.0000
    32 H14       -0.6833   -23.0327    12.4301 H          2 BB2          0.0000
    33 H15        1.0467   -22.8868    12.8226 H          2 BB2          0.0000
    34 H16       -0.1730   -22.1484    13.8881 H          2 BB2          0.0000
    35 H17        0.4104   -21.3204    11.0088 H          2 BB2          0.0000
    36 H18       -0.8092   -20.5819    12.0743 H          2 BB2          0.0000
    37 H19        2.2252   -20.5172    12.3582 H          2 BB2          0.0000
    38 H20        0.0414   -20.1203    14.4802 H          2 BB2          0.0000
    39 H21        1.6515   -20.8935    14.6656 H          2 BB2          0.0000
    40 H22        1.3348   -18.3157    15.4209 H          2 BB2          0.0000
    41 H23        2.8057   -18.7895    14.5170 H          2 BB2          0.0000
    42 H24        1.6809   -18.4667    11.3742 H          2 BB2          0.0000
    43 H25        0.5709   -16.4682    11.3473 H          2 BB2          0.0000
    44 H26       -0.1419   -15.2019    12.3753 H          2 BB2          0.0000
    45 H27        1.5532   -15.0707    11.8479 H          2 BB2          0.0000
@<TRIPOS>BOND
     1      1      2 2
     2      2      3 1
     3      2     10 am
     4      3      4 1
     5      4      5 1
     6      4     11 1
     7      4     12 1
     8      5      6 1
     9      5     10 1
    10      5     13 1
    11      6      7 1
    12      6     14 1
    13      6     15 1
    14      7      8 1
    15      8      9 1
    16      8     16 1
    17      8     17 1
    18      9     10 1
    19      9     18 1
    20      9     19 1
    21     20     21 1
    22     20     32 1
    23     20     33 1
    24     20     34 1
    25     21     22 1
    26     21     35 1
    27     21     36 1
    28     22     23 1
    29     22     26 1
    30     22     37 1
    31     23     24 1
    32     23     38 1
    33     23     39 1
    34     24     25 1
    35     24     40 1
    36     24     41 1
    37     25     26 1
    38     25     29 am
    39     26     27 1
    40     26     42 1
    41     27     28 2
    42     29     30 2
    43     29     31 1
    44     31     43 1
    45     31     44 1
    46     31     45 1
    47      7     27 am
@<TRIPOS>SUBSTRUCTURE
     1 BB1           7
     2 BB2          27
@<TRIPOS>MOLECULE
EN300-109827_i001_EN300-34862_i002_8_2_1
  31   33   2   0   0
SMALL
USER_CHARGES
@<TRIPOS>ATOM
     1 O1         0.8970   -11.8792     8.7068 O.2        1 BB1          0.0000
     2 C2         0.6071   -12.9455     8.2013 C.2        1 BB1          0.0000
     3 O3         0.0371   -13.0565     6.9925 O.3        1 BB1          0.0000
     4 C4        -0.0660   -14.4666     6.6318 C.3        1 BB1          0.0000
     5 C5         0.6043   -15.1981     7.8046 C.3        1 BB1          0.0000
     6 C6        -0.3598   -16.1996     8.4473 C.3        1 BB1          0.0000
     7 N7         0.1855   -16.6090     9.7499 N.am       1 BB1          0.0000
     8 C8         0.2078   -15.4829    10.6893 C.3        1 BB1          0.0000
     9 C9         1.1814   -14.4035    10.1901 C.3        1 BB1          0.0000
    10 N10        0.8292   -14.1186     8.7912 N.am       1 BB1          0.0000
    11 H11       -1.1111   -14.7633     6.5432 H          1 BB1          0.0000
    12 H12        0.4686   -14.6637     5.7025 H          1 BB1          0.0000
    13 H13        1.5336   -15.6786     7.4985 H          1 BB1          0.0000
    14 H14       -1.3334   -15.7305     8.5894 H          1 BB1          0.0000
    15 H15       -0.4627   -17.0730     7.8032 H          1 BB1          0.0000
    16 H16       -0.7929   -15.0586    10.7696 H          1 BB1          0.0000
    17 H17        0.5297   -15.8354    11.6692 H          1 BB1          0.0000
    18 H18        1.0774   -13.5011    10.7925 H          1 BB1          0.0000
    19 H19        2.2056   -14.7723    10.2442 H          1 BB1          0.0000
    20 O1        -0.9639   -18.2558    11.1424 O.2        2 BB2          0.0000
    21 C2        -0.0714   -18.9820    11.5454 C.2        2 BB2          0.0000
    22 C4         0.4232   -18.8528    12.9630 C.3        2 BB2          0.0000
    23 C5         1.9278   -18.5532    12.9428 C.3        2 BB2          0.0000
    24 S6         2.0684   -16.9552    13.8039 S.3        2 BB2          0.0000
    25 C7         0.3405   -16.7645    14.1210 C.2        2 BB2          0.0000
    26 O8        -0.1661   -15.8227    14.7002 O.2        2 BB2          0.0000
    27 N9        -0.3212   -17.8079    13.6288 N.am       2 BB2          0.0000
    28 H10        0.2551   -19.7947    13.4851 H          2 BB2          0.0000
    29 H11        2.4788   -19.3262    13.4787 H          2 BB2          0.0000
    30 H12        2.2870   -18.4679    11.9172 H          2 BB2          0.0000
    31 H13       -1.2856   -17.8664    13.7147 H          2 BB2          0.0000
@<TRIPOS>BOND
     1      1      2 2
     2      2      3 1
     3      2     10 am
     4      3      4 1
     5      4      5 1
     6      4     11 1
     7      4     12 1
     8      5      6 1
     9      5     10 1
    10      5     13 1
    11      6      7 1
    12      6     14 1
    13      6     15 1
    14      7      8 1
    15      8      9 1
    16      8     16 1
    17      8     17 1
    18      9     10 1
    19      9     18 1
    20      9     19 1
    21     20     21 2
    22     21     22 1
    23     22     23 1
    24     22     27 1
    25     22     28 1
    26     23     24 1
    27     23     29 1
    28     23     30 1
    29     24     25 1
    30     25     26 2
    31     25     27 am
    32     27     31 1
    33      7     21 am
@<TRIPOS>SUBSTRUCTURE
     1 BB1           7
     2 BB2          21
@<TRIPOS>MOLECULE
EN300-109827_i001_EN300-107901_i001_8_10_1
  45   48   2   0   0
SMALL
USER_CHARGES
@<TRIPOS>ATOM
     1 O1         0.8970   -11.8792     8.7068 O.2        1 BB1          0.0000
     2 C2         0.6071   -12.9455     8.2013 C.2        1 BB1          0.0000
     3 O3         0.0371   -13.0565     6.9925 O.3        1 BB1          0.0000
     4 C4        -0.0660   -14.4666     6.6318 C.3        1 BB1          0.0000
     5 C5         0.6043   -15.1981     7.8046 C.3        1 BB1          0.0000
     6 C6        -0.3598   -16.1996     8.4473 C.3        1 BB1          0.0000
     7 N7         0.1855   -16.6090     9.7499 N.am       1 BB1          0.0000
     8 C8         0.2078   -15.4829    10.6893 C.3        1 BB1          0.0000
     9 C9         1.1814   -14.4035    10.1901 C.3        1 BB1          0.0000
    10 N10        0.8292   -14.1186     8.7912 N.am       1 BB1          0.0000
    11 H11       -1.1111   -14.7633     6.5432 H          1 BB1          0.0000
    12 H12        0.4686   -14.6637     5.7025 H          1 BB1          0.0000
    13 H13        1.5336   -15.6786     7.4985 H          1 BB1          0.0000
    14 H14       -1.3334   -15.7305     8.5894 H          1 BB1          0.0000
    15 H15       -0.4627   -17.0730     7.8032 H          1 BB1          0.0000
    16 H16       -0.7929   -15.0586    10.7696 H          1 BB1          0.0000
    17 H17        0.5297   -15.8354    11.6692 H          1 BB1          0.0000
    18 H18        1.0774   -13.5011    10.7925 H          1 BB1          0.0000
    19 H19        2.2056   -14.7723    10.2442 H          1 BB1          0.0000
    20 C2        -0.4508   -18.2813    11.6483 C.2        2 BB2          0.0000
    21 O3        -0.3641   -17.3883    10.8228 O.2        2 BB2          0.0000
    22 C4         0.6894   -19.2221    11.8524 C.3        2 BB2          0.0000
    23 C5         0.9486   -19.7899    13.2377 C.3        2 BB2          0.0000
    24 C6         0.0485   -19.4384    14.3884 C.3        2 BB2          0.0000
    25 C7         0.7429   -18.3633    15.2994 C.3        2 BB2          0.0000
    26 C8        -0.0985   -17.0976    14.9053 C.3        2 BB2          0.0000
    27 C9         0.3608   -16.2423    13.7478 C.3        2 BB2          0.0000
    28 C10        1.5570   -16.4209    12.8795 C.3        2 BB2          0.0000
    29 C11        2.3926   -17.6264    13.2577 C.3        2 BB2          0.0000
    30 C12        1.9693   -18.9017    12.5724 C.3        2 BB2          0.0000
    31 H13        0.7720   -19.9627    11.0205 H          2 BB2          0.0000
    32 H14        1.2022   -20.8921    13.2511 H          2 BB2          0.0000
    33 H15       -0.9189   -19.0660    14.0700 H          2 BB2          0.0000
    34 H16       -0.1201   -20.3286    15.0144 H          2 BB2          0.0000
    35 H17        0.4591   -18.6121    16.3459 H          2 BB2          0.0000
    36 H18        1.7722   -18.3219    15.2311 H          2 BB2          0.0000
    37 H19       -1.1228   -17.4381    14.7250 H          2 BB2          0.0000
    38 H20       -0.1394   -16.4717    15.8100 H          2 BB2          0.0000
    39 H21       -0.5252   -16.0921    13.0890 H          2 BB2          0.0000
    40 H22        0.4577   -15.2068    14.1828 H          2 BB2          0.0000
    41 H23        1.2931   -16.4337    11.8075 H          2 BB2          0.0000
    42 H24        2.1994   -15.5043    12.9645 H          2 BB2          0.0000
    43 H25        3.4369   -17.3919    12.8256 H          2 BB2          0.0000
    44 H26        2.6906   -17.6638    14.2941 H          2 BB2          0.0000
    45 H27        2.8853   -19.4430    12.1324 H          2 BB2          0.0000
@<TRIPOS>BOND
     1      1      2 2
     2      2      3 1
     3      2     10 am
     4      3      4 1
     5      4      5 1
     6      4     11 1
     7      4     12 1
     8      5      6 1
     9      5     10 1
    10      5     13 1
    11      6      7 1
    12      6     14 1
    13      6     15 1
    14      7      8 1
    15      8      9 1
    16      8     16 1
    17      8     17 1
    18      9     10 1
    19      9     18 1
    20      9     19 1
    21     20     21 2
    22     20     22 1
    23     22     23 1
    24     22     30 1
    25     22     31 1
    26     23     24 1
    27     23     30 1
    28     23     32 1
    29     24     25 1
    30     24     33 1
    31     24     34 1
    32     25     26 1
    33     25     35 1
    34     25     36 1
    35     26     27 1
    36     26     37 1
    37     26     38 1
    38     27     28 1
    39     27     39 1
    40     27     40 1
    41     28     29 1
    42     28     41 1
    43     28     42 1
    44     29     30 1
    45     29     43 1
    46     29     44 1
    47     30     45 1
    48      7     20 am
@<TRIPOS>SUBSTRUCTURE
     1 BB1           7
     2 BB2          20
@<TRIPOS>MOLECULE
EN300-109827_i001_EN300-107901_i001_8_12_1
  45   48   2   0   0
SMALL
USER_CHARGES
@<TRIPOS>ATOM
     1 O1         0.8970   -11.8792     8.7068 O.2        1 BB1          0.0000
     2 C2         0.6071   -12.9455     8.2013 C.2        1 BB1          0.0000
     3 O3         0.0371   -13.0565     6.9925 O.3        1 BB1          0.0000
     4 C4        -0.0660   -14.4666     6.6318 C.3        1 BB1          0.0000
     5 C5         0.6043   -15.1981     7.8046 C.3        1 BB1          0.0000
     6 C6        -0.3598   -16.1996     8.4473 C.3        1 BB1          0.0000
     7 N7         0.1855   -16.6090     9.7499 N.am       1 BB1          0.0000
     8 C8         0.2078   -15.4829    10.6893 C.3        1 BB1          0.0000
     9 C9         1.1814   -14.4035    10.1901 C.3        1 BB1          0.0000
    10 N10        0.8292   -14.1186     8.7912 N.am       1 BB1          0.0000
    11 H11       -1.1111   -14.7633     6.5432 H          1 BB1          0.0000
    12 H12        0.4686   -14.6637     5.7025 H          1 BB1          0.0000
    13 H13        1.5336   -15.6786     7.4985 H          1 BB1          0.0000
    14 H14       -1.3334   -15.7305     8.5894 H          1 BB1          0.0000
    15 H15       -0.4627   -17.0730     7.8032 H          1 BB1          0.0000
    16 H16       -0.7929   -15.0586    10.7696 H          1 BB1          0.0000
    17 H17        0.5297   -15.8354    11.6692 H          1 BB1          0.0000
    18 H18        1.0774   -13.5011    10.7925 H          1 BB1          0.0000
    19 H19        2.2056   -14.7723    10.2442 H          1 BB1          0.0000
    20 O1        -0.1040   -16.8127    10.9419 O.2        2 BB2          0.0000
    21 C2        -0.6586   -17.0647    11.9980 C.2        2 BB2          0.0000
    22 C4        -0.5081   -16.1395    13.1591 C.3        2 BB2          0.0000
    23 C5         0.8714   -15.6148    13.5202 C.3        2 BB2          0.0000
    24 C6         2.0718   -15.9927    12.6993 C.3        2 BB2          0.0000
    25 C7         2.9006   -17.0996    13.4447 C.3        2 BB2          0.0000
    26 C8         2.5304   -18.3463    12.5651 C.3        2 BB2          0.0000
    27 C9         1.3193   -19.1710    12.9337 C.3        2 BB2          0.0000
    28 C10        0.3748   -18.9766    14.0680 C.3        2 BB2          0.0000
    29 C11        0.7279   -17.7895    14.9401 C.3        2 BB2          0.0000
    30 C12        0.1108   -16.4913    14.4829 C.3        2 BB2          0.0000
    31 H13       -1.3221   -15.3755    13.1908 H          2 BB2          0.0000
    32 H14        0.8986   -14.5156    13.7853 H          2 BB2          0.0000
    33 H15        1.8115   -16.3477    11.7082 H          2 BB2          0.0000
    34 H16        2.7334   -15.1198    12.5839 H          2 BB2          0.0000
    35 H17        3.9712   -16.8793    13.2373 H          2 BB2          0.0000
    36 H18        2.7591   -17.1473    14.4662 H          2 BB2          0.0000
    37 H19        2.4322   -17.9925    11.5342 H          2 BB2          0.0000
    38 H20        3.4173   -18.9981    12.5812 H          2 BB2          0.0000
    39 H21        0.7203   -19.2946    12.0023 H          2 BB2          0.0000
    40 H22        1.7166   -20.2196    13.0503 H          2 BB2          0.0000
    41 H23       -0.6753   -18.9302    13.7299 H          2 BB2          0.0000
    42 H24        0.3881   -19.9005    14.7055 H          2 BB2          0.0000
    43 H25        0.2169   -18.0196    15.9493 H          2 BB2          0.0000
    44 H26        1.7414   -17.7849    15.3103 H          2 BB2          0.0000
    45 H27       -0.3766   -15.9447    15.3713 H          2 BB2          0.0000
@<TRIPOS>BOND
     1      1      2 2
     2      2      3 1
     3      2     10 am
     4      3      4 1
     5      4      5 1
     6      4     11 1
     7      4     12 1
     8      5      6 1
     9      5     10 1
    10      5     13 1
    11      6      7 1
    12      6     14 1
    13      6     15 1
    14      7      8 1
    15      8      9 1
    16      8     16 1
    17      8     17 1
    18      9     10 1
    19      9     18 1
    20      9     19 1
    21     20     21 2
    22     21     22 1
    23     22     23 1
    24     22     30 1
    25     22     31 1
    26     23     24 1
    27     23     30 1
    28     23     32 1
    29     24     25 1
    30     24     33 1
    31     24     34 1
    32     25     26 1
    33     25     35 1
    34     25     36 1
    35     26     27 1
    36     26     37 1
    37     26     38 1
    38     27     28 1
    39     27     39 1
    40     27     40 1
    41     28     29 1
    42     28     41 1
    43     28     42 1
    44     29     30 1
    45     29     43 1
    46     29     44 1
    47     30     45 1
    48      7     21 am
@<TRIPOS>SUBSTRUCTURE
     1 BB1           7
     2 BB2          21
@<TRIPOS>MOLECULE
EN300-109827_i001_EN300-223795_i001_8_17_1
  32   34   2   0   0
SMALL
USER_CHARGES
@<TRIPOS>ATOM
     1 O1         0.8970   -11.8792     8.7068 O.2        1 BB1          0.0000
     2 C2         0.6071   -12.9455     8.2013 C.2        1 BB1          0.0000
     3 O3         0.0371   -13.0565     6.9925 O.3        1 BB1          0.0000
     4 C4        -0.0660   -14.4666     6.6318 C.3        1 BB1          0.0000
     5 C5         0.6043   -15.1981     7.8046 C.3        1 BB1          0.0000
     6 C6        -0.3598   -16.1996     8.4473 C.3        1 BB1          0.0000
     7 N7         0.1855   -16.6090     9.7499 N.am       1 BB1          0.0000
     8 C8         0.2078   -15.4829    10.6893 C.3        1 BB1          0.0000
     9 C9         1.1814   -14.4035    10.1901 C.3        1 BB1          0.0000
    10 N10        0.8292   -14.1186     8.7912 N.am       1 BB1          0.0000
    11 H11       -1.1111   -14.7633     6.5432 H          1 BB1          0.0000
    12 H12        0.4686   -14.6637     5.7025 H          1 BB1          0.0000
    13 H13        1.5336   -15.6786     7.4985 H          1 BB1          0.0000
    14 H14       -1.3334   -15.7305     8.5894 H          1 BB1          0.0000
    15 H15       -0.4627   -17.0730     7.8032 H          1 BB1          0.0000
    16 H16       -0.7929   -15.0586    10.7696 H          1 BB1          0.0000
    17 H17        0.5297   -15.8354    11.6692 H          1 BB1          0.0000
    18 H18        1.0774   -13.5011    10.7925 H          1 BB1          0.0000
    19 H19        2.2056   -14.7723    10.2442 H          1 BB1          0.0000
    20 C2        -0.2014   -18.5411    11.7455 C.2        2 BB2          0.0000
    21 O3        -1.2998   -18.0076    11.6611 O.2        2 BB2          0.0000
    22 C4         0.6463   -18.2937    12.9172 C.2        2 BB2          0.0000
    23 C5         1.0088   -16.9713    13.3749 C.2        2 BB2          0.0000
    24 C6         1.7823   -16.9874    14.4527 C.2        2 BB2          0.0000
    25 S7         2.1038   -18.6365    14.9592 S.3        2 BB2          0.0000
    26 C8         1.1692   -19.2867    13.6908 C.2        2 BB2          0.0000
    27 C9         0.9567   -20.7594    13.4521 C.3        2 BB2          0.0000
    28 F10       -0.4059   -21.0575    13.5603 F          2 BB2          0.0000
    29 F11        1.4070   -21.0939    12.1705 F          2 BB2          0.0000
    30 F12        1.6718   -21.4940    14.4041 F          2 BB2          0.0000
    31 H13        0.6837   -16.0633    12.8890 H          2 BB2          0.0000
    32 H14        2.1618   -16.1069    14.9497 H          2 BB2          0.0000
@<TRIPOS>BOND
     1      1      2 2
     2      2      3 1
     3      2     10 am
     4      3      4 1
     5      4      5 1
     6      4     11 1
     7      4     12 1
     8      5      6 1
     9      5     10 1
    10      5     13 1
    11      6      7 1
    12      6     14 1
    13      6     15 1
    14      7      8 1
    15      8      9 1
    16      8     16 1
    17      8     17 1
    18      9     10 1
    19      9     18 1
    20      9     19 1
    21     20     21 2
    22     20     22 1
    23     22     23 1
    24     22     26 2
    25     23     24 2
    26     23     31 1
    27     24     25 1
    28     24     32 1
    29     25     26 1
    30     26     27 1
    31     27     28 1
    32     27     29 1
    33     27     30 1
    34      7     20 am
@<TRIPOS>SUBSTRUCTURE
     1 BB1           7
     2 BB2          20
@<TRIPOS>MOLECULE
EN300-109827_i001_EN300-15782_i003_8_6_1
  53   55   2   0   0
SMALL
USER_CHARGES
@<TRIPOS>ATOM
     1 O1         0.8970   -11.8792     8.7068 O.2        1 BB1          0.0000
     2 C2         0.6071   -12.9455     8.2013 C.2        1 BB1          0.0000
     3 O3         0.0371   -13.0565     6.9925 O.3        1 BB1          0.0000
     4 C4        -0.0660   -14.4666     6.6318 C.3        1 BB1          0.0000
     5 C5         0.6043   -15.1981     7.8046 C.3        1 BB1          0.0000
     6 C6        -0.3598   -16.1996     8.4473 C.3        1 BB1          0.0000
     7 N7         0.1855   -16.6090     9.7499 N.am       1 BB1          0.0000
     8 C8         0.2078   -15.4829    10.6893 C.3        1 BB1          0.0000
     9 C9         1.1814   -14.4035    10.1901 C.3        1 BB1          0.0000
    10 N10        0.8292   -14.1186     8.7912 N.am       1 BB1          0.0000
    11 H11       -1.1111   -14.7633     6.5432 H          1 BB1          0.0000
    12 H12        0.4686   -14.6637     5.7025 H          1 BB1          0.0000
    13 H13        1.5336   -15.6786     7.4985 H          1 BB1          0.0000
    14 H14       -1.3334   -15.7305     8.5894 H          1 BB1          0.0000
    15 H15       -0.4627   -17.0730     7.8032 H          1 BB1          0.0000
    16 H16       -0.7929   -15.0586    10.7696 H          1 BB1          0.0000
    17 H17        0.5297   -15.8354    11.6692 H          1 BB1          0.0000
    18 H18        1.0774   -13.5011    10.7925 H          1 BB1          0.0000
    19 H19        2.2056   -14.7723    10.2442 H          1 BB1          0.0000
    20 C1         2.0709   -17.5199    14.3312 C.3        2 BB2          0.0000
    21 C2         2.1075   -16.5245    13.1698 C.3        2 BB2          0.0000
    22 O3         3.2140   -16.8273    12.3176 O.3        2 BB2          0.0000
    23 C4         0.8063   -16.6246    12.3711 C.3        2 BB2          0.0000
    24 N5         0.9157   -17.7103    11.3936 N.pl3      2 BB2          0.0000
    25 S6        -0.3271   -18.7896    11.2125 S.o2       2 BB2          0.0000
    26 O7        -1.4574   -18.2108    11.8500 O.2        2 BB2          0.0000
    27 O8        -0.3215   -19.1825     9.8469 O.2        2 BB2          0.0000
    28 C9         0.0891   -20.2255    12.1449 C.ar       2 BB2          0.0000
    29 C10        1.2108   -20.2238    12.9525 C.ar       2 BB2          0.0000
    30 C11        1.5374   -21.3506    13.6842 C.ar       2 BB2          0.0000
    31 C12        0.7421   -22.4784    13.6083 C.ar       2 BB2          0.0000
    32 C13        1.0985   -23.7067    14.4054 C.3        2 BB2          0.0000
    33 C14       -0.3806   -22.4796    12.8015 C.ar       2 BB2          0.0000
    34 C15       -1.2480   -23.7091    12.7192 C.3        2 BB2          0.0000
    35 C16       -0.7093   -21.3519    12.0731 C.ar       2 BB2          0.0000
    36 C17        0.5573   -15.3240    11.6517 C.2        2 BB2          0.0000
    37 O18        1.3334   -14.9451    10.7910 O.2        2 BB2          0.0000
    38 H20        2.9979   -17.4487    14.9001 H          2 BB2          0.0000
    39 H21        1.2269   -17.2891    14.9811 H          2 BB2          0.0000
    40 H22        1.9618   -18.5313    13.9395 H          2 BB2          0.0000
    41 H23        2.2166   -15.5131    13.5614 H          2 BB2          0.0000
    42 H24       -0.0217   -16.8287    13.0498 H          2 BB2          0.0000
    43 H25        1.8323   -19.3425    13.0118 H          2 BB2          0.0000
    44 H26        2.4143   -21.3496    14.3147 H          2 BB2          0.0000
    45 H27        0.6192   -23.6571    15.3831 H          2 BB2          0.0000
    46 H28        0.7542   -24.5955    13.8767 H          2 BB2          0.0000
    47 H29        2.1799   -23.7560    14.5330 H          2 BB2          0.0000
    48 H30       -2.0221   -23.6597    13.4850 H          2 BB2          0.0000
    49 H31       -1.7135   -23.7602    11.7349 H          2 BB2          0.0000
    50 H32       -0.6359   -24.5969    12.8782 H          2 BB2          0.0000
    51 H33       -1.5864   -21.3528    11.4429 H          2 BB2          0.0000
    52 H34        2.9957   -16.8297    11.3756 H          2 BB2          0.0000
    53 H35        1.7160   -17.7969    10.8524 H          2 BB2          0.0000
@<TRIPOS>BOND
     1      1      2 2
     2      2      3 1
     3      2     10 am
     4      3      4 1
     5      4      5 1
     6      4     11 1
     7      4     12 1
     8      5      6 1
     9      5     10 1
    10      5     13 1
    11      6      7 1
    12      6     14 1
    13      6     15 1
    14      7      8 1
    15      8      9 1
    16      8     16 1
    17      8     17 1
    18      9     10 1
    19      9     18 1
    20      9     19 1
    21     20     21 1
    22     20     38 1
    23     20     39 1
    24     20     40 1
    25     21     22 1
    26     21     23 1
    27     21     41 1
    28     22     52 1
    29     23     24 1
    30     23     36 1
    31     23     42 1
    32     24     25 1
    33     24     53 1
    34     25     26 2
    35     25     27 2
    36     25     28 1
    37     28     29 ar
    38     28     35 ar
    39     29     30 ar
    40     29     43 1
    41     30     31 ar
    42     30     44 1
    43     31     32 1
    44     31     33 ar
    45     32     45 1
    46     32     46 1
    47     32     47 1
    48     33     34 1
    49     33     35 ar
    50     34     48 1
    51     34     49 1
    52     34     50 1
    53     35     51 1
    54     36     37 2
    55      7     36 am
@<TRIPOS>SUBSTRUCTURE
     1 BB1           7
     2 BB2          36
@<TRIPOS>MOLECULE
EN300-109827_i001_EN300-1198129_i001_9_11_1
  43   45   2   0   0
SMALL
USER_CHARGES
@<TRIPOS>ATOM
     1 O1        -1.1176   -16.2548    14.0017 O.2        1 BB1          0.0000
     2 C2         0.0848   -16.3261    13.8417 C.2        1 BB1          0.0000
     3 O3         0.9510   -16.5218    14.8466 O.3        1 BB1          0.0000
     4 C4         2.2964   -16.6798    14.3043 C.3        1 BB1          0.0000
     5 C5         2.0918   -16.6143    12.7832 C.3        1 BB1          0.0000
     6 C6         2.9271   -15.4880    12.1672 C.3        1 BB1          0.0000
     7 N7         2.4441   -15.2364    10.8014 N.am       1 BB1          0.0000
     8 C8         1.0789   -14.7008    10.8155 C.3        1 BB1          0.0000
     9 C9         0.1090   -15.7533    11.3755 C.3        1 BB1          0.0000
    10 N10        0.6712   -16.2229    12.6505 N.am       1 BB1          0.0000
    11 H11        2.9413   -15.8673    14.6388 H          1 BB1          0.0000
    12 H12        2.7141   -17.6444    14.5928 H          1 BB1          0.0000
    13 H13        2.3026   -17.5728    12.3090 H          1 BB1          0.0000
    14 H14        2.8193   -14.5834    12.7657 H          1 BB1          0.0000
    15 H15        3.9752   -15.7855    12.1354 H          1 BB1          0.0000
    16 H16        1.0463   -13.8091    11.4414 H          1 BB1          0.0000
    17 H17        0.7822   -14.4394     9.7997 H          1 BB1          0.0000
    18 H18       -0.8707   -15.3055    11.5418 H          1 BB1          0.0000
    19 H19        0.0243   -16.5886    10.6804 H          1 BB1          0.0000
    20 O1         0.0143   -16.1877    10.6382 O.2        2 BB2          0.0000
    21 C2        -0.1070   -15.9082     9.4535 C.2        2 BB2          0.0000
    22 C4         0.0888   -14.5199     9.0003 C.ar       2 BB2          0.0000
    23 C5        -0.2536   -13.4529     9.8358 C.ar       2 BB2          0.0000
    24 C6        -0.0676   -12.1568     9.4051 C.ar       2 BB2          0.0000
    25 C7         0.4567   -11.9083     8.1479 C.ar       2 BB2          0.0000
    26 C8         0.7986   -12.9562     7.3134 C.ar       2 BB2          0.0000
    27 C9         0.6244   -14.2623     7.7324 C.ar       2 BB2          0.0000
    28 F10        0.9586   -15.2862     6.9169 F          2 BB2          0.0000
    29 S11       -0.4990   -10.8115    10.4579 S.o2       2 BB2          0.0000
    30 O12       -0.9885   -11.4332    11.6382 O.2        2 BB2          0.0000
    31 O13        0.6677   -10.0009    10.4867 O.2        2 BB2          0.0000
    32 C14       -1.8418    -9.9635     9.5814 C.3        2 BB2          0.0000
    33 C15       -3.0735    -9.8878    10.4860 C.3        2 BB2          0.0000
    34 C16       -4.1017   -10.8192     9.9938 C.1        2 BB2          0.0000
    35 C17       -4.9218   -11.5619     9.6012 C.1        2 BB2          0.0000
    36 H18       -0.6632   -13.6436    10.8167 H          2 BB2          0.0000
    37 H19        0.5988   -10.8901     7.8170 H          2 BB2          0.0000
    38 H20        1.2070   -12.7542     6.3343 H          2 BB2          0.0000
    39 H21       -1.5232    -8.9553     9.3166 H          2 BB2          0.0000
    40 H22       -2.0901   -10.5158     8.6751 H          2 BB2          0.0000
    41 H23       -2.7940   -10.1601    11.5037 H          2 BB2          0.0000
    42 H24       -3.4691    -8.8722    10.4771 H          2 BB2          0.0000
    43 H25       -5.6553   -12.2263     9.2502 H          2 BB2          0.0000
@<TRIPOS>BOND
     1      1      2 2
     2      2      3 1
     3      2     10 am
     4      3      4 1
     5      4      5 1
     6      4     11 1
     7      4     12 1
     8      5      6 1
     9      5     10 1
    10      5     13 1
    11      6      7 1
    12      6     14 1
    13      6     15 1
    14      7      8 1
    15      8      9 1
    16      8     16 1
    17      8     17 1
    18      9     10 1
    19      9     18 1
    20      9     19 1
    21     20     21 2
    22     21     22 1
    23     22     23 ar
    24     22     27 ar
    25     23     24 ar
    26     23     36 1
    27     24     25 ar
    28     24     29 1
    29     25     26 ar
    30     25     37 1
    31     26     27 ar
    32     26     38 1
    33     27     28 1
    34     29     30 2
    35     29     31 2
    36     29     32 1
    37     32     33 1
    38     32     39 1
    39     32     40 1
    40     33     34 1
    41     33     41 1
    42     33     42 1
    43     34     35 3
    44     35     43 1
    45      7     21 am
@<TRIPOS>SUBSTRUCTURE
     1 BB1           7
     2 BB2          21
@<TRIPOS>MOLECULE
EN300-109827_i001_EN300-306118_i001_9_13_1
  41   44   2   0   0
SMALL
USER_CHARGES
@<TRIPOS>ATOM
     1 O1        -1.1176   -16.2548    14.0017 O.2        1 BB1          0.0000
     2 C2         0.0848   -16.3261    13.8417 C.2        1 BB1          0.0000
     3 O3         0.9510   -16.5218    14.8466 O.3        1 BB1          0.0000
     4 C4         2.2964   -16.6798    14.3043 C.3        1 BB1          0.0000
     5 C5         2.0918   -16.6143    12.7832 C.3        1 BB1          0.0000
     6 C6         2.9271   -15.4880    12.1672 C.3        1 BB1          0.0000
     7 N7         2.4441   -15.2364    10.8014 N.am       1 BB1          0.0000
     8 C8         1.0789   -14.7008    10.8155 C.3        1 BB1          0.0000
     9 C9         0.1090   -15.7533    11.3755 C.3        1 BB1          0.0000
    10 N10        0.6712   -16.2229    12.6505 N.am       1 BB1          0.0000
    11 H11        2.9413   -15.8673    14.6388 H          1 BB1          0.0000
    12 H12        2.7141   -17.6444    14.5928 H          1 BB1          0.0000
    13 H13        2.3026   -17.5728    12.3090 H          1 BB1          0.0000
    14 H14        2.8193   -14.5834    12.7657 H          1 BB1          0.0000
    15 H15        3.9752   -15.7855    12.1354 H          1 BB1          0.0000
    16 H16        1.0463   -13.8091    11.4414 H          1 BB1          0.0000
    17 H17        0.7822   -14.4394     9.7997 H          1 BB1          0.0000
    18 H18       -0.8707   -15.3055    11.5418 H          1 BB1          0.0000
    19 H19        0.0243   -16.5886    10.6804 H          1 BB1          0.0000
    20 O1        -0.3061   -15.6175    10.8075 O.2        2 BB2          0.0000
    21 C2        -0.2542   -14.4147    11.0220 C.2        2 BB2          0.0000
    22 C4        -0.0888   -13.4717     9.8995 C.ar       2 BB2          0.0000
    23 C5         0.7755   -13.7793     8.8460 C.ar       2 BB2          0.0000
    24 C6         0.9252   -12.8927     7.7999 C.ar       2 BB2          0.0000
    25 C7         0.2221   -11.7011     7.7926 C.ar       2 BB2          0.0000
    26 C8        -0.6359   -11.3897     8.8329 C.ar       2 BB2          0.0000
    27 C9        -0.8003   -12.2692     9.8823 C.ar       2 BB2          0.0000
    28 C10       -1.7356   -11.9285    11.0138 C.3        2 BB2          0.0000
    29 N11       -2.8881   -11.1914    10.4898 N.pl3      2 BB2          0.0000
    30 C12       -3.9824   -11.7380     9.9113 C.2        2 BB2          0.0000
    31 C13       -4.7891   -10.7036     9.5780 C.2        2 BB2          0.0000
    32 N14       -4.1572    -9.5894     9.9637 N.2        2 BB2          0.0000
    33 N15       -3.0361    -9.9129    10.5053 N.2        2 BB2          0.0000
    34 H16        1.3254   -14.7088     8.8509 H          2 BB2          0.0000
    35 H17        1.5931   -13.1291     6.9848 H          2 BB2          0.0000
    36 H18        0.3438   -11.0104     6.9712 H          2 BB2          0.0000
    37 H19       -1.1813   -10.4576     8.8207 H          2 BB2          0.0000
    38 H20       -2.0780   -12.8466    11.4912 H          2 BB2          0.0000
    39 H21       -1.2121   -11.3124    11.7448 H          2 BB2          0.0000
    40 H22       -4.1735   -12.7883     9.7481 H          2 BB2          0.0000
    41 H23       -5.7532   -10.7654     9.0952 H          2 BB2          0.0000
@<TRIPOS>BOND
     1      1      2 2
     2      2      3 1
     3      2     10 am
     4      3      4 1
     5      4      5 1
     6      4     11 1
     7      4     12 1
     8      5      6 1
     9      5     10 1
    10      5     13 1
    11      6      7 1
    12      6     14 1
    13      6     15 1
    14      7      8 1
    15      8      9 1
    16      8     16 1
    17      8     17 1
    18      9     10 1
    19      9     18 1
    20      9     19 1
    21     20     21 2
    22     21     22 1
    23     22     23 ar
    24     22     27 ar
    25     23     24 ar
    26     23     34 1
    27     24     25 ar
    28     24     35 1
    29     25     26 ar
    30     25     36 1
    31     26     27 ar
    32     26     37 1
    33     27     28 1
    34     28     29 1
    35     28     38 1
    36     28     39 1
    37     29     30 1
    38     29     33 1
    39     30     31 2
    40     30     40 1
    41     31     32 1
    42     31     41 1
    43     32     33 2
    44      7     21 am
@<TRIPOS>SUBSTRUCTURE
     1 BB1           7
     2 BB2          21
@<TRIPOS>MOLECULE
EN300-109827_i001_EN300-306118_i001_9_14_1
  41   44   2   0   0
SMALL
USER_CHARGES
@<TRIPOS>ATOM
     1 O1        -1.1176   -16.2548    14.0017 O.2        1 BB1          0.0000
     2 C2         0.0848   -16.3261    13.8417 C.2        1 BB1          0.0000
     3 O3         0.9510   -16.5218    14.8466 O.3        1 BB1          0.0000
     4 C4         2.2964   -16.6798    14.3043 C.3        1 BB1          0.0000
     5 C5         2.0918   -16.6143    12.7832 C.3        1 BB1          0.0000
     6 C6         2.9271   -15.4880    12.1672 C.3        1 BB1          0.0000
     7 N7         2.4441   -15.2364    10.8014 N.am       1 BB1          0.0000
     8 C8         1.0789   -14.7008    10.8155 C.3        1 BB1          0.0000
     9 C9         0.1090   -15.7533    11.3755 C.3        1 BB1          0.0000
    10 N10        0.6712   -16.2229    12.6505 N.am       1 BB1          0.0000
    11 H11        2.9413   -15.8673    14.6388 H          1 BB1          0.0000
    12 H12        2.7141   -17.6444    14.5928 H          1 BB1          0.0000
    13 H13        2.3026   -17.5728    12.3090 H          1 BB1          0.0000
    14 H14        2.8193   -14.5834    12.7657 H          1 BB1          0.0000
    15 H15        3.9752   -15.7855    12.1354 H          1 BB1          0.0000
    16 H16        1.0463   -13.8091    11.4414 H          1 BB1          0.0000
    17 H17        0.7822   -14.4394     9.7997 H          1 BB1          0.0000
    18 H18       -0.8707   -15.3055    11.5418 H          1 BB1          0.0000
    19 H19        0.0243   -16.5886    10.6804 H          1 BB1          0.0000
    20 O1         0.4427   -14.7325    10.7035 O.2        2 BB2          0.0000
    21 C2         0.2503   -14.8942     9.5067 C.2        2 BB2          0.0000
    22 C4         0.4361   -13.7687     8.5711 C.ar       2 BB2          0.0000
    23 C5         1.0712   -13.9736     7.3438 C.ar       2 BB2          0.0000
    24 C6         1.2414   -12.9166     6.4741 C.ar       2 BB2          0.0000
    25 C7         0.7852   -11.6556     6.8150 C.ar       2 BB2          0.0000
    26 C8         0.1551   -11.4451     8.0291 C.ar       2 BB2          0.0000
    27 C9        -0.0276   -12.4937     8.9058 C.ar       2 BB2          0.0000
    28 C10       -0.7145   -12.2625    10.2272 C.3        2 BB2          0.0000
    29 N11       -1.8406   -11.3447    10.0382 N.pl3      2 BB2          0.0000
    30 C12       -3.1396   -11.6193    10.2990 C.2        2 BB2          0.0000
    31 C13       -3.8324   -10.5002     9.9835 C.2        2 BB2          0.0000
    32 N14       -2.9351    -9.6073     9.5507 N.2        2 BB2          0.0000
    33 N15       -1.7637   -10.1366     9.6005 N.2        2 BB2          0.0000
    34 H16        1.4284   -14.9573     7.0769 H          2 BB2          0.0000
    35 H17        1.7323   -13.0735     5.5250 H          2 BB2          0.0000
    36 H18        0.9219   -10.8314     6.1303 H          2 BB2          0.0000
    37 H19       -0.1982   -10.4580     8.2887 H          2 BB2          0.0000
    38 H20       -1.0811   -13.2120    10.6171 H          2 BB2          0.0000
    39 H21       -0.0068   -11.8286    10.9335 H          2 BB2          0.0000
    40 H22       -3.5426   -12.5453    10.6817 H          2 BB2          0.0000
    41 H23       -4.8996   -10.3563    10.0648 H          2 BB2          0.0000
@<TRIPOS>BOND
     1      1      2 2
     2      2      3 1
     3      2     10 am
     4      3      4 1
     5      4      5 1
     6      4     11 1
     7      4     12 1
     8      5      6 1
     9      5     10 1
    10      5     13 1
    11      6      7 1
    12      6     14 1
    13      6     15 1
    14      7      8 1
    15      8      9 1
    16      8     16 1
    17      8     17 1
    18      9     10 1
    19      9     18 1
    20      9     19 1
    21     20     21 2
    22     21     22 1
    23     22     23 ar
    24     22     27 ar
    25     23     24 ar
    26     23     34 1
    27     24     25 ar
    28     24     35 1
    29     25     26 ar
    30     25     36 1
    31     26     27 ar
    32     26     37 1
    33     27     28 1
    34     28     29 1
    35     28     38 1
    36     28     39 1
    37     29     30 1
    38     29     33 1
    39     30     31 2
    40     30     40 1
    41     31     32 1
    42     31     41 1
    43     32     33 2
    44      7     21 am
@<TRIPOS>SUBSTRUCTURE
     1 BB1           7
     2 BB2          21
@<TRIPOS>MOLECULE
EN300-109827_i001_EN300-306118_i001_9_17_1
  41   44   2   0   0
SMALL
USER_CHARGES
@<TRIPOS>ATOM
     1 O1        -1.1176   -16.2548    14.0017 O.2        1 BB1          0.0000
     2 C2         0.0848   -16.3261    13.8417 C.2        1 BB1          0.0000
     3 O3         0.9510   -16.5218    14.8466 O.3        1 BB1          0.0000
     4 C4         2.2964   -16.6798    14.3043 C.3        1 BB1          0.0000
     5 C5         2.0918   -16.6143    12.7832 C.3        1 BB1          0.0000
     6 C6         2.9271   -15.4880    12.1672 C.3        1 BB1          0.0000
     7 N7         2.4441   -15.2364    10.8014 N.am       1 BB1          0.0000
     8 C8         1.0789   -14.7008    10.8155 C.3        1 BB1          0.0000
     9 C9         0.1090   -15.7533    11.3755 C.3        1 BB1          0.0000
    10 N10        0.6712   -16.2229    12.6505 N.am       1 BB1          0.0000
    11 H11        2.9413   -15.8673    14.6388 H          1 BB1          0.0000
    12 H12        2.7141   -17.6444    14.5928 H          1 BB1          0.0000
    13 H13        2.3026   -17.5728    12.3090 H          1 BB1          0.0000
    14 H14        2.8193   -14.5834    12.7657 H          1 BB1          0.0000
    15 H15        3.9752   -15.7855    12.1354 H          1 BB1          0.0000
    16 H16        1.0463   -13.8091    11.4414 H          1 BB1          0.0000
    17 H17        0.7822   -14.4394     9.7997 H          1 BB1          0.0000
    18 H18       -0.8707   -15.3055    11.5418 H          1 BB1          0.0000
    19 H19        0.0243   -16.5886    10.6804 H          1 BB1          0.0000
    20 C2         0.1377   -15.1500     9.6193 C.2        2 BB2          0.0000
    21 O3         0.2453   -15.0645    10.8345 O.2        2 BB2          0.0000
    22 C4         0.3036   -13.9496     8.7778 C.ar       2 BB2          0.0000
    23 C5         0.9945   -14.0317     7.5664 C.ar       2 BB2          0.0000
    24 C6         1.1457   -12.9052     6.7847 C.ar       2 BB2          0.0000
    25 C7         0.6154   -11.6960     7.1982 C.ar       2 BB2          0.0000
    26 C8        -0.0703   -11.6071     8.3972 C.ar       2 BB2          0.0000
    27 C9        -0.2347   -12.7263     9.1858 C.ar       2 BB2          0.0000
    28 C10       -0.9821   -12.6276    10.4908 C.3        2 BB2          0.0000
    29 N11       -2.0934   -11.6839    10.3468 N.pl3      2 BB2          0.0000
    30 C12       -1.9923   -10.3346    10.3447 C.2        2 BB2          0.0000
    31 C13       -3.2511    -9.8624    10.1881 C.2        2 BB2          0.0000
    32 N14       -4.0501   -10.9319    10.1033 N.2        2 BB2          0.0000
    33 N15       -3.3329   -11.9958    10.1953 N.2        2 BB2          0.0000
    34 H16        1.4095   -14.9748     7.2428 H          2 BB2          0.0000
    35 H17        1.6796   -12.9671     5.8480 H          2 BB2          0.0000
    36 H18        0.7375   -10.8170     6.5825 H          2 BB2          0.0000
    37 H19       -0.4813   -10.6599     8.7138 H          2 BB2          0.0000
    38 H20       -1.3716   -13.6090    10.7615 H          2 BB2          0.0000
    39 H21       -0.3064   -12.2770    11.2708 H          2 BB2          0.0000
    40 H22       -1.0890    -9.7516    10.4475 H          2 BB2          0.0000
    41 H23       -3.5514    -8.8261    10.1412 H          2 BB2          0.0000
@<TRIPOS>BOND
     1      1      2 2
     2      2      3 1
     3      2     10 am
     4      3      4 1
     5      4      5 1
     6      4     11 1
     7      4     12 1
     8      5      6 1
     9      5     10 1
    10      5     13 1
    11      6      7 1
    12      6     14 1
    13      6     15 1
    14      7      8 1
    15      8      9 1
    16      8     16 1
    17      8     17 1
    18      9     10 1
    19      9     18 1
    20      9     19 1
    21     20     21 2
    22     20     22 1
    23     22     23 ar
    24     22     27 ar
    25     23     24 ar
    26     23     34 1
    27     24     25 ar
    28     24     35 1
    29     25     26 ar
    30     25     36 1
    31     26     27 ar
    32     26     37 1
    33     27     28 1
    34     28     29 1
    35     28     38 1
    36     28     39 1
    37     29     30 1
    38     29     33 1
    39     30     31 2
    40     30     40 1
    41     31     32 1
    42     31     41 1
    43     32     33 2
    44      7     20 am
@<TRIPOS>SUBSTRUCTURE
     1 BB1           7
     2 BB2          20
@<TRIPOS>MOLECULE
EN300-110418_i004_EN300-107901_i001_1_14_1
  59   62   2   0   0
SMALL
USER_CHARGES
@<TRIPOS>ATOM
     1 C1        -0.3987   -16.6014    10.0184 C.3        1 BB1          0.0000
     2 N2         0.6365   -15.7870     9.3678 N.4        1 BB1          1.0000
     3 C3         0.1031   -15.2132     8.1140 C.3        1 BB1          0.0000
     4 C4         0.7425   -13.8053     8.0198 C.3        1 BB1          0.0000
     5 C5         0.7485   -13.3639     9.5071 C.3        1 BB1          0.0000
     6 C6         1.0311   -14.6812    10.2596 C.3        1 BB1          0.0000
     7 C7         0.2194   -14.7312    11.5284 C.2        1 BB1          0.0000
     8 O8        -0.8710   -14.2019    11.5719 O.2        1 BB1          0.0000
     9 N9         0.7051   -15.3640    12.6147 N.am       1 BB1          0.0000
    10 C10       -0.1111   -15.5139    13.8290 C.3        1 BB1          0.0000
    11 C11       -0.0993   -16.9889    14.2443 C.3        1 BB1          0.0000
    12 N12        1.2904   -17.4481    14.3694 N.am       1 BB1          0.0000
    13 C13        1.9917   -17.3817    13.0803 C.3        1 BB1          0.0000
    14 C14        2.0634   -15.9281    12.6151 C.3        1 BB1          0.0000
    15 H15       -0.6056   -17.4809     9.4086 H          1 BB1          0.0000
    16 H16       -0.0491   -16.9153    11.0019 H          1 BB1          0.0000
    17 H17       -1.3092   -16.0123    10.1273 H          1 BB1          0.0000
    18 H18        0.4007   -15.8229     7.2608 H          1 BB1          0.0000
    19 H19       -0.9829   -15.1342     8.1646 H          1 BB1          0.0000
    20 H20        1.7569   -13.8629     7.6255 H          1 BB1          0.0000
    21 H21        0.1279   -13.1370     7.4167 H          1 BB1          0.0000
    22 H22        1.5405   -12.6378     9.6903 H          1 BB1          0.0000
    23 H23       -0.2219   -12.9576     9.7925 H          1 BB1          0.0000
    24 H24        2.0933   -14.7543    10.4932 H          1 BB1          0.0000
    25 H25        0.3083   -14.9048    14.6296 H          1 BB1          0.0000
    26 H26       -1.1343   -15.1996    13.6234 H          1 BB1          0.0000
    27 H27       -0.6072   -17.1012    15.2021 H          1 BB1          0.0000
    28 H28       -0.6122   -17.5837    13.4884 H          1 BB1          0.0000
    29 H29        3.0003   -17.7788    13.1942 H          1 BB1          0.0000
    30 H30        1.4497   -17.9711    12.3407 H          1 BB1          0.0000
    31 H31        2.4796   -15.8859    11.6086 H          1 BB1          0.0000
    32 H32        2.6910   -15.3557    13.2982 H          1 BB1          0.0000
    33 H34        1.4416   -16.3598     9.1636 H          1 BB1          0.0000
    34 C2        -0.2112   -19.3730    13.6728 C.2        2 BB2          0.0000
    35 O3        -0.2933   -19.2397    14.8820 O.2        2 BB2          0.0000
    36 C4         0.9797   -20.0451    13.0754 C.3        2 BB2          0.0000
    37 C5         0.7789   -21.1029    12.0033 C.3        2 BB2          0.0000
    38 C6        -0.6011   -21.4491    11.5202 C.3        2 BB2          0.0000
    39 C7        -1.0687   -22.8022    12.1671 C.3        2 BB2          0.0000
    40 C8        -2.1119   -22.2542    13.2046 C.3        2 BB2          0.0000
    41 C9        -1.6431   -21.8882    14.5934 C.3        2 BB2          0.0000
    42 C10       -0.2703   -21.9777    15.1628 C.3        2 BB2          0.0000
    43 C11        0.7467   -22.5237    14.1819 C.3        2 BB2          0.0000
    44 C12        1.4004   -21.4658    13.3283 C.3        2 BB2          0.0000
    45 H13        1.8063   -19.3226    12.8705 H          2 BB2          0.0000
    46 H14        1.4998   -21.0308    11.1347 H          2 BB2          0.0000
    47 H15       -1.3314   -20.6776    11.7382 H          2 BB2          0.0000
    48 H16       -0.5859   -21.6033    10.4298 H          2 BB2          0.0000
    49 H17       -1.6564   -23.3338    11.3862 H          2 BB2          0.0000
    50 H18       -0.3114   -23.4212    12.4973 H          2 BB2          0.0000
    51 H19       -2.5982   -21.3894    12.7428 H          2 BB2          0.0000
    52 H20       -2.8869   -23.0314    13.2890 H          2 BB2          0.0000
    53 H21       -2.0404   -20.8695    14.8077 H          2 BB2          0.0000
    54 H22       -2.2938   -22.4998    15.2815 H          2 BB2          0.0000
    55 H23        0.0623   -21.0182    15.5960 H          2 BB2          0.0000
    56 H24       -0.2987   -22.6555    16.0572 H          2 BB2          0.0000
    57 H25        1.5953   -22.9279    14.8520 H          2 BB2          0.0000
    58 H26        0.4807   -23.4678    13.7322 H          2 BB2          0.0000
    59 H27        2.5427   -21.6098    13.3168 H          2 BB2          0.0000
@<TRIPOS>BOND
     1      1      2 1
     2      1     15 1
     3      1     16 1
     4      1     17 1
     5      2      3 1
     6      2      6 1
     7      2     33 1
     8      3      4 1
     9      3     18 1
    10      3     19 1
    11      4      5 1
    12      4     20 1
    13      4     21 1
    14      5      6 1
    15      5     22 1
    16      5     23 1
    17      6      7 1
    18      6     24 1
    19      7      8 2
    20      7      9 am
    21      9     10 1
    22      9     14 1
    23     10     11 1
    24     10     25 1
    25     10     26 1
    26     11     12 1
    27     11     27 1
    28     11     28 1
    29     12     13 1
    30     13     14 1
    31     13     29 1
    32     13     30 1
    33     14     31 1
    34     14     32 1
    35     34     35 2
    36     34     36 1
    37     36     37 1
    38     36     44 1
    39     36     45 1
    40     37     38 1
    41     37     44 1
    42     37     46 1
    43     38     39 1
    44     38     47 1
    45     38     48 1
    46     39     40 1
    47     39     49 1
    48     39     50 1
    49     40     41 1
    50     40     51 1
    51     40     52 1
    52     41     42 1
    53     41     53 1
    54     41     54 1
    55     42     43 1
    56     42     55 1
    57     42     56 1
    58     43     44 1
    59     43     57 1
    60     43     58 1
    61     44     59 1
    62     12     34 am
@<TRIPOS>SUBSTRUCTURE
     1 BB1          12
     2 BB2          34
@<TRIPOS>MOLECULE
EN300-110418_i004_EN300-344045_i001_1_19_1
  62   65   2   0   0
SMALL
USER_CHARGES
@<TRIPOS>ATOM
     1 C1        -0.3987   -16.6014    10.0184 C.3        1 BB1          0.0000
     2 N2         0.6365   -15.7870     9.3678 N.4        1 BB1          1.0000
     3 C3         0.1031   -15.2132     8.1140 C.3        1 BB1          0.0000
     4 C4         0.7425   -13.8053     8.0198 C.3        1 BB1          0.0000
     5 C5         0.7485   -13.3639     9.5071 C.3        1 BB1          0.0000
     6 C6         1.0311   -14.6812    10.2596 C.3        1 BB1          0.0000
     7 C7         0.2194   -14.7312    11.5284 C.2        1 BB1          0.0000
     8 O8        -0.8710   -14.2019    11.5719 O.2        1 BB1          0.0000
     9 N9         0.7051   -15.3640    12.6147 N.am       1 BB1          0.0000
    10 C10       -0.1111   -15.5139    13.8290 C.3        1 BB1          0.0000
    11 C11       -0.0993   -16.9889    14.2443 C.3        1 BB1          0.0000
    12 N12        1.2904   -17.4481    14.3694 N.am       1 BB1          0.0000
    13 C13        1.9917   -17.3817    13.0803 C.3        1 BB1          0.0000
    14 C14        2.0634   -15.9281    12.6151 C.3        1 BB1          0.0000
    15 H15       -0.6056   -17.4809     9.4086 H          1 BB1          0.0000
    16 H16       -0.0491   -16.9153    11.0019 H          1 BB1          0.0000
    17 H17       -1.3092   -16.0123    10.1273 H          1 BB1          0.0000
    18 H18        0.4007   -15.8229     7.2608 H          1 BB1          0.0000
    19 H19       -0.9829   -15.1342     8.1646 H          1 BB1          0.0000
    20 H20        1.7569   -13.8629     7.6255 H          1 BB1          0.0000
    21 H21        0.1279   -13.1370     7.4167 H          1 BB1          0.0000
    22 H22        1.5405   -12.6378     9.6903 H          1 BB1          0.0000
    23 H23       -0.2219   -12.9576     9.7925 H          1 BB1          0.0000
    24 H24        2.0933   -14.7543    10.4932 H          1 BB1          0.0000
    25 H25        0.3083   -14.9048    14.6296 H          1 BB1          0.0000
    26 H26       -1.1343   -15.1996    13.6234 H          1 BB1          0.0000
    27 H27       -0.6072   -17.1012    15.2021 H          1 BB1          0.0000
    28 H28       -0.6122   -17.5837    13.4884 H          1 BB1          0.0000
    29 H29        3.0003   -17.7788    13.1942 H          1 BB1          0.0000
    30 H30        1.4497   -17.9711    12.3407 H          1 BB1          0.0000
    31 H31        2.4796   -15.8859    11.6086 H          1 BB1          0.0000
    32 H32        2.6910   -15.3557    13.2982 H          1 BB1          0.0000
    33 H34        1.4416   -16.3598     9.1636 H          1 BB1          0.0000
    34 O1         1.1613   -18.1381    14.4581 O.2        2 BB2          0.0000
    35 C2         0.0841   -18.4694    14.9231 C.2        2 BB2          0.0000
    36 C4        -0.1235   -19.8794    15.4130 C.3        2 BB2          0.0000
    37 C5        -0.1066   -20.8405    14.2228 C.3        2 BB2          0.0000
    38 C6        -1.2264   -20.4700    13.2284 C.3        2 BB2          0.0000
    39 C7        -0.5199   -19.5817    12.1745 C.3        2 BB2          0.0000
    40 C8         0.8631   -20.2629    12.0251 C.3        2 BB2          0.0000
    41 C9         1.2218   -20.7089    13.4577 C.3        2 BB2          0.0000
    42 C10       -0.2896   -22.2578    14.7015 C.ar       2 BB2          0.0000
    43 C11       -0.5323   -22.5096    16.0388 C.ar       2 BB2          0.0000
    44 C12       -0.7001   -23.8096    16.4779 C.ar       2 BB2          0.0000
    45 C13       -0.6258   -24.8576    15.5795 C.ar       2 BB2          0.0000
    46 C14       -0.3840   -24.6056    14.2421 C.ar       2 BB2          0.0000
    47 C15       -0.2206   -23.3053    13.8022 C.ar       2 BB2          0.0000
    48 H16        0.6753   -20.1447    16.1057 H          2 BB2          0.0000
    49 H17       -1.0845   -19.9491    15.9228 H          2 BB2          0.0000
    50 H18       -1.6333   -21.3665    12.7607 H          2 BB2          0.0000
    51 H19       -2.0145   -19.9104    13.7324 H          2 BB2          0.0000
    52 H20       -1.0626   -19.5978    11.2293 H          2 BB2          0.0000
    53 H21       -0.4101   -18.5609    12.5407 H          2 BB2          0.0000
    54 H22        0.7938   -21.1260    11.3630 H          2 BB2          0.0000
    55 H23        1.6001   -19.5522    11.6510 H          2 BB2          0.0000
    56 H24        1.8546   -19.9602    13.9343 H          2 BB2          0.0000
    57 H25        1.7348   -21.6703    13.4321 H          2 BB2          0.0000
    58 H26       -0.5903   -21.6909    16.7407 H          2 BB2          0.0000
    59 H27       -0.8889   -24.0065    17.5229 H          2 BB2          0.0000
    60 H28       -0.7562   -25.8733    15.9227 H          2 BB2          0.0000
    61 H29       -0.3257   -25.4244    13.5402 H          2 BB2          0.0000
    62 H30       -0.0317   -23.1084    12.7572 H          2 BB2          0.0000
@<TRIPOS>BOND
     1      1      2 1
     2      1     15 1
     3      1     16 1
     4      1     17 1
     5      2      3 1
     6      2      6 1
     7      2     33 1
     8      3      4 1
     9      3     18 1
    10      3     19 1
    11      4      5 1
    12      4     20 1
    13      4     21 1
    14      5      6 1
    15      5     22 1
    16      5     23 1
    17      6      7 1
    18      6     24 1
    19      7      8 2
    20      7      9 am
    21      9     10 1
    22      9     14 1
    23     10     11 1
    24     10     25 1
    25     10     26 1
    26     11     12 1
    27     11     27 1
    28     11     28 1
    29     12     13 1
    30     13     14 1
    31     13     29 1
    32     13     30 1
    33     14     31 1
    34     14     32 1
    35     34     35 2
    36     35     36 1
    37     36     37 1
    38     36     48 1
    39     36     49 1
    40     37     38 1
    41     37     41 1
    42     37     42 1
    43     38     39 1
    44     38     50 1
    45     38     51 1
    46     39     40 1
    47     39     52 1
    48     39     53 1
    49     40     41 1
    50     40     54 1
    51     40     55 1
    52     41     56 1
    53     41     57 1
    54     42     43 ar
    55     42     47 ar
    56     43     44 ar
    57     43     58 1
    58     44     45 ar
    59     44     59 1
    60     45     46 ar
    61     45     60 1
    62     46     47 ar
    63     46     61 1
    64     47     62 1
    65     12     35 am
@<TRIPOS>SUBSTRUCTURE
     1 BB1          12
     2 BB2          35
@<TRIPOS>MOLECULE
EN300-110418_i004_EN300-701715_i002_1_16_1
  59   61   2   0   0
SMALL
USER_CHARGES
@<TRIPOS>ATOM
     1 C1        -0.3987   -16.6014    10.0184 C.3        1 BB1          0.0000
     2 N2         0.6365   -15.7870     9.3678 N.4        1 BB1          1.0000
     3 C3         0.1031   -15.2132     8.1140 C.3        1 BB1          0.0000
     4 C4         0.7425   -13.8053     8.0198 C.3        1 BB1          0.0000
     5 C5         0.7485   -13.3639     9.5071 C.3        1 BB1          0.0000
     6 C6         1.0311   -14.6812    10.2596 C.3        1 BB1          0.0000
     7 C7         0.2194   -14.7312    11.5284 C.2        1 BB1          0.0000
     8 O8        -0.8710   -14.2019    11.5719 O.2        1 BB1          0.0000
     9 N9         0.7051   -15.3640    12.6147 N.am       1 BB1          0.0000
    10 C10       -0.1111   -15.5139    13.8290 C.3        1 BB1          0.0000
    11 C11       -0.0993   -16.9889    14.2443 C.3        1 BB1          0.0000
    12 N12        1.2904   -17.4481    14.3694 N.am       1 BB1          0.0000
    13 C13        1.9917   -17.3817    13.0803 C.3        1 BB1          0.0000
    14 C14        2.0634   -15.9281    12.6151 C.3        1 BB1          0.0000
    15 H15       -0.6056   -17.4809     9.4086 H          1 BB1          0.0000
    16 H16       -0.0491   -16.9153    11.0019 H          1 BB1          0.0000
    17 H17       -1.3092   -16.0123    10.1273 H          1 BB1          0.0000
    18 H18        0.4007   -15.8229     7.2608 H          1 BB1          0.0000
    19 H19       -0.9829   -15.1342     8.1646 H          1 BB1          0.0000
    20 H20        1.7569   -13.8629     7.6255 H          1 BB1          0.0000
    21 H21        0.1279   -13.1370     7.4167 H          1 BB1          0.0000
    22 H22        1.5405   -12.6378     9.6903 H          1 BB1          0.0000
    23 H23       -0.2219   -12.9576     9.7925 H          1 BB1          0.0000
    24 H24        2.0933   -14.7543    10.4932 H          1 BB1          0.0000
    25 H25        0.3083   -14.9048    14.6296 H          1 BB1          0.0000
    26 H26       -1.1343   -15.1996    13.6234 H          1 BB1          0.0000
    27 H27       -0.6072   -17.1012    15.2021 H          1 BB1          0.0000
    28 H28       -0.6122   -17.5837    13.4884 H          1 BB1          0.0000
    29 H29        3.0003   -17.7788    13.1942 H          1 BB1          0.0000
    30 H30        1.4497   -17.9711    12.3407 H          1 BB1          0.0000
    31 H31        2.4796   -15.8859    11.6086 H          1 BB1          0.0000
    32 H32        2.6910   -15.3557    13.2982 H          1 BB1          0.0000
    33 H34        1.4416   -16.3598     9.1636 H          1 BB1          0.0000
    34 C1         1.5656   -20.4102    12.1067 C.3        2 BB2          0.0000
    35 O2         0.3911   -21.1894    12.3422 O.3        2 BB2          0.0000
    36 C3        -0.0557   -21.1717    13.6994 C.3        2 BB2          0.0000
    37 C4         0.9539   -21.9124    14.5784 C.3        2 BB2          0.0000
    38 C5         1.0793   -23.3608    14.1016 C.3        2 BB2          0.0000
    39 C6        -0.2835   -24.0495    14.1988 C.3        2 BB2          0.0000
    40 C7        -1.2932   -23.3088    13.3198 C.3        2 BB2          0.0000
    41 C8        -2.6559   -23.9974    13.4171 C.3        2 BB2          0.0000
    42 C9        -1.4185   -21.8603    13.7966 C.3        2 BB2          0.0000
    43 C10       -0.1792   -19.7450    14.1690 C.2        2 BB2          0.0000
    44 O11        0.5046   -19.3472    15.0967 O.2        2 BB2          0.0000
    45 H13        2.3829   -20.7907    12.7193 H          2 BB2          0.0000
    46 H14        1.8400   -20.4755    11.0538 H          2 BB2          0.0000
    47 H15        1.3699   -19.3701    12.3674 H          2 BB2          0.0000
    48 H16        1.9248   -21.4218    14.5091 H          2 BB2          0.0000
    49 H17        0.6131   -21.8989    15.6136 H          2 BB2          0.0000
    50 H18        1.4201   -23.3743    13.0663 H          2 BB2          0.0000
    51 H19        1.7986   -23.8885    14.7278 H          2 BB2          0.0000
    52 H20       -0.1942   -25.0813    13.8592 H          2 BB2          0.0000
    53 H21       -0.6243   -24.0360    15.2341 H          2 BB2          0.0000
    54 H22       -0.9523   -23.3222    12.2846 H          2 BB2          0.0000
    55 H23       -2.9968   -23.9840    14.4523 H          2 BB2          0.0000
    56 H24       -3.3753   -23.4697    12.7908 H          2 BB2          0.0000
    57 H25       -2.5666   -25.0294    13.0774 H          2 BB2          0.0000
    58 H26       -1.7594   -21.8469    14.8319 H          2 BB2          0.0000
    59 H27       -2.1379   -21.3326    13.1704 H          2 BB2          0.0000
@<TRIPOS>BOND
     1      1      2 1
     2      1     15 1
     3      1     16 1
     4      1     17 1
     5      2      3 1
     6      2      6 1
     7      2     33 1
     8      3      4 1
     9      3     18 1
    10      3     19 1
    11      4      5 1
    12      4     20 1
    13      4     21 1
    14      5      6 1
    15      5     22 1
    16      5     23 1
    17      6      7 1
    18      6     24 1
    19      7      8 2
    20      7      9 am
    21      9     10 1
    22      9     14 1
    23     10     11 1
    24     10     25 1
    25     10     26 1
    26     11     12 1
    27     11     27 1
    28     11     28 1
    29     12     13 1
    30     13     14 1
    31     13     29 1
    32     13     30 1
    33     14     31 1
    34     14     32 1
    35     34     35 1
    36     34     45 1
    37     34     46 1
    38     34     47 1
    39     35     36 1
    40     36     37 1
    41     36     42 1
    42     36     43 1
    43     37     38 1
    44     37     48 1
    45     37     49 1
    46     38     39 1
    47     38     50 1
    48     38     51 1
    49     39     40 1
    50     39     52 1
    51     39     53 1
    52     40     41 1
    53     40     42 1
    54     40     54 1
    55     41     55 1
    56     41     56 1
    57     41     57 1
    58     42     58 1
    59     42     59 1
    60     43     44 2
    61     12     43 am
@<TRIPOS>SUBSTRUCTURE
     1 BB1          12
     2 BB2          43
@<TRIPOS>MOLECULE
EN300-110418_i004_EN300-1231025_i001_11_12_1
  48   49   2   0   0
SMALL
USER_CHARGES
@<TRIPOS>ATOM
     1 C1         1.9206   -16.3327    12.9076 C.3        1 BB1          0.0000
     2 N2         1.6812   -17.4797    12.0216 N.4        1 BB1          1.0000
     3 C3         1.8262   -18.7372    12.7853 C.3        1 BB1          0.0000
     4 C4         0.7544   -19.6858    12.1927 C.3        1 BB1          0.0000
     5 C5        -0.4148   -18.7040    11.9170 C.3        1 BB1          0.0000
     6 C6         0.3103   -17.4129    11.4829 C.3        1 BB1          0.0000
     7 C7        -0.4033   -16.2103    12.0448 C.2        1 BB1          0.0000
     8 O8        -1.2617   -16.3545    12.8894 O.2        1 BB1          0.0000
     9 N9        -0.0877   -14.9747    11.6088 N.am       1 BB1          0.0000
    10 C10        0.8753   -14.7837    10.5135 C.3        1 BB1          0.0000
    11 C11        0.2406   -13.8675     9.4618 C.3        1 BB1          0.0000
    12 N12       -0.2190   -12.6308    10.1075 N.am       1 BB1          0.0000
    13 C13       -1.2697   -12.9049    11.0970 C.3        1 BB1          0.0000
    14 C14       -0.7015   -13.7819    12.2117 C.3        1 BB1          0.0000
    15 H15        2.9670   -16.3213    13.2126 H          1 BB1          0.0000
    16 H16        1.6865   -15.4093    12.3779 H          1 BB1          0.0000
    17 H17        1.2859   -16.4164    13.7898 H          1 BB1          0.0000
    18 H18        2.8229   -19.1549    12.6430 H          1 BB1          0.0000
    19 H19        1.6346   -18.5624    13.8440 H          1 BB1          0.0000
    20 H20        1.1063   -20.1433    11.2682 H          1 BB1          0.0000
    21 H21        0.4629   -20.4465    12.9169 H          1 BB1          0.0000
    22 H22       -1.0505   -19.0776    11.1142 H          1 BB1          0.0000
    23 H23       -0.9965   -18.5333    12.8229 H          1 BB1          0.0000
    24 H24        0.3419   -17.3532    10.3950 H          1 BB1          0.0000
    25 H25        1.7835   -14.3223    10.9009 H          1 BB1          0.0000
    26 H26        1.1139   -15.7474    10.0636 H          1 BB1          0.0000
    27 H27        0.9786   -13.6260     8.6969 H          1 BB1          0.0000
    28 H28       -0.6076   -14.3747     9.0019 H          1 BB1          0.0000
    29 H29       -1.6268   -11.9651    11.5180 H          1 BB1          0.0000
    30 H30       -2.0968   -13.4254    10.6144 H          1 BB1          0.0000
    31 H31       -1.5035   -14.0820    12.8862 H          1 BB1          0.0000
    32 H32        0.0567   -13.2266    12.7639 H          1 BB1          0.0000
    33 H34        2.3439   -17.4661    11.2608 H          1 BB1          0.0000
    34 O1        -0.9571   -11.3582    11.7008 O.3        2 BB2          0.0000
    35 C2        -0.9083   -10.5246    10.5412 C.3        2 BB2          0.0000
    36 C3        -2.3171   -10.0284    10.2101 C.3        2 BB2          0.0000
    37 C4        -3.2807   -11.2163    10.1734 C.3        2 BB2          0.0000
    38 C5        -4.6362   -10.7388     9.8548 C.1        2 BB2          0.0000
    39 C6        -5.7173   -10.3580     9.6008 C.1        2 BB2          0.0000
    40 C7        -0.3672   -11.3143     9.3773 C.2        2 BB2          0.0000
    41 O9        -0.9931   -12.2660     8.9427 O.2        2 BB2          0.0000
    42 H10       -0.2585    -9.6710    10.7345 H          2 BB2          0.0000
    43 H11       -2.6417    -9.3206    10.9729 H          2 BB2          0.0000
    44 H12       -2.3098    -9.5363     9.2375 H          2 BB2          0.0000
    45 H13       -2.9562   -11.9239     9.4106 H          2 BB2          0.0000
    46 H14       -3.2881   -11.7083    11.1460 H          2 BB2          0.0000
    47 H15       -6.6842   -10.0174     9.3736 H          2 BB2          0.0000
    48 H16       -0.9217   -10.8725    12.5362 H          2 BB2          0.0000
@<TRIPOS>BOND
     1      1      2 1
     2      1     15 1
     3      1     16 1
     4      1     17 1
     5      2      3 1
     6      2      6 1
     7      2     33 1
     8      3      4 1
     9      3     18 1
    10      3     19 1
    11      4      5 1
    12      4     20 1
    13      4     21 1
    14      5      6 1
    15      5     22 1
    16      5     23 1
    17      6      7 1
    18      6     24 1
    19      7      8 2
    20      7      9 am
    21      9     10 1
    22      9     14 1
    23     10     11 1
    24     10     25 1
    25     10     26 1
    26     11     12 1
    27     11     27 1
    28     11     28 1
    29     12     13 1
    30     13     14 1
    31     13     29 1
    32     13     30 1
    33     14     31 1
    34     14     32 1
    35     34     35 1
    36     34     48 1
    37     35     36 1
    38     35     40 1
    39     35     42 1
    40     36     37 1
    41     36     43 1
    42     36     44 1
    43     37     38 1
    44     37     45 1
    45     37     46 1
    46     38     39 3
    47     39     47 1
    48     40     41 2
    49     12     40 am
@<TRIPOS>SUBSTRUCTURE
     1 BB1          12
     2 BB2          40
@<TRIPOS>MOLECULE
EN300-110418_i004_EN300-1231025_i001_11_15_1
  48   49   2   0   0
SMALL
USER_CHARGES
@<TRIPOS>ATOM
     1 C1         1.9206   -16.3327    12.9076 C.3        1 BB1          0.0000
     2 N2         1.6812   -17.4797    12.0216 N.4        1 BB1          1.0000
     3 C3         1.8262   -18.7372    12.7853 C.3        1 BB1          0.0000
     4 C4         0.7544   -19.6858    12.1927 C.3        1 BB1          0.0000
     5 C5        -0.4148   -18.7040    11.9170 C.3        1 BB1          0.0000
     6 C6         0.3103   -17.4129    11.4829 C.3        1 BB1          0.0000
     7 C7        -0.4033   -16.2103    12.0448 C.2        1 BB1          0.0000
     8 O8        -1.2617   -16.3545    12.8894 O.2        1 BB1          0.0000
     9 N9        -0.0877   -14.9747    11.6088 N.am       1 BB1          0.0000
    10 C10        0.8753   -14.7837    10.5135 C.3        1 BB1          0.0000
    11 C11        0.2406   -13.8675     9.4618 C.3        1 BB1          0.0000
    12 N12       -0.2190   -12.6308    10.1075 N.am       1 BB1          0.0000
    13 C13       -1.2697   -12.9049    11.0970 C.3        1 BB1          0.0000
    14 C14       -0.7015   -13.7819    12.2117 C.3        1 BB1          0.0000
    15 H15        2.9670   -16.3213    13.2126 H          1 BB1          0.0000
    16 H16        1.6865   -15.4093    12.3779 H          1 BB1          0.0000
    17 H17        1.2859   -16.4164    13.7898 H          1 BB1          0.0000
    18 H18        2.8229   -19.1549    12.6430 H          1 BB1          0.0000
    19 H19        1.6346   -18.5624    13.8440 H          1 BB1          0.0000
    20 H20        1.1063   -20.1433    11.2682 H          1 BB1          0.0000
    21 H21        0.4629   -20.4465    12.9169 H          1 BB1          0.0000
    22 H22       -1.0505   -19.0776    11.1142 H          1 BB1          0.0000
    23 H23       -0.9965   -18.5333    12.8229 H          1 BB1          0.0000
    24 H24        0.3419   -17.3532    10.3950 H          1 BB1          0.0000
    25 H25        1.7835   -14.3223    10.9009 H          1 BB1          0.0000
    26 H26        1.1139   -15.7474    10.0636 H          1 BB1          0.0000
    27 H27        0.9786   -13.6260     8.6969 H          1 BB1          0.0000
    28 H28       -0.6076   -14.3747     9.0019 H          1 BB1          0.0000
    29 H29       -1.6268   -11.9651    11.5180 H          1 BB1          0.0000
    30 H30       -2.0968   -13.4254    10.6144 H          1 BB1          0.0000
    31 H31       -1.5035   -14.0820    12.8862 H          1 BB1          0.0000
    32 H32        0.0567   -13.2266    12.7639 H          1 BB1          0.0000
    33 H34        2.3439   -17.4661    11.2608 H          1 BB1          0.0000
    34 O1         0.1620    -9.9019    11.1327 O.3        2 BB2          0.0000
    35 C2        -0.7974   -10.4651    10.2359 C.3        2 BB2          0.0000
    36 C3        -1.8248   -11.2738    11.0304 C.3        2 BB2          0.0000
    37 C4        -2.9290   -11.7602    10.0896 C.3        2 BB2          0.0000
    38 C5        -3.9702   -10.7257     9.9789 C.1        2 BB2          0.0000
    39 C6        -4.8006    -9.9005     9.8906 C.1        2 BB2          0.0000
    40 C7        -0.0972   -11.3689     9.2541 C.2        2 BB2          0.0000
    41 O9         0.4711   -12.3731     9.6479 O.2        2 BB2          0.0000
    42 H10       -1.3036    -9.6649     9.6960 H          2 BB2          0.0000
    43 H11       -1.3348   -12.1321    11.4901 H          2 BB2          0.0000
    44 H12       -2.2601   -10.6450    11.8071 H          2 BB2          0.0000
    45 H13       -2.5062   -11.9570     9.1045 H          2 BB2          0.0000
    46 H14       -3.3673   -12.6759    10.4865 H          2 BB2          0.0000
    47 H15       -5.5434    -9.1625     9.8116 H          2 BB2          0.0000
    48 H16        0.0776    -8.9456    11.2493 H          2 BB2          0.0000
@<TRIPOS>BOND
     1      1      2 1
     2      1     15 1
     3      1     16 1
     4      1     17 1
     5      2      3 1
     6      2      6 1
     7      2     33 1
     8      3      4 1
     9      3     18 1
    10      3     19 1
    11      4      5 1
    12      4     20 1
    13      4     21 1
    14      5      6 1
    15      5     22 1
    16      5     23 1
    17      6      7 1
    18      6     24 1
    19      7      8 2
    20      7      9 am
    21      9     10 1
    22      9     14 1
    23     10     11 1
    24     10     25 1
    25     10     26 1
    26     11     12 1
    27     11     27 1
    28     11     28 1
    29     12     13 1
    30     13     14 1
    31     13     29 1
    32     13     30 1
    33     14     31 1
    34     14     32 1
    35     34     35 1
    36     34     48 1
    37     35     36 1
    38     35     40 1
    39     35     42 1
    40     36     37 1
    41     36     43 1
    42     36     44 1
    43     37     38 1
    44     37     45 1
    45     37     46 1
    46     38     39 3
    47     39     47 1
    48     40     41 2
    49     12     40 am
@<TRIPOS>SUBSTRUCTURE
     1 BB1          12
     2 BB2          40
@<TRIPOS>MOLECULE
EN300-110418_i004_EN300-1231025_i001_11_9_1
  48   49   2   0   0
SMALL
USER_CHARGES
@<TRIPOS>ATOM
     1 C1         1.9206   -16.3327    12.9076 C.3        1 BB1          0.0000
     2 N2         1.6812   -17.4797    12.0216 N.4        1 BB1          1.0000
     3 C3         1.8262   -18.7372    12.7853 C.3        1 BB1          0.0000
     4 C4         0.7544   -19.6858    12.1927 C.3        1 BB1          0.0000
     5 C5        -0.4148   -18.7040    11.9170 C.3        1 BB1          0.0000
     6 C6         0.3103   -17.4129    11.4829 C.3        1 BB1          0.0000
     7 C7        -0.4033   -16.2103    12.0448 C.2        1 BB1          0.0000
     8 O8        -1.2617   -16.3545    12.8894 O.2        1 BB1          0.0000
     9 N9        -0.0877   -14.9747    11.6088 N.am       1 BB1          0.0000
    10 C10        0.8753   -14.7837    10.5135 C.3        1 BB1          0.0000
    11 C11        0.2406   -13.8675     9.4618 C.3        1 BB1          0.0000
    12 N12       -0.2190   -12.6308    10.1075 N.am       1 BB1          0.0000
    13 C13       -1.2697   -12.9049    11.0970 C.3        1 BB1          0.0000
    14 C14       -0.7015   -13.7819    12.2117 C.3        1 BB1          0.0000
    15 H15        2.9670   -16.3213    13.2126 H          1 BB1          0.0000
    16 H16        1.6865   -15.4093    12.3779 H          1 BB1          0.0000
    17 H17        1.2859   -16.4164    13.7898 H          1 BB1          0.0000
    18 H18        2.8229   -19.1549    12.6430 H          1 BB1          0.0000
    19 H19        1.6346   -18.5624    13.8440 H          1 BB1          0.0000
    20 H20        1.1063   -20.1433    11.2682 H          1 BB1          0.0000
    21 H21        0.4629   -20.4465    12.9169 H          1 BB1          0.0000
    22 H22       -1.0505   -19.0776    11.1142 H          1 BB1          0.0000
    23 H23       -0.9965   -18.5333    12.8229 H          1 BB1          0.0000
    24 H24        0.3419   -17.3532    10.3950 H          1 BB1          0.0000
    25 H25        1.7835   -14.3223    10.9009 H          1 BB1          0.0000
    26 H26        1.1139   -15.7474    10.0636 H          1 BB1          0.0000
    27 H27        0.9786   -13.6260     8.6969 H          1 BB1          0.0000
    28 H28       -0.6076   -14.3747     9.0019 H          1 BB1          0.0000
    29 H29       -1.6268   -11.9651    11.5180 H          1 BB1          0.0000
    30 H30       -2.0968   -13.4254    10.6144 H          1 BB1          0.0000
    31 H31       -1.5035   -14.0820    12.8862 H          1 BB1          0.0000
    32 H32        0.0567   -13.2266    12.7639 H          1 BB1          0.0000
    33 H34        2.3439   -17.4661    11.2608 H          1 BB1          0.0000
    34 O1        -0.9130   -12.0846    11.3924 O.3        2 BB2          0.0000
    35 C2        -0.5656   -11.1375    10.3804 C.3        2 BB2          0.0000
    36 C3        -1.8251   -10.7194     9.6192 C.3        2 BB2          0.0000
    37 C4        -2.9018   -10.2835    10.6150 C.3        2 BB2          0.0000
    38 C5        -4.2329   -10.5602    10.0508 C.1        2 BB2          0.0000
    39 C6        -5.2945   -10.7808     9.6008 C.1        2 BB2          0.0000
    40 C7         0.4158   -11.7629     9.4228 C.2        2 BB2          0.0000
    41 O8         0.7904   -12.9101     9.5966 O.2        2 BB2          0.0000
    42 H10       -0.1129   -10.2606    10.8434 H          2 BB2          0.0000
    43 H11       -1.5885    -9.8894     8.9534 H          2 BB2          0.0000
    44 H12       -2.1920   -11.5620     9.0331 H          2 BB2          0.0000
    45 H13       -2.7801   -10.8361    11.5466 H          2 BB2          0.0000
    46 H14       -2.8049    -9.2156    10.8106 H          2 BB2          0.0000
    47 H15       -6.2441   -10.9782     9.1983 H          2 BB2          0.0000
    48 H16       -1.2506   -12.9226    11.0477 H          2 BB2          0.0000
@<TRIPOS>BOND
     1      1      2 1
     2      1     15 1
     3      1     16 1
     4      1     17 1
     5      2      3 1
     6      2      6 1
     7      2     33 1
     8      3      4 1
     9      3     18 1
    10      3     19 1
    11      4      5 1
    12      4     20 1
    13      4     21 1
    14      5      6 1
    15      5     22 1
    16      5     23 1
    17      6      7 1
    18      6     24 1
    19      7      8 2
    20      7      9 am
    21      9     10 1
    22      9     14 1
    23     10     11 1
    24     10     25 1
    25     10     26 1
    26     11     12 1
    27     11     27 1
    28     11     28 1
    29     12     13 1
    30     13     14 1
    31     13     29 1
    32     13     30 1
    33     14     31 1
    34     14     32 1
    35     34     35 1
    36     34     48 1
    37     35     36 1
    38     35     40 1
    39     35     42 1
    40     36     37 1
    41     36     43 1
    42     36     44 1
    43     37     38 1
    44     37     45 1
    45     37     46 1
    46     38     39 3
    47     39     47 1
    48     40     41 2
    49     12     40 am
@<TRIPOS>SUBSTRUCTURE
     1 BB1          12
     2 BB2          40
@<TRIPOS>MOLECULE
EN300-110418_i004_EN300-307464_i001_11_14_1
  50   52   2   0   0
SMALL
USER_CHARGES
@<TRIPOS>ATOM
     1 C1         1.9206   -16.3327    12.9076 C.3        1 BB1          0.0000
     2 N2         1.6812   -17.4797    12.0216 N.4        1 BB1          1.0000
     3 C3         1.8262   -18.7372    12.7853 C.3        1 BB1          0.0000
     4 C4         0.7544   -19.6858    12.1927 C.3        1 BB1          0.0000
     5 C5        -0.4148   -18.7040    11.9170 C.3        1 BB1          0.0000
     6 C6         0.3103   -17.4129    11.4829 C.3        1 BB1          0.0000
     7 C7        -0.4033   -16.2103    12.0448 C.2        1 BB1          0.0000
     8 O8        -1.2617   -16.3545    12.8894 O.2        1 BB1          0.0000
     9 N9        -0.0877   -14.9747    11.6088 N.am       1 BB1          0.0000
    10 C10        0.8753   -14.7837    10.5135 C.3        1 BB1          0.0000
    11 C11        0.2406   -13.8675     9.4618 C.3        1 BB1          0.0000
    12 N12       -0.2190   -12.6308    10.1075 N.am       1 BB1          0.0000
    13 C13       -1.2697   -12.9049    11.0970 C.3        1 BB1          0.0000
    14 C14       -0.7015   -13.7819    12.2117 C.3        1 BB1          0.0000
    15 H15        2.9670   -16.3213    13.2126 H          1 BB1          0.0000
    16 H16        1.6865   -15.4093    12.3779 H          1 BB1          0.0000
    17 H17        1.2859   -16.4164    13.7898 H          1 BB1          0.0000
    18 H18        2.8229   -19.1549    12.6430 H          1 BB1          0.0000
    19 H19        1.6346   -18.5624    13.8440 H          1 BB1          0.0000
    20 H20        1.1063   -20.1433    11.2682 H          1 BB1          0.0000
    21 H21        0.4629   -20.4465    12.9169 H          1 BB1          0.0000
    22 H22       -1.0505   -19.0776    11.1142 H          1 BB1          0.0000
    23 H23       -0.9965   -18.5333    12.8229 H          1 BB1          0.0000
    24 H24        0.3419   -17.3532    10.3950 H          1 BB1          0.0000
    25 H25        1.7835   -14.3223    10.9009 H          1 BB1          0.0000
    26 H26        1.1139   -15.7474    10.0636 H          1 BB1          0.0000
    27 H27        0.9786   -13.6260     8.6969 H          1 BB1          0.0000
    28 H28       -0.6076   -14.3747     9.0019 H          1 BB1          0.0000
    29 H29       -1.6268   -11.9651    11.5180 H          1 BB1          0.0000
    30 H30       -2.0968   -13.4254    10.6144 H          1 BB1          0.0000
    31 H31       -1.5035   -14.0820    12.8862 H          1 BB1          0.0000
    32 H32        0.0567   -13.2266    12.7639 H          1 BB1          0.0000
    33 H34        2.3439   -17.4661    11.2608 H          1 BB1          0.0000
    34 O1        -0.1951   -12.7975     8.7173 O.2        2 BB2          0.0000
    35 C2         0.0223   -11.6872     9.1838 C.2        2 BB2          0.0000
    36 C4        -0.7518   -11.2110    10.3353 C.2        2 BB2          0.0000
    37 C5        -0.3685   -10.1144    10.9883 C.2        2 BB2          0.0000
    38 C6        -1.9805   -11.9617    10.7798 C.3        2 BB2          0.0000
    39 N7        -3.1784   -11.2337    10.3540 N.pl3      2 BB2          0.0000
    40 C8        -4.3312   -11.7838     9.8620 C.2        2 BB2          0.0000
    41 C9        -5.1684   -10.7625     9.5980 C.2        2 BB2          0.0000
    42 N10       -4.5438    -9.6200     9.9201 N.2        2 BB2          0.0000
    43 C11       -3.3536    -9.8949    10.3791 C.2        2 BB2          0.0000
    44 H12       -0.9383    -9.7638    11.8360 H          2 BB2          0.0000
    45 H13        0.5121    -9.5764    10.6697 H          2 BB2          0.0000
    46 H14       -1.9809   -12.9554    10.3320 H          2 BB2          0.0000
    47 H15       -1.9776   -12.0527    11.8661 H          2 BB2          0.0000
    48 H16       -4.5307   -12.8347     9.7134 H          2 BB2          0.0000
    49 H17       -6.1676   -10.8484     9.1973 H          2 BB2          0.0000
    50 H18       -2.6264    -9.1711    10.7161 H          2 BB2          0.0000
@<TRIPOS>BOND
     1      1      2 1
     2      1     15 1
     3      1     16 1
     4      1     17 1
     5      2      3 1
     6      2      6 1
     7      2     33 1
     8      3      4 1
     9      3     18 1
    10      3     19 1
    11      4      5 1
    12      4     20 1
    13      4     21 1
    14      5      6 1
    15      5     22 1
    16      5     23 1
    17      6      7 1
    18      6     24 1
    19      7      8 2
    20      7      9 am
    21      9     10 1
    22      9     14 1
    23     10     11 1
    24     10     25 1
    25     10     26 1
    26     11     12 1
    27     11     27 1
    28     11     28 1
    29     12     13 1
    30     13     14 1
    31     13     29 1
    32     13     30 1
    33     14     31 1
    34     14     32 1
    35     34     35 2
    36     35     36 1
    37     36     37 2
    38     36     38 1
    39     37     44 1
    40     37     45 1
    41     38     39 1
    42     38     46 1
    43     38     47 1
    44     39     40 1
    45     39     43 1
    46     40     41 2
    47     40     48 1
    48     41     42 1
    49     41     49 1
    50     42     43 2
    51     43     50 1
    52     12     35 am
@<TRIPOS>SUBSTRUCTURE
     1 BB1          12
     2 BB2          35
@<TRIPOS>MOLECULE
EN300-110418_i004_EN300-307464_i001_11_19_1
  50   52   2   0   0
SMALL
USER_CHARGES
@<TRIPOS>ATOM
     1 C1         1.9206   -16.3327    12.9076 C.3        1 BB1          0.0000
     2 N2         1.6812   -17.4797    12.0216 N.4        1 BB1          1.0000
     3 C3         1.8262   -18.7372    12.7853 C.3        1 BB1          0.0000
     4 C4         0.7544   -19.6858    12.1927 C.3        1 BB1          0.0000
     5 C5        -0.4148   -18.7040    11.9170 C.3        1 BB1          0.0000
     6 C6         0.3103   -17.4129    11.4829 C.3        1 BB1          0.0000
     7 C7        -0.4033   -16.2103    12.0448 C.2        1 BB1          0.0000
     8 O8        -1.2617   -16.3545    12.8894 O.2        1 BB1          0.0000
     9 N9        -0.0877   -14.9747    11.6088 N.am       1 BB1          0.0000
    10 C10        0.8753   -14.7837    10.5135 C.3        1 BB1          0.0000
    11 C11        0.2406   -13.8675     9.4618 C.3        1 BB1          0.0000
    12 N12       -0.2190   -12.6308    10.1075 N.am       1 BB1          0.0000
    13 C13       -1.2697   -12.9049    11.0970 C.3        1 BB1          0.0000
    14 C14       -0.7015   -13.7819    12.2117 C.3        1 BB1          0.0000
    15 H15        2.9670   -16.3213    13.2126 H          1 BB1          0.0000
    16 H16        1.6865   -15.4093    12.3779 H          1 BB1          0.0000
    17 H17        1.2859   -16.4164    13.7898 H          1 BB1          0.0000
    18 H18        2.8229   -19.1549    12.6430 H          1 BB1          0.0000
    19 H19        1.6346   -18.5624    13.8440 H          1 BB1          0.0000
    20 H20        1.1063   -20.1433    11.2682 H          1 BB1          0.0000
    21 H21        0.4629   -20.4465    12.9169 H          1 BB1          0.0000
    22 H22       -1.0505   -19.0776    11.1142 H          1 BB1          0.0000
    23 H23       -0.9965   -18.5333    12.8229 H          1 BB1          0.0000
    24 H24        0.3419   -17.3532    10.3950 H          1 BB1          0.0000
    25 H25        1.7835   -14.3223    10.9009 H          1 BB1          0.0000
    26 H26        1.1139   -15.7474    10.0636 H          1 BB1          0.0000
    27 H27        0.9786   -13.6260     8.6969 H          1 BB1          0.0000
    28 H28       -0.6076   -14.3747     9.0019 H          1 BB1          0.0000
    29 H29       -1.6268   -11.9651    11.5180 H          1 BB1          0.0000
    30 H30       -2.0968   -13.4254    10.6144 H          1 BB1          0.0000
    31 H31       -1.5035   -14.0820    12.8862 H          1 BB1          0.0000
    32 H32        0.0567   -13.2266    12.7639 H          1 BB1          0.0000
    33 H34        2.3439   -17.4661    11.2608 H          1 BB1          0.0000
    34 C2         0.1088   -11.6203     9.1208 C.2        2 BB2          0.0000
    35 O3        -0.1494   -12.6755     8.5573 O.2        2 BB2          0.0000
    36 C4        -0.7080   -11.1758    10.2555 C.2        2 BB2          0.0000
    37 C5        -0.3814   -10.0662    10.9171 C.2        2 BB2          0.0000
    38 C6        -1.9162   -11.9739    10.6727 C.3        2 BB2          0.0000
    39 N7        -3.1331   -11.2440    10.3088 N.pl3      2 BB2          0.0000
    40 C8        -3.3428    -9.8978    10.4406 C.2        2 BB2          0.0000
    41 C9        -4.5874    -9.6513     9.9889 C.2        2 BB2          0.0000
    42 N10       -5.1229   -10.8152     9.5922 N.2        2 BB2          0.0000
    43 C11       -4.2554   -11.7727     9.7754 C.2        2 BB2          0.0000
    44 H12       -0.9827    -9.7389    11.7525 H          2 BB2          0.0000
    45 H13        0.4845    -9.4942    10.6181 H          2 BB2          0.0000
    46 H14       -1.9064   -12.9392    10.1666 H          2 BB2          0.0000
    47 H15       -1.8944   -12.1290    11.7515 H          2 BB2          0.0000
    48 H16       -2.6446    -9.1727    10.8322 H          2 BB2          0.0000
    49 H17       -5.0695    -8.6856     9.9524 H          2 BB2          0.0000
    50 H18       -4.4119   -12.8163     9.5455 H          2 BB2          0.0000
@<TRIPOS>BOND
     1      1      2 1
     2      1     15 1
     3      1     16 1
     4      1     17 1
     5      2      3 1
     6      2      6 1
     7      2     33 1
     8      3      4 1
     9      3     18 1
    10      3     19 1
    11      4      5 1
    12      4     20 1
    13      4     21 1
    14      5      6 1
    15      5     22 1
    16      5     23 1
    17      6      7 1
    18      6     24 1
    19      7      8 2
    20      7      9 am
    21      9     10 1
    22      9     14 1
    23     10     11 1
    24     10     25 1
    25     10     26 1
    26     11     12 1
    27     11     27 1
    28     11     28 1
    29     12     13 1
    30     13     14 1
    31     13     29 1
    32     13     30 1
    33     14     31 1
    34     14     32 1
    35     34     35 2
    36     34     36 1
    37     36     37 2
    38     36     38 1
    39     37     44 1
    40     37     45 1
    41     38     39 1
    42     38     46 1
    43     38     47 1
    44     39     40 1
    45     39     43 1
    46     40     41 2
    47     40     48 1
    48     41     42 1
    49     41     49 1
    50     42     43 2
    51     43     50 1
    52     12     34 am
@<TRIPOS>SUBSTRUCTURE
     1 BB1          12
     2 BB2          34
@<TRIPOS>MOLECULE
EN300-110418_i004_EN300-307464_i001_11_6_1
  50   52   2   0   0
SMALL
USER_CHARGES
@<TRIPOS>ATOM
     1 C1         1.9206   -16.3327    12.9076 C.3        1 BB1          0.0000
     2 N2         1.6812   -17.4797    12.0216 N.4        1 BB1          1.0000
     3 C3         1.8262   -18.7372    12.7853 C.3        1 BB1          0.0000
     4 C4         0.7544   -19.6858    12.1927 C.3        1 BB1          0.0000
     5 C5        -0.4148   -18.7040    11.9170 C.3        1 BB1          0.0000
     6 C6         0.3103   -17.4129    11.4829 C.3        1 BB1          0.0000
     7 C7        -0.4033   -16.2103    12.0448 C.2        1 BB1          0.0000
     8 O8        -1.2617   -16.3545    12.8894 O.2        1 BB1          0.0000
     9 N9        -0.0877   -14.9747    11.6088 N.am       1 BB1          0.0000
    10 C10        0.8753   -14.7837    10.5135 C.3        1 BB1          0.0000
    11 C11        0.2406   -13.8675     9.4618 C.3        1 BB1          0.0000
    12 N12       -0.2190   -12.6308    10.1075 N.am       1 BB1          0.0000
    13 C13       -1.2697   -12.9049    11.0970 C.3        1 BB1          0.0000
    14 C14       -0.7015   -13.7819    12.2117 C.3        1 BB1          0.0000
    15 H15        2.9670   -16.3213    13.2126 H          1 BB1          0.0000
    16 H16        1.6865   -15.4093    12.3779 H          1 BB1          0.0000
    17 H17        1.2859   -16.4164    13.7898 H          1 BB1          0.0000
    18 H18        2.8229   -19.1549    12.6430 H          1 BB1          0.0000
    19 H19        1.6346   -18.5624    13.8440 H          1 BB1          0.0000
    20 H20        1.1063   -20.1433    11.2682 H          1 BB1          0.0000
    21 H21        0.4629   -20.4465    12.9169 H          1 BB1          0.0000
    22 H22       -1.0505   -19.0776    11.1142 H          1 BB1          0.0000
    23 H23       -0.9965   -18.5333    12.8229 H          1 BB1          0.0000
    24 H24        0.3419   -17.3532    10.3950 H          1 BB1          0.0000
    25 H25        1.7835   -14.3223    10.9009 H          1 BB1          0.0000
    26 H26        1.1139   -15.7474    10.0636 H          1 BB1          0.0000
    27 H27        0.9786   -13.6260     8.6969 H          1 BB1          0.0000
    28 H28       -0.6076   -14.3747     9.0019 H          1 BB1          0.0000
    29 H29       -1.6268   -11.9651    11.5180 H          1 BB1          0.0000
    30 H30       -2.0968   -13.4254    10.6144 H          1 BB1          0.0000
    31 H31       -1.5035   -14.0820    12.8862 H          1 BB1          0.0000
    32 H32        0.0567   -13.2266    12.7639 H          1 BB1          0.0000
    33 H34        2.3439   -17.4661    11.2608 H          1 BB1          0.0000
    34 C2         0.1860   -11.4936     9.6944 C.2        2 BB2          0.0000
    35 O3         0.4735   -12.6654     9.8988 O.2        2 BB2          0.0000
    36 C4        -0.9370   -10.8783    10.4102 C.2        2 BB2          0.0000
    37 C5        -1.1516   -11.1726    11.6920 C.2        2 BB2          0.0000
    38 C6        -1.8478    -9.9133     9.6960 C.3        2 BB2          0.0000
    39 N7        -3.2253   -10.4090     9.7525 N.pl3      2 BB2          0.0000
    40 C8        -3.6539   -11.6589     9.3951 C.2        2 BB2          0.0000
    41 C9        -4.9842   -11.6888     9.6032 C.2        2 BB2          0.0000
    42 N10       -5.3575   -10.4899    10.0747 N.2        2 BB2          0.0000
    43 C11       -4.3082    -9.7202    10.1723 C.2        2 BB2          0.0000
    44 H12       -1.9783   -10.7197    12.2190 H          2 BB2          0.0000
    45 H13       -0.4988   -11.8642    12.2039 H          2 BB2          0.0000
    46 H14       -1.7929    -8.9373    10.1781 H          2 BB2          0.0000
    47 H15       -1.5367    -9.8225     8.6553 H          2 BB2          0.0000
    48 H16       -3.0430   -12.4657     9.0181 H          2 BB2          0.0000
    49 H17       -5.6360   -12.5306     9.4222 H          2 BB2          0.0000
    50 H18       -4.3074    -8.6989    10.5235 H          2 BB2          0.0000
@<TRIPOS>BOND
     1      1      2 1
     2      1     15 1
     3      1     16 1
     4      1     17 1
     5      2      3 1
     6      2      6 1
     7      2     33 1
     8      3      4 1
     9      3     18 1
    10      3     19 1
    11      4      5 1
    12      4     20 1
    13      4     21 1
    14      5      6 1
    15      5     22 1
    16      5     23 1
    17      6      7 1
    18      6     24 1
    19      7      8 2
    20      7      9 am
    21      9     10 1
    22      9     14 1
    23     10     11 1
    24     10     25 1
    25     10     26 1
    26     11     12 1
    27     11     27 1
    28     11     28 1
    29     12     13 1
    30     13     14 1
    31     13     29 1
    32     13     30 1
    33     14     31 1
    34     14     32 1
    35     34     35 2
    36     34     36 1
    37     36     37 2
    38     36     38 1
    39     37     44 1
    40     37     45 1
    41     38     39 1
    42     38     46 1
    43     38     47 1
    44     39     40 1
    45     39     43 1
    46     40     41 2
    47     40     48 1
    48     41     42 1
    49     41     49 1
    50     42     43 2
    51     43     50 1
    52     12     34 am
@<TRIPOS>SUBSTRUCTURE
     1 BB1          12
     2 BB2          34
@<TRIPOS>MOLECULE
EN300-110418_i004_EN300-701715_i002_11_20_1
  59   61   2   0   0
SMALL
USER_CHARGES
@<TRIPOS>ATOM
     1 C1         1.9206   -16.3327    12.9076 C.3        1 BB1          0.0000
     2 N2         1.6812   -17.4797    12.0216 N.4        1 BB1          1.0000
     3 C3         1.8262   -18.7372    12.7853 C.3        1 BB1          0.0000
     4 C4         0.7544   -19.6858    12.1927 C.3        1 BB1          0.0000
     5 C5        -0.4148   -18.7040    11.9170 C.3        1 BB1          0.0000
     6 C6         0.3103   -17.4129    11.4829 C.3        1 BB1          0.0000
     7 C7        -0.4033   -16.2103    12.0448 C.2        1 BB1          0.0000
     8 O8        -1.2617   -16.3545    12.8894 O.2        1 BB1          0.0000
     9 N9        -0.0877   -14.9747    11.6088 N.am       1 BB1          0.0000
    10 C10        0.8753   -14.7837    10.5135 C.3        1 BB1          0.0000
    11 C11        0.2406   -13.8675     9.4618 C.3        1 BB1          0.0000
    12 N12       -0.2190   -12.6308    10.1075 N.am       1 BB1          0.0000
    13 C13       -1.2697   -12.9049    11.0970 C.3        1 BB1          0.0000
    14 C14       -0.7015   -13.7819    12.2117 C.3        1 BB1          0.0000
    15 H15        2.9670   -16.3213    13.2126 H          1 BB1          0.0000
    16 H16        1.6865   -15.4093    12.3779 H          1 BB1          0.0000
    17 H17        1.2859   -16.4164    13.7898 H          1 BB1          0.0000
    18 H18        2.8229   -19.1549    12.6430 H          1 BB1          0.0000
    19 H19        1.6346   -18.5624    13.8440 H          1 BB1          0.0000
    20 H20        1.1063   -20.1433    11.2682 H          1 BB1          0.0000
    21 H21        0.4629   -20.4465    12.9169 H          1 BB1          0.0000
    22 H22       -1.0505   -19.0776    11.1142 H          1 BB1          0.0000
    23 H23       -0.9965   -18.5333    12.8229 H          1 BB1          0.0000
    24 H24        0.3419   -17.3532    10.3950 H          1 BB1          0.0000
    25 H25        1.7835   -14.3223    10.9009 H          1 BB1          0.0000
    26 H26        1.1139   -15.7474    10.0636 H          1 BB1          0.0000
    27 H27        0.9786   -13.6260     8.6969 H          1 BB1          0.0000
    28 H28       -0.6076   -14.3747     9.0019 H          1 BB1          0.0000
    29 H29       -1.6268   -11.9651    11.5180 H          1 BB1          0.0000
    30 H30       -2.0968   -13.4254    10.6144 H          1 BB1          0.0000
    31 H31       -1.5035   -14.0820    12.8862 H          1 BB1          0.0000
    32 H32        0.0567   -13.2266    12.7639 H          1 BB1          0.0000
    33 H34        2.3439   -17.4661    11.2608 H          1 BB1          0.0000
    34 C1        -0.4996   -10.2091    11.6106 C.3        2 BB2          0.0000
    35 O2        -1.5141   -11.1202    11.1830 O.3        2 BB2          0.0000
    36 C3        -1.7554   -11.1021     9.7747 C.3        2 BB2          0.0000
    37 C4        -1.9053    -9.6548     9.3015 C.3        2 BB2          0.0000
    38 C5        -3.0810    -8.9996    10.0289 C.3        2 BB2          0.0000
    39 C6        -4.3654    -9.7722     9.7217 C.3        2 BB2          0.0000
    40 C7        -4.2155   -11.2195    10.1949 C.3        2 BB2          0.0000
    41 C8        -5.4998   -11.9921     9.8875 C.3        2 BB2          0.0000
    42 C9        -3.0397   -11.8747     9.4674 C.3        2 BB2          0.0000
    43 C10       -0.5973   -11.7474     9.0582 C.2        2 BB2          0.0000
    44 O11       -0.3272   -12.9179     9.2668 O.2        2 BB2          0.0000
    45 H13       -0.7900    -9.1921    11.3472 H          2 BB2          0.0000
    46 H14       -0.3764   -10.2834    12.6911 H          2 BB2          0.0000
    47 H15        0.4416   -10.4568    11.1198 H          2 BB2          0.0000
    48 H16       -0.9903    -9.1043     9.5204 H          2 BB2          0.0000
    49 H17       -2.0894    -9.6410     8.2273 H          2 BB2          0.0000
    50 H18       -2.8970    -9.0135    11.1032 H          2 BB2          0.0000
    51 H19       -3.1878    -7.9686     9.6919 H          2 BB2          0.0000
    52 H20       -5.2030    -9.3055    10.2399 H          2 BB2          0.0000
    53 H21       -4.5495    -9.7584     8.6474 H          2 BB2          0.0000
    54 H22       -4.0314   -11.2333    11.2691 H          2 BB2          0.0000
    55 H23       -5.6840   -11.9783     8.8133 H          2 BB2          0.0000
    56 H24       -5.3930   -13.0232    10.2247 H          2 BB2          0.0000
    57 H25       -6.3375   -11.5253    10.4058 H          2 BB2          0.0000
    58 H26       -3.2239   -11.8609     8.3931 H          2 BB2          0.0000
    59 H27       -2.9329   -12.9058     9.8045 H          2 BB2          0.0000
@<TRIPOS>BOND
     1      1      2 1
     2      1     15 1
     3      1     16 1
     4      1     17 1
     5      2      3 1
     6      2      6 1
     7      2     33 1
     8      3      4 1
     9      3     18 1
    10      3     19 1
    11      4      5 1
    12      4     20 1
    13      4     21 1
    14      5      6 1
    15      5     22 1
    16      5     23 1
    17      6      7 1
    18      6     24 1
    19      7      8 2
    20      7      9 am
    21      9     10 1
    22      9     14 1
    23     10     11 1
    24     10     25 1
    25     10     26 1
    26     11     12 1
    27     11     27 1
    28     11     28 1
    29     12     13 1
    30     13     14 1
    31     13     29 1
    32     13     30 1
    33     14     31 1
    34     14     32 1
    35     34     35 1
    36     34     45 1
    37     34     46 1
    38     34     47 1
    39     35     36 1
    40     36     37 1
    41     36     42 1
    42     36     43 1
    43     37     38 1
    44     37     48 1
    45     37     49 1
    46     38     39 1
    47     38     50 1
    48     38     51 1
    49     39     40 1
    50     39     52 1
    51     39     53 1
    52     40     41 1
    53     40     42 1
    54     40     54 1
    55     41     55 1
    56     41     56 1
    57     41     57 1
    58     42     58 1
    59     42     59 1
    60     43     44 2
    61     12     43 am
@<TRIPOS>SUBSTRUCTURE
     1 BB1          12
     2 BB2          43
@<TRIPOS>MOLECULE
EN300-110418_i004_EN300-19857_i001_16_19_1
  46   48   2   0   0
SMALL
USER_CHARGES
@<TRIPOS>ATOM
     1 C1         1.1316   -21.3009    12.8952 C.3        1 BB1          0.0000
     2 N2        -0.0636   -22.1090    12.6189 N.4        1 BB1          1.0000
     3 C3        -0.1631   -23.2043    13.6069 C.3        1 BB1          0.0000
     4 C4        -1.6813   -23.3624    13.8707 C.3        1 BB1          0.0000
     5 C5        -2.1630   -21.8884    13.8219 C.3        1 BB1          0.0000
     6 C6        -1.2685   -21.2664    12.7291 C.3        1 BB1          0.0000
     7 C7        -0.8795   -19.8643    13.1216 C.2        1 BB1          0.0000
     8 O8        -1.0829   -19.4724    14.2512 O.2        1 BB1          0.0000
     9 N9        -0.3056   -19.0461    12.2174 N.am       1 BB1          0.0000
    10 C10       -0.1435   -19.4641    10.8167 C.3        1 BB1          0.0000
    11 C11       -0.7122   -18.3658     9.9120 C.3        1 BB1          0.0000
    12 N12       -0.0861   -17.0815    10.2534 N.am       1 BB1          0.0000
    13 C13       -0.4060   -16.6821    11.6304 C.3        1 BB1          0.0000
    14 C14        0.1698   -17.7091    12.6041 C.3        1 BB1          0.0000
    15 H15        2.0247   -21.8951    12.7013 H          1 BB1          0.0000
    16 H16        1.1330   -20.4220    12.2506 H          1 BB1          0.0000
    17 H17        1.1242   -20.9862    13.9387 H          1 BB1          0.0000
    18 H18        0.2485   -24.1257    13.1948 H          1 BB1          0.0000
    19 H19        0.3557   -22.9339    14.5267 H          1 BB1          0.0000
    20 H20       -2.1543   -23.9539    13.0868 H          1 BB1          0.0000
    21 H21       -1.8635   -23.8004    14.8521 H          1 BB1          0.0000
    22 H22       -3.2136   -21.8357    13.5364 H          1 BB1          0.0000
    23 H23       -1.9980   -21.3971    14.7809 H          1 BB1          0.0000
    24 H24       -1.8002   -21.2534    11.7777 H          1 BB1          0.0000
    25 H25        0.9145   -19.6076    10.5975 H          1 BB1          0.0000
    26 H26       -0.6849   -20.3948    10.6473 H          1 BB1          0.0000
    27 H27       -0.5019   -18.6075     8.8702 H          1 BB1          0.0000
    28 H28       -1.7900   -18.2954    10.0590 H          1 BB1          0.0000
    29 H29        0.0265   -15.7027    11.8347 H          1 BB1          0.0000
    30 H30       -1.4880   -16.6351    11.7534 H          1 BB1          0.0000
    31 H31       -0.1617   -17.4794    13.6168 H          1 BB1          0.0000
    32 H32        1.2586   -17.6867    12.5583 H          1 BB1          0.0000
    33 H34       -0.0056   -22.4951    11.6885 H          1 BB1          0.0000
    34 O1         0.4960   -16.3601    11.6857 O.2        2 BB2          0.0000
    35 C2         0.1084   -15.2492    12.0190 C.2        2 BB2          0.0000
    36 C4        -0.1003   -14.2039    10.9989 C.ar       2 BB2          0.0000
    37 C5         0.6067   -14.2472     9.7949 C.ar       2 BB2          0.0000
    38 C6         0.4070   -13.2666     8.8454 C.ar       2 BB2          0.0000
    39 C7        -0.4913   -12.2416     9.0830 C.ar       2 BB2          0.0000
    40 C8        -1.1956   -12.1914    10.2743 C.ar       2 BB2          0.0000
    41 Br9       -2.4207   -10.7854    10.5877 Br         2 BB2          0.0000
    42 C10       -1.0103   -13.1691    11.2304 C.ar       2 BB2          0.0000
    43 H11        1.3085   -15.0465     9.6080 H          2 BB2          0.0000
    44 H12        0.9533   -13.2990     7.9144 H          2 BB2          0.0000
    45 H13       -0.6436   -11.4766     8.3360 H          2 BB2          0.0000
    46 H14       -1.5600   -13.1293    12.1592 H          2 BB2          0.0000
@<TRIPOS>BOND
     1      1      2 1
     2      1     15 1
     3      1     16 1
     4      1     17 1
     5      2      3 1
     6      2      6 1
     7      2     33 1
     8      3      4 1
     9      3     18 1
    10      3     19 1
    11      4      5 1
    12      4     20 1
    13      4     21 1
    14      5      6 1
    15      5     22 1
    16      5     23 1
    17      6      7 1
    18      6     24 1
    19      7      8 2
    20      7      9 am
    21      9     10 1
    22      9     14 1
    23     10     11 1
    24     10     25 1
    25     10     26 1
    26     11     12 1
    27     11     27 1
    28     11     28 1
    29     12     13 1
    30     13     14 1
    31     13     29 1
    32     13     30 1
    33     14     31 1
    34     14     32 1
    35     34     35 2
    36     35     36 1
    37     36     37 ar
    38     36     42 ar
    39     37     38 ar
    40     37     43 1
    41     38     39 ar
    42     38     44 1
    43     39     40 ar
    44     39     45 1
    45     40     41 1
    46     40     42 ar
    47     42     46 1
    48     12     35 am
@<TRIPOS>SUBSTRUCTURE
     1 BB1          12
     2 BB2          35
@<TRIPOS>MOLECULE
EN300-110418_i004_EN300-222254_i002_16_9_1
  56   59   2   0   0
SMALL
USER_CHARGES
@<TRIPOS>ATOM
     1 C1         1.1316   -21.3009    12.8952 C.3        1 BB1          0.0000
     2 N2        -0.0636   -22.1090    12.6189 N.4        1 BB1          1.0000
     3 C3        -0.1631   -23.2043    13.6069 C.3        1 BB1          0.0000
     4 C4        -1.6813   -23.3624    13.8707 C.3        1 BB1          0.0000
     5 C5        -2.1630   -21.8884    13.8219 C.3        1 BB1          0.0000
     6 C6        -1.2685   -21.2664    12.7291 C.3        1 BB1          0.0000
     7 C7        -0.8795   -19.8643    13.1216 C.2        1 BB1          0.0000
     8 O8        -1.0829   -19.4724    14.2512 O.2        1 BB1          0.0000
     9 N9        -0.3056   -19.0461    12.2174 N.am       1 BB1          0.0000
    10 C10       -0.1435   -19.4641    10.8167 C.3        1 BB1          0.0000
    11 C11       -0.7122   -18.3658     9.9120 C.3        1 BB1          0.0000
    12 N12       -0.0861   -17.0815    10.2534 N.am       1 BB1          0.0000
    13 C13       -0.4060   -16.6821    11.6304 C.3        1 BB1          0.0000
    14 C14        0.1698   -17.7091    12.6041 C.3        1 BB1          0.0000
    15 H15        2.0247   -21.8951    12.7013 H          1 BB1          0.0000
    16 H16        1.1330   -20.4220    12.2506 H          1 BB1          0.0000
    17 H17        1.1242   -20.9862    13.9387 H          1 BB1          0.0000
    18 H18        0.2485   -24.1257    13.1948 H          1 BB1          0.0000
    19 H19        0.3557   -22.9339    14.5267 H          1 BB1          0.0000
    20 H20       -2.1543   -23.9539    13.0868 H          1 BB1          0.0000
    21 H21       -1.8635   -23.8004    14.8521 H          1 BB1          0.0000
    22 H22       -3.2136   -21.8357    13.5364 H          1 BB1          0.0000
    23 H23       -1.9980   -21.3971    14.7809 H          1 BB1          0.0000
    24 H24       -1.8002   -21.2534    11.7777 H          1 BB1          0.0000
    25 H25        0.9145   -19.6076    10.5975 H          1 BB1          0.0000
    26 H26       -0.6849   -20.3948    10.6473 H          1 BB1          0.0000
    27 H27       -0.5019   -18.6075     8.8702 H          1 BB1          0.0000
    28 H28       -1.7900   -18.2954    10.0590 H          1 BB1          0.0000
    29 H29        0.0265   -15.7027    11.8347 H          1 BB1          0.0000
    30 H30       -1.4880   -16.6351    11.7534 H          1 BB1          0.0000
    31 H31       -0.1617   -17.4794    13.6168 H          1 BB1          0.0000
    32 H32        1.2586   -17.6867    12.5583 H          1 BB1          0.0000
    33 H34       -0.0056   -22.4951    11.6885 H          1 BB1          0.0000
    34 O1        -0.2518   -16.8805    10.2544 O.2        2 BB2          0.0000
    35 C2        -0.3919   -16.9343     9.0444 C.2        2 BB2          0.0000
    36 C4        -0.1618   -15.7049     8.2039 C.3        2 BB2          0.0000
    37 C5         0.9915   -15.8536     7.1976 C.3        2 BB2          0.0000
    38 C6         1.3768   -14.4060     7.5447 C.3        2 BB2          0.0000
    39 C7         0.6904   -14.6319     8.9021 C.3        2 BB2          0.0000
    40 C8        -0.1062   -13.4455     9.3806 C.ar       2 BB2          0.0000
    41 C9        -0.3494   -12.3867     8.5268 C.ar       2 BB2          0.0000
    42 C10       -1.0796   -11.2978     8.9651 C.ar       2 BB2          0.0000
    43 C11       -1.5683   -11.2671    10.2590 C.ar       2 BB2          0.0000
    44 Cl12      -2.4857    -9.8994    10.8081 Cl         2 BB2          0.0000
    45 C13       -1.3262   -12.3265    11.1150 C.ar       2 BB2          0.0000
    46 C14       -0.5994   -13.4191    10.6744 C.ar       2 BB2          0.0000
    47 F15       -0.3628   -14.4545    11.5093 F          2 BB2          0.0000
    48 H16       -1.0793   -15.3164     7.7621 H          2 BB2          0.0000
    49 H17        1.7396   -16.5881     7.4961 H          2 BB2          0.0000
    50 H18        0.6586   -15.9819     6.1676 H          2 BB2          0.0000
    51 H19        2.4524   -14.2466     7.6205 H          2 BB2          0.0000
    52 H20        0.8803   -13.6610     6.9229 H          2 BB2          0.0000
    53 H21        1.3560   -15.0323     9.6667 H          2 BB2          0.0000
    54 H22        0.0317   -12.4097     7.5164 H          2 BB2          0.0000
    55 H23       -1.2685   -10.4704     8.2971 H          2 BB2          0.0000
    56 H24       -1.7075   -12.3029    12.1251 H          2 BB2          0.0000
@<TRIPOS>BOND
     1      1      2 1
     2      1     15 1
     3      1     16 1
     4      1     17 1
     5      2      3 1
     6      2      6 1
     7      2     33 1
     8      3      4 1
     9      3     18 1
    10      3     19 1
    11      4      5 1
    12      4     20 1
    13      4     21 1
    14      5      6 1
    15      5     22 1
    16      5     23 1
    17      6      7 1
    18      6     24 1
    19      7      8 2
    20      7      9 am
    21      9     10 1
    22      9     14 1
    23     10     11 1
    24     10     25 1
    25     10     26 1
    26     11     12 1
    27     11     27 1
    28     11     28 1
    29     12     13 1
    30     13     14 1
    31     13     29 1
    32     13     30 1
    33     14     31 1
    34     14     32 1
    35     34     35 2
    36     35     36 1
    37     36     37 1
    38     36     39 1
    39     36     48 1
    40     37     38 1
    41     37     49 1
    42     37     50 1
    43     38     39 1
    44     38     51 1
    45     38     52 1
    46     39     40 1
    47     39     53 1
    48     40     41 ar
    49     40     46 ar
    50     41     42 ar
    51     41     54 1
    52     42     43 ar
    53     42     55 1
    54     43     44 1
    55     43     45 ar
    56     45     46 ar
    57     45     56 1
    58     46     47 1
    59     12     35 am
@<TRIPOS>SUBSTRUCTURE
     1 BB1          12
     2 BB2          35
@<TRIPOS>MOLECULE
EN300-110418_i004_EN300-1165841_i001_17_10_1
  61   63   2   0   0
SMALL
USER_CHARGES
@<TRIPOS>ATOM
     1 C1        -0.6399   -10.1642    10.7330 C.3        1 BB1          0.0000
     2 N2        -2.0037   -10.5626    11.1062 N.4        1 BB1          1.0000
     3 C3        -2.9806    -9.6671    10.4508 C.3        1 BB1          0.0000
     4 C4        -4.1809   -10.5810    10.0987 C.3        1 BB1          0.0000
     5 C5        -3.4650   -11.8974     9.6968 C.3        1 BB1          0.0000
     6 C6        -2.2577   -11.9437    10.6567 C.3        1 BB1          0.0000
     7 C7        -1.0481   -12.4782     9.9340 C.2        1 BB1          0.0000
     8 O8        -0.8135   -12.1218     8.7986 O.2        1 BB1          0.0000
     9 N9        -0.2271   -13.3523    10.5491 N.am       1 BB1          0.0000
    10 C10       -0.5472   -13.8766    11.8855 C.3        1 BB1          0.0000
    11 C11       -0.4507   -15.4054    11.8445 C.3        1 BB1          0.0000
    12 N12        0.8659   -15.7959    11.3230 N.am       1 BB1          0.0000
    13 C13        1.0480   -15.3384     9.9390 C.3        1 BB1          0.0000
    14 C14        1.0098   -13.8115     9.8994 C.3        1 BB1          0.0000
    15 H15       -0.4151    -9.1891    11.1653 H          1 BB1          0.0000
    16 H16        0.0697   -10.9008    11.1096 H          1 BB1          0.0000
    17 H17       -0.5624   -10.1070     9.6473 H          1 BB1          0.0000
    18 H18       -3.2921    -8.8788    11.1361 H          1 BB1          0.0000
    19 H19       -2.5529    -9.2368     9.5452 H          1 BB1          0.0000
    20 H20       -4.8223   -10.7346    10.9664 H          1 BB1          0.0000
    21 H21       -4.7490   -10.1743     9.2621 H          1 BB1          0.0000
    22 H22       -4.1178   -12.7554     9.8568 H          1 BB1          0.0000
    23 H23       -3.1314   -11.8536     8.6599 H          1 BB1          0.0000
    24 H24       -2.4896   -12.5758    11.5139 H          1 BB1          0.0000
    25 H25        0.1635   -13.4842    12.6127 H          1 BB1          0.0000
    26 H26       -1.5592   -13.5809    12.1620 H          1 BB1          0.0000
    27 H27       -0.5766   -15.8049    12.8507 H          1 BB1          0.0000
    28 H28       -1.2312   -15.8018    11.1951 H          1 BB1          0.0000
    29 H29        2.0092   -15.6895     9.5635 H          1 BB1          0.0000
    30 H30        0.2467   -15.7358     9.3162 H          1 BB1          0.0000
    31 H31        1.0295   -13.4716     8.8639 H          1 BB1          0.0000
    32 H32        1.8693   -13.4098    10.4360 H          1 BB1          0.0000
    33 H34       -2.1120   -10.5082    12.1079 H          1 BB1          0.0000
    34 C1        -0.7086   -16.1151    14.9647 C.3        2 BB2          0.0000
    35 C2        -0.2456   -16.3017    13.5184 C.3        2 BB2          0.0000
    36 N3        -0.6091   -17.6484    13.0577 N.4        2 BB2          1.0000
    37 C4         0.1821   -18.6446    13.7899 C.3        2 BB2          0.0000
    38 C5        -0.2499   -20.0519    13.3722 C.3        2 BB2          0.0000
    39 C6        -0.0237   -20.2238    11.8674 C.3        2 BB2          0.0000
    40 O7         1.3709   -20.1085    11.5776 O.3        2 BB2          0.0000
    41 C8        -0.7944   -19.1335    11.1174 C.3        2 BB2          0.0000
    42 C9        -0.3422   -17.7602    11.6187 C.3        2 BB2          0.0000
    43 C10       -0.5062   -21.5488    11.4453 C.1        2 BB2          0.0000
    44 C11       -0.8911   -22.6057    11.1088 C.1        2 BB2          0.0000
    45 C12        1.2499   -16.1319    13.4438 C.2        2 BB2          0.0000
    46 O13        1.8211   -16.2244    12.3706 O.2        2 BB2          0.0000
    47 H15       -0.2264   -16.8588    15.5993 H          2 BB2          0.0000
    48 H16       -0.4388   -15.1159    15.3066 H          2 BB2          0.0000
    49 H17       -1.7903   -16.2380    15.0186 H          2 BB2          0.0000
    50 H18       -0.7277   -15.5581    12.8838 H          2 BB2          0.0000
    51 H19        1.2392   -18.5070    13.5624 H          2 BB2          0.0000
    52 H20        0.0225   -18.5189    14.8608 H          2 BB2          0.0000
    53 H21        0.3399   -20.7900    13.9156 H          2 BB2          0.0000
    54 H22       -1.3069   -20.1906    13.5996 H          2 BB2          0.0000
    55 H23       -0.5938   -19.2152    10.0492 H          2 BB2          0.0000
    56 H24       -1.8626   -19.2532    11.2980 H          2 BB2          0.0000
    57 H25       -0.8888   -16.9816    11.0867 H          2 BB2          0.0000
    58 H26        0.7260   -17.6415    11.4374 H          2 BB2          0.0000
    59 H27       -1.2353   -23.5508    10.8077 H          2 BB2          0.0000
    60 H28        1.5903   -20.2342    10.6442 H          2 BB2          0.0000
    61 H29       -1.5906   -17.8078    13.2291 H          2 BB2          0.0000
@<TRIPOS>BOND
     1      1      2 1
     2      1     15 1
     3      1     16 1
     4      1     17 1
     5      2      3 1
     6      2      6 1
     7      2     33 1
     8      3      4 1
     9      3     18 1
    10      3     19 1
    11      4      5 1
    12      4     20 1
    13      4     21 1
    14      5      6 1
    15      5     22 1
    16      5     23 1
    17      6      7 1
    18      6     24 1
    19      7      8 2
    20      7      9 am
    21      9     10 1
    22      9     14 1
    23     10     11 1
    24     10     25 1
    25     10     26 1
    26     11     12 1
    27     11     27 1
    28     11     28 1
    29     12     13 1
    30     13     14 1
    31     13     29 1
    32     13     30 1
    33     14     31 1
    34     14     32 1
    35     34     35 1
    36     34     47 1
    37     34     48 1
    38     34     49 1
    39     35     36 1
    40     35     45 1
    41     35     50 1
    42     36     37 1
    43     36     42 1
    44     36     61 1
    45     37     38 1
    46     37     51 1
    47     37     52 1
    48     38     39 1
    49     38     53 1
    50     38     54 1
    51     39     40 1
    52     39     41 1
    53     39     43 1
    54     40     60 1
    55     41     42 1
    56     41     55 1
    57     41     56 1
    58     42     57 1
    59     42     58 1
    60     43     44 3
    61     44     59 1
    62     45     46 2
    63     12     45 am
@<TRIPOS>SUBSTRUCTURE
     1 BB1          12
     2 BB2          45
@<TRIPOS>MOLECULE
EN300-110418_i004_EN300-34862_i002_17_1_1
  45   47   2   0   0
SMALL
USER_CHARGES
@<TRIPOS>ATOM
     1 C1        -0.6399   -10.1642    10.7330 C.3        1 BB1          0.0000
     2 N2        -2.0037   -10.5626    11.1062 N.4        1 BB1          1.0000
     3 C3        -2.9806    -9.6671    10.4508 C.3        1 BB1          0.0000
     4 C4        -4.1809   -10.5810    10.0987 C.3        1 BB1          0.0000
     5 C5        -3.4650   -11.8974     9.6968 C.3        1 BB1          0.0000
     6 C6        -2.2577   -11.9437    10.6567 C.3        1 BB1          0.0000
     7 C7        -1.0481   -12.4782     9.9340 C.2        1 BB1          0.0000
     8 O8        -0.8135   -12.1218     8.7986 O.2        1 BB1          0.0000
     9 N9        -0.2271   -13.3523    10.5491 N.am       1 BB1          0.0000
    10 C10       -0.5472   -13.8766    11.8855 C.3        1 BB1          0.0000
    11 C11       -0.4507   -15.4054    11.8445 C.3        1 BB1          0.0000
    12 N12        0.8659   -15.7959    11.3230 N.am       1 BB1          0.0000
    13 C13        1.0480   -15.3384     9.9390 C.3        1 BB1          0.0000
    14 C14        1.0098   -13.8115     9.8994 C.3        1 BB1          0.0000
    15 H15       -0.4151    -9.1891    11.1653 H          1 BB1          0.0000
    16 H16        0.0697   -10.9008    11.1096 H          1 BB1          0.0000
    17 H17       -0.5624   -10.1070     9.6473 H          1 BB1          0.0000
    18 H18       -3.2921    -8.8788    11.1361 H          1 BB1          0.0000
    19 H19       -2.5529    -9.2368     9.5452 H          1 BB1          0.0000
    20 H20       -4.8223   -10.7346    10.9664 H          1 BB1          0.0000
    21 H21       -4.7490   -10.1743     9.2621 H          1 BB1          0.0000
    22 H22       -4.1178   -12.7554     9.8568 H          1 BB1          0.0000
    23 H23       -3.1314   -11.8536     8.6599 H          1 BB1          0.0000
    24 H24       -2.4896   -12.5758    11.5139 H          1 BB1          0.0000
    25 H25        0.1635   -13.4842    12.6127 H          1 BB1          0.0000
    26 H26       -1.5592   -13.5809    12.1620 H          1 BB1          0.0000
    27 H27       -0.5766   -15.8049    12.8507 H          1 BB1          0.0000
    28 H28       -1.2312   -15.8018    11.1951 H          1 BB1          0.0000
    29 H29        2.0092   -15.6895     9.5635 H          1 BB1          0.0000
    30 H30        0.2467   -15.7358     9.3162 H          1 BB1          0.0000
    31 H31        1.0295   -13.4716     8.8639 H          1 BB1          0.0000
    32 H32        1.8693   -13.4098    10.4360 H          1 BB1          0.0000
    33 H34       -2.1120   -10.5082    12.1079 H          1 BB1          0.0000
    34 C2         1.7110   -16.2827    13.3004 C.2        2 BB2          0.0000
    35 O3         1.8462   -15.5991    12.2999 O.2        2 BB2          0.0000
    36 C4         2.4553   -17.5868    13.4281 C.3        2 BB2          0.0000
    37 C5         2.0008   -18.2992    14.7086 C.3        2 BB2          0.0000
    38 S6         1.3339   -19.8858    14.1146 S.3        2 BB2          0.0000
    39 C7         1.6432   -19.5854    12.4010 C.2        2 BB2          0.0000
    40 O8         1.3812   -20.3543    11.4960 O.2        2 BB2          0.0000
    41 N9         2.2058   -18.3893    12.2522 N.am       2 BB2          0.0000
    42 H10        3.5235   -17.3808    13.4958 H          2 BB2          0.0000
    43 H11        2.8475   -18.4656    15.3747 H          2 BB2          0.0000
    44 H12        1.2247   -17.7226    15.2121 H          2 BB2          0.0000
    45 H13        2.4438   -18.0617    11.3709 H          2 BB2          0.0000
@<TRIPOS>BOND
     1      1      2 1
     2      1     15 1
     3      1     16 1
     4      1     17 1
     5      2      3 1
     6      2      6 1
     7      2     33 1
     8      3      4 1
     9      3     18 1
    10      3     19 1
    11      4      5 1
    12      4     20 1
    13      4     21 1
    14      5      6 1
    15      5     22 1
    16      5     23 1
    17      6      7 1
    18      6     24 1
    19      7      8 2
    20      7      9 am
    21      9     10 1
    22      9     14 1
    23     10     11 1
    24     10     25 1
    25     10     26 1
    26     11     12 1
    27     11     27 1
    28     11     28 1
    29     12     13 1
    30     13     14 1
    31     13     29 1
    32     13     30 1
    33     14     31 1
    34     14     32 1
    35     34     35 2
    36     34     36 1
    37     36     37 1
    38     36     41 1
    39     36     42 1
    40     37     38 1
    41     37     43 1
    42     37     44 1
    43     38     39 1
    44     39     40 2
    45     39     41 am
    46     41     45 1
    47     12     34 am
@<TRIPOS>SUBSTRUCTURE
     1 BB1          12
     2 BB2          34
@<TRIPOS>MOLECULE
EN300-110418_i004_EN300-34862_i002_17_14_1
  45   47   2   0   0
SMALL
USER_CHARGES
@<TRIPOS>ATOM
     1 C1        -0.6399   -10.1642    10.7330 C.3        1 BB1          0.0000
     2 N2        -2.0037   -10.5626    11.1062 N.4        1 BB1          1.0000
     3 C3        -2.9806    -9.6671    10.4508 C.3        1 BB1          0.0000
     4 C4        -4.1809   -10.5810    10.0987 C.3        1 BB1          0.0000
     5 C5        -3.4650   -11.8974     9.6968 C.3        1 BB1          0.0000
     6 C6        -2.2577   -11.9437    10.6567 C.3        1 BB1          0.0000
     7 C7        -1.0481   -12.4782     9.9340 C.2        1 BB1          0.0000
     8 O8        -0.8135   -12.1218     8.7986 O.2        1 BB1          0.0000
     9 N9        -0.2271   -13.3523    10.5491 N.am       1 BB1          0.0000
    10 C10       -0.5472   -13.8766    11.8855 C.3        1 BB1          0.0000
    11 C11       -0.4507   -15.4054    11.8445 C.3        1 BB1          0.0000
    12 N12        0.8659   -15.7959    11.3230 N.am       1 BB1          0.0000
    13 C13        1.0480   -15.3384     9.9390 C.3        1 BB1          0.0000
    14 C14        1.0098   -13.8115     9.8994 C.3        1 BB1          0.0000
    15 H15       -0.4151    -9.1891    11.1653 H          1 BB1          0.0000
    16 H16        0.0697   -10.9008    11.1096 H          1 BB1          0.0000
    17 H17       -0.5624   -10.1070     9.6473 H          1 BB1          0.0000
    18 H18       -3.2921    -8.8788    11.1361 H          1 BB1          0.0000
    19 H19       -2.5529    -9.2368     9.5452 H          1 BB1          0.0000
    20 H20       -4.8223   -10.7346    10.9664 H          1 BB1          0.0000
    21 H21       -4.7490   -10.1743     9.2621 H          1 BB1          0.0000
    22 H22       -4.1178   -12.7554     9.8568 H          1 BB1          0.0000
    23 H23       -3.1314   -11.8536     8.6599 H          1 BB1          0.0000
    24 H24       -2.4896   -12.5758    11.5139 H          1 BB1          0.0000
    25 H25        0.1635   -13.4842    12.6127 H          1 BB1          0.0000
    26 H26       -1.5592   -13.5809    12.1620 H          1 BB1          0.0000
    27 H27       -0.5766   -15.8049    12.8507 H          1 BB1          0.0000
    28 H28       -1.2312   -15.8018    11.1951 H          1 BB1          0.0000
    29 H29        2.0092   -15.6895     9.5635 H          1 BB1          0.0000
    30 H30        0.2467   -15.7358     9.3162 H          1 BB1          0.0000
    31 H31        1.0295   -13.4716     8.8639 H          1 BB1          0.0000
    32 H32        1.8693   -13.4098    10.4360 H          1 BB1          0.0000
    33 H34       -2.1120   -10.5082    12.1079 H          1 BB1          0.0000
    34 O1         0.6242   -15.5676    12.3308 O.2        2 BB2          0.0000
    35 C2         0.8251   -16.2952    13.2882 C.2        2 BB2          0.0000
    36 C4         1.0108   -17.7766    13.0830 C.3        2 BB2          0.0000
    37 C5        -0.0651   -18.5304    13.8755 C.3        2 BB2          0.0000
    38 S6        -0.9625   -19.4773    12.6055 S.3        2 BB2          0.0000
    39 C7         0.0017   -18.9102    11.2376 C.2        2 BB2          0.0000
    40 O8        -0.1655   -19.2378    10.0784 O.2        2 BB2          0.0000
    41 N9         0.9376   -18.0697    11.6695 N.am       2 BB2          0.0000
    42 H10        1.9940   -18.0661    13.4540 H          2 BB2          0.0000
    43 H11        0.3944   -19.2026    14.6002 H          2 BB2          0.0000
    44 H12       -0.7345   -17.8292    14.3739 H          2 BB2          0.0000
    45 H13        1.5594   -17.6608    11.0474 H          2 BB2          0.0000
@<TRIPOS>BOND
     1      1      2 1
     2      1     15 1
     3      1     16 1
     4      1     17 1
     5      2      3 1
     6      2      6 1
     7      2     33 1
     8      3      4 1
     9      3     18 1
    10      3     19 1
    11      4      5 1
    12      4     20 1
    13      4     21 1
    14      5      6 1
    15      5     22 1
    16      5     23 1
    17      6      7 1
    18      6     24 1
    19      7      8 2
    20      7      9 am
    21      9     10 1
    22      9     14 1
    23     10     11 1
    24     10     25 1
    25     10     26 1
    26     11     12 1
    27     11     27 1
    28     11     28 1
    29     12     13 1
    30     13     14 1
    31     13     29 1
    32     13     30 1
    33     14     31 1
    34     14     32 1
    35     34     35 2
    36     35     36 1
    37     36     37 1
    38     36     41 1
    39     36     42 1
    40     37     38 1
    41     37     43 1
    42     37     44 1
    43     38     39 1
    44     39     40 2
    45     39     41 am
    46     41     45 1
    47     12     35 am
@<TRIPOS>SUBSTRUCTURE
     1 BB1          12
     2 BB2          35
@<TRIPOS>MOLECULE
EN300-110418_i004_EN300-34862_i002_17_16_1
  45   47   2   0   0
SMALL
USER_CHARGES
@<TRIPOS>ATOM
     1 C1        -0.6399   -10.1642    10.7330 C.3        1 BB1          0.0000
     2 N2        -2.0037   -10.5626    11.1062 N.4        1 BB1          1.0000
     3 C3        -2.9806    -9.6671    10.4508 C.3        1 BB1          0.0000
     4 C4        -4.1809   -10.5810    10.0987 C.3        1 BB1          0.0000
     5 C5        -3.4650   -11.8974     9.6968 C.3        1 BB1          0.0000
     6 C6        -2.2577   -11.9437    10.6567 C.3        1 BB1          0.0000
     7 C7        -1.0481   -12.4782     9.9340 C.2        1 BB1          0.0000
     8 O8        -0.8135   -12.1218     8.7986 O.2        1 BB1          0.0000
     9 N9        -0.2271   -13.3523    10.5491 N.am       1 BB1          0.0000
    10 C10       -0.5472   -13.8766    11.8855 C.3        1 BB1          0.0000
    11 C11       -0.4507   -15.4054    11.8445 C.3        1 BB1          0.0000
    12 N12        0.8659   -15.7959    11.3230 N.am       1 BB1          0.0000
    13 C13        1.0480   -15.3384     9.9390 C.3        1 BB1          0.0000
    14 C14        1.0098   -13.8115     9.8994 C.3        1 BB1          0.0000
    15 H15       -0.4151    -9.1891    11.1653 H          1 BB1          0.0000
    16 H16        0.0697   -10.9008    11.1096 H          1 BB1          0.0000
    17 H17       -0.5624   -10.1070     9.6473 H          1 BB1          0.0000
    18 H18       -3.2921    -8.8788    11.1361 H          1 BB1          0.0000
    19 H19       -2.5529    -9.2368     9.5452 H          1 BB1          0.0000
    20 H20       -4.8223   -10.7346    10.9664 H          1 BB1          0.0000
    21 H21       -4.7490   -10.1743     9.2621 H          1 BB1          0.0000
    22 H22       -4.1178   -12.7554     9.8568 H          1 BB1          0.0000
    23 H23       -3.1314   -11.8536     8.6599 H          1 BB1          0.0000
    24 H24       -2.4896   -12.5758    11.5139 H          1 BB1          0.0000
    25 H25        0.1635   -13.4842    12.6127 H          1 BB1          0.0000
    26 H26       -1.5592   -13.5809    12.1620 H          1 BB1          0.0000
    27 H27       -0.5766   -15.8049    12.8507 H          1 BB1          0.0000
    28 H28       -1.2312   -15.8018    11.1951 H          1 BB1          0.0000
    29 H29        2.0092   -15.6895     9.5635 H          1 BB1          0.0000
    30 H30        0.2467   -15.7358     9.3162 H          1 BB1          0.0000
    31 H31        1.0295   -13.4716     8.8639 H          1 BB1          0.0000
    32 H32        1.8693   -13.4098    10.4360 H          1 BB1          0.0000
    33 H34       -2.1120   -10.5082    12.1079 H          1 BB1          0.0000
    34 O1        -0.6972   -16.6529    13.2951 O.2        2 BB2          0.0000
    35 C2         0.4752   -16.6360    13.6291 C.2        2 BB2          0.0000
    36 C4         1.3028   -17.8921    13.5381 C.3        2 BB2          0.0000
    37 C5         0.7267   -18.9418    14.4973 C.3        2 BB2          0.0000
    38 S6         0.2961   -20.3385    13.4116 S.3        2 BB2          0.0000
    39 C7         0.8294   -19.5753    11.9097 C.2        2 BB2          0.0000
    40 O8         0.7727   -20.0838    10.8064 O.2        2 BB2          0.0000
    41 N9         1.3016   -18.3596    12.1703 N.am       2 BB2          0.0000
    42 H10        2.3271   -17.6647    13.8334 H          2 BB2          0.0000
    43 H11        1.4762   -19.2432    15.2292 H          2 BB2          0.0000
    44 H12       -0.1627   -18.5568    14.9960 H          2 BB2          0.0000
    45 H13        1.6386   -17.7969    11.4557 H          2 BB2          0.0000
@<TRIPOS>BOND
     1      1      2 1
     2      1     15 1
     3      1     16 1
     4      1     17 1
     5      2      3 1
     6      2      6 1
     7      2     33 1
     8      3      4 1
     9      3     18 1
    10      3     19 1
    11      4      5 1
    12      4     20 1
    13      4     21 1
    14      5      6 1
    15      5     22 1
    16      5     23 1
    17      6      7 1
    18      6     24 1
    19      7      8 2
    20      7      9 am
    21      9     10 1
    22      9     14 1
    23     10     11 1
    24     10     25 1
    25     10     26 1
    26     11     12 1
    27     11     27 1
    28     11     28 1
    29     12     13 1
    30     13     14 1
    31     13     29 1
    32     13     30 1
    33     14     31 1
    34     14     32 1
    35     34     35 2
    36     35     36 1
    37     36     37 1
    38     36     41 1
    39     36     42 1
    40     37     38 1
    41     37     43 1
    42     37     44 1
    43     38     39 1
    44     39     40 2
    45     39     41 am
    46     41     45 1
    47     12     35 am
@<TRIPOS>SUBSTRUCTURE
     1 BB1          12
     2 BB2          35
@<TRIPOS>MOLECULE
EN300-110418_i004_EN300-34862_i002_17_3_1
  45   47   2   0   0
SMALL
USER_CHARGES
@<TRIPOS>ATOM
     1 C1        -0.6399   -10.1642    10.7330 C.3        1 BB1          0.0000
     2 N2        -2.0037   -10.5626    11.1062 N.4        1 BB1          1.0000
     3 C3        -2.9806    -9.6671    10.4508 C.3        1 BB1          0.0000
     4 C4        -4.1809   -10.5810    10.0987 C.3        1 BB1          0.0000
     5 C5        -3.4650   -11.8974     9.6968 C.3        1 BB1          0.0000
     6 C6        -2.2577   -11.9437    10.6567 C.3        1 BB1          0.0000
     7 C7        -1.0481   -12.4782     9.9340 C.2        1 BB1          0.0000
     8 O8        -0.8135   -12.1218     8.7986 O.2        1 BB1          0.0000
     9 N9        -0.2271   -13.3523    10.5491 N.am       1 BB1          0.0000
    10 C10       -0.5472   -13.8766    11.8855 C.3        1 BB1          0.0000
    11 C11       -0.4507   -15.4054    11.8445 C.3        1 BB1          0.0000
    12 N12        0.8659   -15.7959    11.3230 N.am       1 BB1          0.0000
    13 C13        1.0480   -15.3384     9.9390 C.3        1 BB1          0.0000
    14 C14        1.0098   -13.8115     9.8994 C.3        1 BB1          0.0000
    15 H15       -0.4151    -9.1891    11.1653 H          1 BB1          0.0000
    16 H16        0.0697   -10.9008    11.1096 H          1 BB1          0.0000
    17 H17       -0.5624   -10.1070     9.6473 H          1 BB1          0.0000
    18 H18       -3.2921    -8.8788    11.1361 H          1 BB1          0.0000
    19 H19       -2.5529    -9.2368     9.5452 H          1 BB1          0.0000
    20 H20       -4.8223   -10.7346    10.9664 H          1 BB1          0.0000
    21 H21       -4.7490   -10.1743     9.2621 H          1 BB1          0.0000
    22 H22       -4.1178   -12.7554     9.8568 H          1 BB1          0.0000
    23 H23       -3.1314   -11.8536     8.6599 H          1 BB1          0.0000
    24 H24       -2.4896   -12.5758    11.5139 H          1 BB1          0.0000
    25 H25        0.1635   -13.4842    12.6127 H          1 BB1          0.0000
    26 H26       -1.5592   -13.5809    12.1620 H          1 BB1          0.0000
    27 H27       -0.5766   -15.8049    12.8507 H          1 BB1          0.0000
    28 H28       -1.2312   -15.8018    11.1951 H          1 BB1          0.0000
    29 H29        2.0092   -15.6895     9.5635 H          1 BB1          0.0000
    30 H30        0.2467   -15.7358     9.3162 H          1 BB1          0.0000
    31 H31        1.0295   -13.4716     8.8639 H          1 BB1          0.0000
    32 H32        1.8693   -13.4098    10.4360 H          1 BB1          0.0000
    33 H34       -2.1120   -10.5082    12.1079 H          1 BB1          0.0000
    34 C2         1.5373   -16.5492    13.4809 C.2        2 BB2          0.0000
    35 O3         2.0061   -15.7689    12.6698 O.2        2 BB2          0.0000
    36 C4         1.8134   -18.0252    13.3532 C.3        2 BB2          0.0000
    37 C5         1.0261   -18.7770    14.4343 C.3        2 BB2          0.0000
    38 S6        -0.0426   -19.9094    13.4907 S.3        2 BB2          0.0000
    39 C7         0.5226   -19.4077    11.8934 C.2        2 BB2          0.0000
    40 O8         0.1265   -19.8593    10.8359 O.2        2 BB2          0.0000
    41 N9         1.4468   -18.4603    12.0245 N.am       2 BB2          0.0000
    42 H10        2.8788   -18.2013    13.5019 H          2 BB2          0.0000
    43 H11        1.7025   -19.3380    15.0793 H          2 BB2          0.0000
    44 H12        0.4242   -18.0832    15.0212 H          2 BB2          0.0000
    45 H13        1.8667   -18.0683    11.2429 H          2 BB2          0.0000
@<TRIPOS>BOND
     1      1      2 1
     2      1     15 1
     3      1     16 1
     4      1     17 1
     5      2      3 1
     6      2      6 1
     7      2     33 1
     8      3      4 1
     9      3     18 1
    10      3     19 1
    11      4      5 1
    12      4     20 1
    13      4     21 1
    14      5      6 1
    15      5     22 1
    16      5     23 1
    17      6      7 1
    18      6     24 1
    19      7      8 2
    20      7      9 am
    21      9     10 1
    22      9     14 1
    23     10     11 1
    24     10     25 1
    25     10     26 1
    26     11     12 1
    27     11     27 1
    28     11     28 1
    29     12     13 1
    30     13     14 1
    31     13     29 1
    32     13     30 1
    33     14     31 1
    34     14     32 1
    35     34     35 2
    36     34     36 1
    37     36     37 1
    38     36     41 1
    39     36     42 1
    40     37     38 1
    41     37     43 1
    42     37     44 1
    43     38     39 1
    44     39     40 2
    45     39     41 am
    46     41     45 1
    47     12     34 am
@<TRIPOS>SUBSTRUCTURE
     1 BB1          12
     2 BB2          34
@<TRIPOS>MOLECULE
EN300-110418_i004_EN300-34862_i002_17_4_1
  45   47   2   0   0
SMALL
USER_CHARGES
@<TRIPOS>ATOM
     1 C1        -0.6399   -10.1642    10.7330 C.3        1 BB1          0.0000
     2 N2        -2.0037   -10.5626    11.1062 N.4        1 BB1          1.0000
     3 C3        -2.9806    -9.6671    10.4508 C.3        1 BB1          0.0000
     4 C4        -4.1809   -10.5810    10.0987 C.3        1 BB1          0.0000
     5 C5        -3.4650   -11.8974     9.6968 C.3        1 BB1          0.0000
     6 C6        -2.2577   -11.9437    10.6567 C.3        1 BB1          0.0000
     7 C7        -1.0481   -12.4782     9.9340 C.2        1 BB1          0.0000
     8 O8        -0.8135   -12.1218     8.7986 O.2        1 BB1          0.0000
     9 N9        -0.2271   -13.3523    10.5491 N.am       1 BB1          0.0000
    10 C10       -0.5472   -13.8766    11.8855 C.3        1 BB1          0.0000
    11 C11       -0.4507   -15.4054    11.8445 C.3        1 BB1          0.0000
    12 N12        0.8659   -15.7959    11.3230 N.am       1 BB1          0.0000
    13 C13        1.0480   -15.3384     9.9390 C.3        1 BB1          0.0000
    14 C14        1.0098   -13.8115     9.8994 C.3        1 BB1          0.0000
    15 H15       -0.4151    -9.1891    11.1653 H          1 BB1          0.0000
    16 H16        0.0697   -10.9008    11.1096 H          1 BB1          0.0000
    17 H17       -0.5624   -10.1070     9.6473 H          1 BB1          0.0000
    18 H18       -3.2921    -8.8788    11.1361 H          1 BB1          0.0000
    19 H19       -2.5529    -9.2368     9.5452 H          1 BB1          0.0000
    20 H20       -4.8223   -10.7346    10.9664 H          1 BB1          0.0000
    21 H21       -4.7490   -10.1743     9.2621 H          1 BB1          0.0000
    22 H22       -4.1178   -12.7554     9.8568 H          1 BB1          0.0000
    23 H23       -3.1314   -11.8536     8.6599 H          1 BB1          0.0000
    24 H24       -2.4896   -12.5758    11.5139 H          1 BB1          0.0000
    25 H25        0.1635   -13.4842    12.6127 H          1 BB1          0.0000
    26 H26       -1.5592   -13.5809    12.1620 H          1 BB1          0.0000
    27 H27       -0.5766   -15.8049    12.8507 H          1 BB1          0.0000
    28 H28       -1.2312   -15.8018    11.1951 H          1 BB1          0.0000
    29 H29        2.0092   -15.6895     9.5635 H          1 BB1          0.0000
    30 H30        0.2467   -15.7358     9.3162 H          1 BB1          0.0000
    31 H31        1.0295   -13.4716     8.8639 H          1 BB1          0.0000
    32 H32        1.8693   -13.4098    10.4360 H          1 BB1          0.0000
    33 H34       -2.1120   -10.5082    12.1079 H          1 BB1          0.0000
    34 C2         0.4217   -16.2811    13.4086 C.2        2 BB2          0.0000
    35 O3        -0.1845   -16.2055    12.3535 O.2        2 BB2          0.0000
    36 C4         1.6010   -17.2107    13.5351 C.3        2 BB2          0.0000
    37 C5         1.4164   -18.0867    14.7810 C.3        2 BB2          0.0000
    38 S6         1.4167   -19.7857    14.1264 S.3        2 BB2          0.0000
    39 C7         1.6347   -19.3303    12.4330 C.2        2 BB2          0.0000
    40 O8         1.7078   -20.1089    11.5015 O.2        2 BB2          0.0000
    41 N9         1.7057   -18.0060    12.3327 N.am       2 BB2          0.0000
    42 H10        2.5093   -16.6187    13.6480 H          2 BB2          0.0000
    43 H11        2.2449   -17.9441    15.4749 H          2 BB2          0.0000
    44 H12        0.4666   -17.8645    15.2674 H          2 BB2          0.0000
    45 H13        1.8252   -17.5817    11.4687 H          2 BB2          0.0000
@<TRIPOS>BOND
     1      1      2 1
     2      1     15 1
     3      1     16 1
     4      1     17 1
     5      2      3 1
     6      2      6 1
     7      2     33 1
     8      3      4 1
     9      3     18 1
    10      3     19 1
    11      4      5 1
    12      4     20 1
    13      4     21 1
    14      5      6 1
    15      5     22 1
    16      5     23 1
    17      6      7 1
    18      6     24 1
    19      7      8 2
    20      7      9 am
    21      9     10 1
    22      9     14 1
    23     10     11 1
    24     10     25 1
    25     10     26 1
    26     11     12 1
    27     11     27 1
    28     11     28 1
    29     12     13 1
    30     13     14 1
    31     13     29 1
    32     13     30 1
    33     14     31 1
    34     14     32 1
    35     34     35 2
    36     34     36 1
    37     36     37 1
    38     36     41 1
    39     36     42 1
    40     37     38 1
    41     37     43 1
    42     37     44 1
    43     38     39 1
    44     39     40 2
    45     39     41 am
    46     41     45 1
    47     12     34 am
@<TRIPOS>SUBSTRUCTURE
     1 BB1          12
     2 BB2          34
@<TRIPOS>MOLECULE
EN300-110418_i004_EN300-107901_i001_17_10_1
  59   62   2   0   0
SMALL
USER_CHARGES
@<TRIPOS>ATOM
     1 C1        -0.6399   -10.1642    10.7330 C.3        1 BB1          0.0000
     2 N2        -2.0037   -10.5626    11.1062 N.4        1 BB1          1.0000
     3 C3        -2.9806    -9.6671    10.4508 C.3        1 BB1          0.0000
     4 C4        -4.1809   -10.5810    10.0987 C.3        1 BB1          0.0000
     5 C5        -3.4650   -11.8974     9.6968 C.3        1 BB1          0.0000
     6 C6        -2.2577   -11.9437    10.6567 C.3        1 BB1          0.0000
     7 C7        -1.0481   -12.4782     9.9340 C.2        1 BB1          0.0000
     8 O8        -0.8135   -12.1218     8.7986 O.2        1 BB1          0.0000
     9 N9        -0.2271   -13.3523    10.5491 N.am       1 BB1          0.0000
    10 C10       -0.5472   -13.8766    11.8855 C.3        1 BB1          0.0000
    11 C11       -0.4507   -15.4054    11.8445 C.3        1 BB1          0.0000
    12 N12        0.8659   -15.7959    11.3230 N.am       1 BB1          0.0000
    13 C13        1.0480   -15.3384     9.9390 C.3        1 BB1          0.0000
    14 C14        1.0098   -13.8115     9.8994 C.3        1 BB1          0.0000
    15 H15       -0.4151    -9.1891    11.1653 H          1 BB1          0.0000
    16 H16        0.0697   -10.9008    11.1096 H          1 BB1          0.0000
    17 H17       -0.5624   -10.1070     9.6473 H          1 BB1          0.0000
    18 H18       -3.2921    -8.8788    11.1361 H          1 BB1          0.0000
    19 H19       -2.5529    -9.2368     9.5452 H          1 BB1          0.0000
    20 H20       -4.8223   -10.7346    10.9664 H          1 BB1          0.0000
    21 H21       -4.7490   -10.1743     9.2621 H          1 BB1          0.0000
    22 H22       -4.1178   -12.7554     9.8568 H          1 BB1          0.0000
    23 H23       -3.1314   -11.8536     8.6599 H          1 BB1          0.0000
    24 H24       -2.4896   -12.5758    11.5139 H          1 BB1          0.0000
    25 H25        0.1635   -13.4842    12.6127 H          1 BB1          0.0000
    26 H26       -1.5592   -13.5809    12.1620 H          1 BB1          0.0000
    27 H27       -0.5766   -15.8049    12.8507 H          1 BB1          0.0000
    28 H28       -1.2312   -15.8018    11.1951 H          1 BB1          0.0000
    29 H29        2.0092   -15.6895     9.5635 H          1 BB1          0.0000
    30 H30        0.2467   -15.7358     9.3162 H          1 BB1          0.0000
    31 H31        1.0295   -13.4716     8.8639 H          1 BB1          0.0000
    32 H32        1.8693   -13.4098    10.4360 H          1 BB1          0.0000
    33 H34       -2.1120   -10.5082    12.1079 H          1 BB1          0.0000
    34 C2        -0.4508   -18.2813    11.6483 C.2        2 BB2          0.0000
    35 O3        -0.3641   -17.3883    10.8228 O.2        2 BB2          0.0000
    36 C4         0.6894   -19.2221    11.8524 C.3        2 BB2          0.0000
    37 C5         0.9486   -19.7899    13.2377 C.3        2 BB2          0.0000
    38 C6         0.0485   -19.4384    14.3884 C.3        2 BB2          0.0000
    39 C7         0.7429   -18.3633    15.2994 C.3        2 BB2          0.0000
    40 C8        -0.0985   -17.0976    14.9053 C.3        2 BB2          0.0000
    41 C9         0.3608   -16.2423    13.7478 C.3        2 BB2          0.0000
    42 C10        1.5570   -16.4209    12.8795 C.3        2 BB2          0.0000
    43 C11        2.3926   -17.6264    13.2577 C.3        2 BB2          0.0000
    44 C12        1.9693   -18.9017    12.5724 C.3        2 BB2          0.0000
    45 H13        0.7720   -19.9627    11.0205 H          2 BB2          0.0000
    46 H14        1.2022   -20.8921    13.2511 H          2 BB2          0.0000
    47 H15       -0.9189   -19.0660    14.0700 H          2 BB2          0.0000
    48 H16       -0.1201   -20.3286    15.0144 H          2 BB2          0.0000
    49 H17        0.4591   -18.6121    16.3459 H          2 BB2          0.0000
    50 H18        1.7722   -18.3219    15.2311 H          2 BB2          0.0000
    51 H19       -1.1228   -17.4381    14.7250 H          2 BB2          0.0000
    52 H20       -0.1394   -16.4717    15.8100 H          2 BB2          0.0000
    53 H21       -0.5252   -16.0921    13.0890 H          2 BB2          0.0000
    54 H22        0.4577   -15.2068    14.1828 H          2 BB2          0.0000
    55 H23        1.2931   -16.4337    11.8075 H          2 BB2          0.0000
    56 H24        2.1994   -15.5043    12.9645 H          2 BB2          0.0000
    57 H25        3.4369   -17.3919    12.8256 H          2 BB2          0.0000
    58 H26        2.6906   -17.6638    14.2941 H          2 BB2          0.0000
    59 H27        2.8853   -19.4430    12.1324 H          2 BB2          0.0000
@<TRIPOS>BOND
     1      1      2 1
     2      1     15 1
     3      1     16 1
     4      1     17 1
     5      2      3 1
     6      2      6 1
     7      2     33 1
     8      3      4 1
     9      3     18 1
    10      3     19 1
    11      4      5 1
    12      4     20 1
    13      4     21 1
    14      5      6 1
    15      5     22 1
    16      5     23 1
    17      6      7 1
    18      6     24 1
    19      7      8 2
    20      7      9 am
    21      9     10 1
    22      9     14 1
    23     10     11 1
    24     10     25 1
    25     10     26 1
    26     11     12 1
    27     11     27 1
    28     11     28 1
    29     12     13 1
    30     13     14 1
    31     13     29 1
    32     13     30 1
    33     14     31 1
    34     14     32 1
    35     34     35 2
    36     34     36 1
    37     36     37 1
    38     36     44 1
    39     36     45 1
    40     37     38 1
    41     37     44 1
    42     37     46 1
    43     38     39 1
    44     38     47 1
    45     38     48 1
    46     39     40 1
    47     39     49 1
    48     39     50 1
    49     40     41 1
    50     40     51 1
    51     40     52 1
    52     41     42 1
    53     41     53 1
    54     41     54 1
    55     42     43 1
    56     42     55 1
    57     42     56 1
    58     43     44 1
    59     43     57 1
    60     43     58 1
    61     44     59 1
    62     12     34 am
@<TRIPOS>SUBSTRUCTURE
     1 BB1          12
     2 BB2          34
@<TRIPOS>MOLECULE
EN300-110418_i004_EN300-107901_i001_17_7_1
  59   62   2   0   0
SMALL
USER_CHARGES
@<TRIPOS>ATOM
     1 C1        -0.6399   -10.1642    10.7330 C.3        1 BB1          0.0000
     2 N2        -2.0037   -10.5626    11.1062 N.4        1 BB1          1.0000
     3 C3        -2.9806    -9.6671    10.4508 C.3        1 BB1          0.0000
     4 C4        -4.1809   -10.5810    10.0987 C.3        1 BB1          0.0000
     5 C5        -3.4650   -11.8974     9.6968 C.3        1 BB1          0.0000
     6 C6        -2.2577   -11.9437    10.6567 C.3        1 BB1          0.0000
     7 C7        -1.0481   -12.4782     9.9340 C.2        1 BB1          0.0000
     8 O8        -0.8135   -12.1218     8.7986 O.2        1 BB1          0.0000
     9 N9        -0.2271   -13.3523    10.5491 N.am       1 BB1          0.0000
    10 C10       -0.5472   -13.8766    11.8855 C.3        1 BB1          0.0000
    11 C11       -0.4507   -15.4054    11.8445 C.3        1 BB1          0.0000
    12 N12        0.8659   -15.7959    11.3230 N.am       1 BB1          0.0000
    13 C13        1.0480   -15.3384     9.9390 C.3        1 BB1          0.0000
    14 C14        1.0098   -13.8115     9.8994 C.3        1 BB1          0.0000
    15 H15       -0.4151    -9.1891    11.1653 H          1 BB1          0.0000
    16 H16        0.0697   -10.9008    11.1096 H          1 BB1          0.0000
    17 H17       -0.5624   -10.1070     9.6473 H          1 BB1          0.0000
    18 H18       -3.2921    -8.8788    11.1361 H          1 BB1          0.0000
    19 H19       -2.5529    -9.2368     9.5452 H          1 BB1          0.0000
    20 H20       -4.8223   -10.7346    10.9664 H          1 BB1          0.0000
    21 H21       -4.7490   -10.1743     9.2621 H          1 BB1          0.0000
    22 H22       -4.1178   -12.7554     9.8568 H          1 BB1          0.0000
    23 H23       -3.1314   -11.8536     8.6599 H          1 BB1          0.0000
    24 H24       -2.4896   -12.5758    11.5139 H          1 BB1          0.0000
    25 H25        0.1635   -13.4842    12.6127 H          1 BB1          0.0000
    26 H26       -1.5592   -13.5809    12.1620 H          1 BB1          0.0000
    27 H27       -0.5766   -15.8049    12.8507 H          1 BB1          0.0000
    28 H28       -1.2312   -15.8018    11.1951 H          1 BB1          0.0000
    29 H29        2.0092   -15.6895     9.5635 H          1 BB1          0.0000
    30 H30        0.2467   -15.7358     9.3162 H          1 BB1          0.0000
    31 H31        1.0295   -13.4716     8.8639 H          1 BB1          0.0000
    32 H32        1.8693   -13.4098    10.4360 H          1 BB1          0.0000
    33 H34       -2.1120   -10.5082    12.1079 H          1 BB1          0.0000
    34 C2         0.5706   -16.0856    13.7822 C.2        2 BB2          0.0000
    35 O3         0.1830   -15.9635    12.6327 O.2        2 BB2          0.0000
    36 C4         1.9967   -16.4292    14.0563 C.3        2 BB2          0.0000
    37 C5         2.6861   -17.4833    13.2065 C.3        2 BB2          0.0000
    38 C6         1.9551   -18.1526    12.0772 C.3        2 BB2          0.0000
    39 C7         1.5006   -19.5914    12.5146 C.3        2 BB2          0.0000
    40 C8        -0.0382   -19.3396    12.6985 C.3        2 BB2          0.0000
    41 C9        -0.5530   -18.8947    14.0474 C.3        2 BB2          0.0000
    42 C10        0.2151   -18.6508    15.2992 C.3        2 BB2          0.0000
    43 C11        1.7000   -18.9082    15.1464 C.3        2 BB2          0.0000
    44 C12        2.4836   -17.7051    14.6841 C.3        2 BB2          0.0000
    45 H13        2.6114   -15.5201    14.2636 H          2 BB2          0.0000
    46 H14        3.7413   -17.2178    12.8977 H          2 BB2          0.0000
    47 H15        1.0901   -17.5911    11.7418 H          2 BB2          0.0000
    48 H16        2.6323   -18.2776    11.2178 H          2 BB2          0.0000
    49 H17        1.6049   -20.2376    11.6150 H          2 BB2          0.0000
    50 H18        2.0364   -20.0087    13.2921 H          2 BB2          0.0000
    51 H19       -0.3369   -18.6143    11.9354 H          2 BB2          0.0000
    52 H20       -0.5308   -20.2865    12.4294 H          2 BB2          0.0000
    53 H21       -1.2069   -18.0111    13.8653 H          2 BB2          0.0000
    54 H22       -1.3334   -19.6617    14.3187 H          2 BB2          0.0000
    55 H23        0.0208   -17.6470    15.7160 H          2 BB2          0.0000
    56 H24       -0.1816   -19.3311    16.0993 H          2 BB2          0.0000
    57 H25        2.0647   -19.1013    16.2245 H          2 BB2          0.0000
    58 H26        1.9529   -19.8801    14.7519 H          2 BB2          0.0000
    59 H27        3.4190   -17.5603    15.3396 H          2 BB2          0.0000
@<TRIPOS>BOND
     1      1      2 1
     2      1     15 1
     3      1     16 1
     4      1     17 1
     5      2      3 1
     6      2      6 1
     7      2     33 1
     8      3      4 1
     9      3     18 1
    10      3     19 1
    11      4      5 1
    12      4     20 1
    13      4     21 1
    14      5      6 1
    15      5     22 1
    16      5     23 1
    17      6      7 1
    18      6     24 1
    19      7      8 2
    20      7      9 am
    21      9     10 1
    22      9     14 1
    23     10     11 1
    24     10     25 1
    25     10     26 1
    26     11     12 1
    27     11     27 1
    28     11     28 1
    29     12     13 1
    30     13     14 1
    31     13     29 1
    32     13     30 1
    33     14     31 1
    34     14     32 1
    35     34     35 2
    36     34     36 1
    37     36     37 1
    38     36     44 1
    39     36     45 1
    40     37     38 1
    41     37     44 1
    42     37     46 1
    43     38     39 1
    44     38     47 1
    45     38     48 1
    46     39     40 1
    47     39     49 1
    48     39     50 1
    49     40     41 1
    50     40     51 1
    51     40     52 1
    52     41     42 1
    53     41     53 1
    54     41     54 1
    55     42     43 1
    56     42     55 1
    57     42     56 1
    58     43     44 1
    59     43     57 1
    60     43     58 1
    61     44     59 1
    62     12     34 am
@<TRIPOS>SUBSTRUCTURE
     1 BB1          12
     2 BB2          34
@<TRIPOS>MOLECULE
EN300-110418_i004_EN300-223795_i001_17_17_1
  46   48   2   0   0
SMALL
USER_CHARGES
@<TRIPOS>ATOM
     1 C1        -0.6399   -10.1642    10.7330 C.3        1 BB1          0.0000
     2 N2        -2.0037   -10.5626    11.1062 N.4        1 BB1          1.0000
     3 C3        -2.9806    -9.6671    10.4508 C.3        1 BB1          0.0000
     4 C4        -4.1809   -10.5810    10.0987 C.3        1 BB1          0.0000
     5 C5        -3.4650   -11.8974     9.6968 C.3        1 BB1          0.0000
     6 C6        -2.2577   -11.9437    10.6567 C.3        1 BB1          0.0000
     7 C7        -1.0481   -12.4782     9.9340 C.2        1 BB1          0.0000
     8 O8        -0.8135   -12.1218     8.7986 O.2        1 BB1          0.0000
     9 N9        -0.2271   -13.3523    10.5491 N.am       1 BB1          0.0000
    10 C10       -0.5472   -13.8766    11.8855 C.3        1 BB1          0.0000
    11 C11       -0.4507   -15.4054    11.8445 C.3        1 BB1          0.0000
    12 N12        0.8659   -15.7959    11.3230 N.am       1 BB1          0.0000
    13 C13        1.0480   -15.3384     9.9390 C.3        1 BB1          0.0000
    14 C14        1.0098   -13.8115     9.8994 C.3        1 BB1          0.0000
    15 H15       -0.4151    -9.1891    11.1653 H          1 BB1          0.0000
    16 H16        0.0697   -10.9008    11.1096 H          1 BB1          0.0000
    17 H17       -0.5624   -10.1070     9.6473 H          1 BB1          0.0000
    18 H18       -3.2921    -8.8788    11.1361 H          1 BB1          0.0000
    19 H19       -2.5529    -9.2368     9.5452 H          1 BB1          0.0000
    20 H20       -4.8223   -10.7346    10.9664 H          1 BB1          0.0000
    21 H21       -4.7490   -10.1743     9.2621 H          1 BB1          0.0000
    22 H22       -4.1178   -12.7554     9.8568 H          1 BB1          0.0000
    23 H23       -3.1314   -11.8536     8.6599 H          1 BB1          0.0000
    24 H24       -2.4896   -12.5758    11.5139 H          1 BB1          0.0000
    25 H25        0.1635   -13.4842    12.6127 H          1 BB1          0.0000
    26 H26       -1.5592   -13.5809    12.1620 H          1 BB1          0.0000
    27 H27       -0.5766   -15.8049    12.8507 H          1 BB1          0.0000
    28 H28       -1.2312   -15.8018    11.1951 H          1 BB1          0.0000
    29 H29        2.0092   -15.6895     9.5635 H          1 BB1          0.0000
    30 H30        0.2467   -15.7358     9.3162 H          1 BB1          0.0000
    31 H31        1.0295   -13.4716     8.8639 H          1 BB1          0.0000
    32 H32        1.8693   -13.4098    10.4360 H          1 BB1          0.0000
    33 H34       -2.1120   -10.5082    12.1079 H          1 BB1          0.0000
    34 C2        -0.2014   -18.5411    11.7455 C.2        2 BB2          0.0000
    35 O3        -1.2998   -18.0076    11.6611 O.2        2 BB2          0.0000
    36 C4         0.6463   -18.2937    12.9172 C.2        2 BB2          0.0000
    37 C5         1.0088   -16.9713    13.3749 C.2        2 BB2          0.0000
    38 C6         1.7823   -16.9874    14.4527 C.2        2 BB2          0.0000
    39 S7         2.1038   -18.6365    14.9592 S.3        2 BB2          0.0000
    40 C8         1.1692   -19.2867    13.6908 C.2        2 BB2          0.0000
    41 C9         0.9567   -20.7594    13.4521 C.3        2 BB2          0.0000
    42 F10       -0.4059   -21.0575    13.5603 F          2 BB2          0.0000
    43 F11        1.4070   -21.0939    12.1705 F          2 BB2          0.0000
    44 F12        1.6718   -21.4940    14.4041 F          2 BB2          0.0000
    45 H13        0.6837   -16.0633    12.8890 H          2 BB2          0.0000
    46 H14        2.1618   -16.1069    14.9497 H          2 BB2          0.0000
@<TRIPOS>BOND
     1      1      2 1
     2      1     15 1
     3      1     16 1
     4      1     17 1
     5      2      3 1
     6      2      6 1
     7      2     33 1
     8      3      4 1
     9      3     18 1
    10      3     19 1
    11      4      5 1
    12      4     20 1
    13      4     21 1
    14      5      6 1
    15      5     22 1
    16      5     23 1
    17      6      7 1
    18      6     24 1
    19      7      8 2
    20      7      9 am
    21      9     10 1
    22      9     14 1
    23     10     11 1
    24     10     25 1
    25     10     26 1
    26     11     12 1
    27     11     27 1
    28     11     28 1
    29     12     13 1
    30     13     14 1
    31     13     29 1
    32     13     30 1
    33     14     31 1
    34     14     32 1
    35     34     35 2
    36     34     36 1
    37     36     37 1
    38     36     40 2
    39     37     38 2
    40     37     45 1
    41     38     39 1
    42     38     46 1
    43     39     40 1
    44     40     41 1
    45     41     42 1
    46     41     43 1
    47     41     44 1
    48     12     34 am
@<TRIPOS>SUBSTRUCTURE
     1 BB1          12
     2 BB2          34
@<TRIPOS>MOLECULE
EN300-110418_i004_EN300-701715_i002_17_19_1
  59   61   2   0   0
SMALL
USER_CHARGES
@<TRIPOS>ATOM
     1 C1        -0.6399   -10.1642    10.7330 C.3        1 BB1          0.0000
     2 N2        -2.0037   -10.5626    11.1062 N.4        1 BB1          1.0000
     3 C3        -2.9806    -9.6671    10.4508 C.3        1 BB1          0.0000
     4 C4        -4.1809   -10.5810    10.0987 C.3        1 BB1          0.0000
     5 C5        -3.4650   -11.8974     9.6968 C.3        1 BB1          0.0000
     6 C6        -2.2577   -11.9437    10.6567 C.3        1 BB1          0.0000
     7 C7        -1.0481   -12.4782     9.9340 C.2        1 BB1          0.0000
     8 O8        -0.8135   -12.1218     8.7986 O.2        1 BB1          0.0000
     9 N9        -0.2271   -13.3523    10.5491 N.am       1 BB1          0.0000
    10 C10       -0.5472   -13.8766    11.8855 C.3        1 BB1          0.0000
    11 C11       -0.4507   -15.4054    11.8445 C.3        1 BB1          0.0000
    12 N12        0.8659   -15.7959    11.3230 N.am       1 BB1          0.0000
    13 C13        1.0480   -15.3384     9.9390 C.3        1 BB1          0.0000
    14 C14        1.0098   -13.8115     9.8994 C.3        1 BB1          0.0000
    15 H15       -0.4151    -9.1891    11.1653 H          1 BB1          0.0000
    16 H16        0.0697   -10.9008    11.1096 H          1 BB1          0.0000
    17 H17       -0.5624   -10.1070     9.6473 H          1 BB1          0.0000
    18 H18       -3.2921    -8.8788    11.1361 H          1 BB1          0.0000
    19 H19       -2.5529    -9.2368     9.5452 H          1 BB1          0.0000
    20 H20       -4.8223   -10.7346    10.9664 H          1 BB1          0.0000
    21 H21       -4.7490   -10.1743     9.2621 H          1 BB1          0.0000
    22 H22       -4.1178   -12.7554     9.8568 H          1 BB1          0.0000
    23 H23       -3.1314   -11.8536     8.6599 H          1 BB1          0.0000
    24 H24       -2.4896   -12.5758    11.5139 H          1 BB1          0.0000
    25 H25        0.1635   -13.4842    12.6127 H          1 BB1          0.0000
    26 H26       -1.5592   -13.5809    12.1620 H          1 BB1          0.0000
    27 H27       -0.5766   -15.8049    12.8507 H          1 BB1          0.0000
    28 H28       -1.2312   -15.8018    11.1951 H          1 BB1          0.0000
    29 H29        2.0092   -15.6895     9.5635 H          1 BB1          0.0000
    30 H30        0.2467   -15.7358     9.3162 H          1 BB1          0.0000
    31 H31        1.0295   -13.4716     8.8639 H          1 BB1          0.0000
    32 H32        1.8693   -13.4098    10.4360 H          1 BB1          0.0000
    33 H34       -2.1120   -10.5082    12.1079 H          1 BB1          0.0000
    34 C1        -0.3936   -18.6582    15.3522 C.3        2 BB2          0.0000
    35 O2        -0.6853   -17.9828    14.1271 O.3        2 BB2          0.0000
    36 C3         0.4537   -17.7847    13.2872 C.3        2 BB2          0.0000
    37 C4         0.0186   -17.0963    11.9919 C.3        2 BB2          0.0000
    38 C5        -1.0036   -17.9737    11.2666 C.3        2 BB2          0.0000
    39 C6        -0.3713   -19.3275    10.9372 C.3        2 BB2          0.0000
    40 C7         0.0638   -20.0159    12.2324 C.3        2 BB2          0.0000
    41 C8         0.6962   -21.3695    11.9030 C.3        2 BB2          0.0000
    42 C9         1.0860   -19.1384    12.9578 C.3        2 BB2          0.0000
    43 C10        1.4605   -16.9205    14.0017 C.2        2 BB2          0.0000
    44 O12        1.1423   -15.8106    14.3934 O.2        2 BB2          0.0000
    45 H13        0.3304   -18.0776    15.9238 H          2 BB2          0.0000
    46 H14       -1.3095   -18.7697    15.9327 H          2 BB2          0.0000
    47 H15        0.0207   -19.6427    15.1346 H          2 BB2          0.0000
    48 H16       -0.4319   -16.1319    12.2266 H          2 BB2          0.0000
    49 H17        0.8874   -16.9452    11.3513 H          2 BB2          0.0000
    50 H18       -1.8723   -18.1249    11.9073 H          2 BB2          0.0000
    51 H19       -1.3135   -17.4833    10.3438 H          2 BB2          0.0000
    52 H20       -1.0995   -19.9525    10.4204 H          2 BB2          0.0000
    53 H21        0.4975   -19.1763    10.2964 H          2 BB2          0.0000
    54 H22       -0.8050   -20.1669    12.8731 H          2 BB2          0.0000
    55 H23        1.5649   -21.2185    11.2623 H          2 BB2          0.0000
    56 H24        1.0061   -21.8599    12.8259 H          2 BB2          0.0000
    57 H25       -0.0321   -21.9946    11.3862 H          2 BB2          0.0000
    58 H26        1.9548   -18.9873    12.3171 H          2 BB2          0.0000
    59 H27        1.3960   -19.6288    13.8806 H          2 BB2          0.0000
@<TRIPOS>BOND
     1      1      2 1
     2      1     15 1
     3      1     16 1
     4      1     17 1
     5      2      3 1
     6      2      6 1
     7      2     33 1
     8      3      4 1
     9      3     18 1
    10      3     19 1
    11      4      5 1
    12      4     20 1
    13      4     21 1
    14      5      6 1
    15      5     22 1
    16      5     23 1
    17      6      7 1
    18      6     24 1
    19      7      8 2
    20      7      9 am
    21      9     10 1
    22      9     14 1
    23     10     11 1
    24     10     25 1
    25     10     26 1
    26     11     12 1
    27     11     27 1
    28     11     28 1
    29     12     13 1
    30     13     14 1
    31     13     29 1
    32     13     30 1
    33     14     31 1
    34     14     32 1
    35     34     35 1
    36     34     45 1
    37     34     46 1
    38     34     47 1
    39     35     36 1
    40     36     37 1
    41     36     42 1
    42     36     43 1
    43     37     38 1
    44     37     48 1
    45     37     49 1
    46     38     39 1
    47     38     50 1
    48     38     51 1
    49     39     40 1
    50     39     52 1
    51     39     53 1
    52     40     41 1
    53     40     42 1
    54     40     54 1
    55     41     55 1
    56     41     56 1
    57     41     57 1
    58     42     58 1
    59     42     59 1
    60     43     44 2
    61     12     43 am
@<TRIPOS>SUBSTRUCTURE
     1 BB1          12
     2 BB2          43
@<TRIPOS>MOLECULE
EN300-110418_i004_EN300-4287209_i001_19_5_1
  48   50   2   0   0
SMALL
USER_CHARGES
@<TRIPOS>ATOM
     1 C1         2.4838   -15.1920    11.6791 C.3        1 BB1          0.0000
     2 N2         2.1487   -16.5933    11.9657 N.4        1 BB1          1.0000
     3 C3         2.9437   -17.0693    13.1178 C.3        1 BB1          0.0000
     4 C4         1.9930   -18.0184    13.8892 C.3        1 BB1          0.0000
     5 C5         0.6296   -17.2962    13.7268 C.3        1 BB1          0.0000
     6 C6         0.7181   -16.7019    12.3055 C.3        1 BB1          0.0000
     7 C7         0.0801   -15.3368    12.2798 C.2        1 BB1          0.0000
     8 O8        -0.2049   -14.7811    13.3195 O.2        1 BB1          0.0000
     9 N9        -0.1739   -14.7337    11.1016 N.am       1 BB1          0.0000
    10 C10       -0.7005   -13.3612    11.0542 C.3        1 BB1          0.0000
    11 C11        0.1774   -12.5356    10.1076 C.3        1 BB1          0.0000
    12 N12        0.2622   -13.2136     8.8072 N.am       1 BB1          0.0000
    13 C13        0.9155   -14.5236     8.9309 C.3        1 BB1          0.0000
    14 C14        0.0736   -15.4284     9.8292 C.3        1 BB1          0.0000
    15 H15        3.5103   -15.1305    11.3176 H          1 BB1          0.0000
    16 H16        1.8067   -14.8050    10.9176 H          1 BB1          0.0000
    17 H17        2.3830   -14.6009    12.5892 H          1 BB1          0.0000
    18 H18        3.8240   -17.6119    12.7731 H          1 BB1          0.0000
    19 H19        3.2368   -16.2305    13.7490 H          1 BB1          0.0000
    20 H20        1.9690   -19.0060    13.4286 H          1 BB1          0.0000
    21 H21        2.2765   -18.0859    14.9395 H          1 BB1          0.0000
    22 H22       -0.1937   -18.0070    13.7968 H          1 BB1          0.0000
    23 H23        0.5216   -16.5053    14.4692 H          1 BB1          0.0000
    24 H24        0.2175   -17.3610    11.5962 H          1 BB1          0.0000
    25 H25       -1.7256   -13.3749    10.6843 H          1 BB1          0.0000
    26 H26       -0.6742   -12.9242    12.0524 H          1 BB1          0.0000
    27 H27       -0.2613   -11.5467     9.9743 H          1 BB1          0.0000
    28 H28        1.1765   -12.4364    10.5319 H          1 BB1          0.0000
    29 H29        1.0120   -14.9764     7.9441 H          1 BB1          0.0000
    30 H30        1.9043   -14.3966     9.3715 H          1 BB1          0.0000
    31 H31        0.6093   -16.3591    10.0164 H          1 BB1          0.0000
    32 H32       -0.8788   -15.6420     9.3441 H          1 BB1          0.0000
    33 H34        2.3479   -17.1630    11.1571 H          1 BB1          0.0000
    34 O1         0.8193   -12.9867     8.4503 O.2        2 BB2          0.0000
    35 C2         0.4185   -11.8398     8.3098 C.2        2 BB2          0.0000
    36 C4        -0.5215   -11.2622     9.2885 C.ar       2 BB2          0.0000
    37 C5        -1.8972   -11.4006     9.1032 C.ar       2 BB2          0.0000
    38 C6        -2.7772   -10.8523    10.0324 C.ar       2 BB2          0.0000
    39 C7        -4.1907   -10.9906     9.8497 C.1        2 BB2          0.0000
    40 C8        -5.3496   -11.1039     9.6999 C.1        2 BB2          0.0000
    41 C9        -2.2793   -10.1679    11.1435 C.ar       2 BB2          0.0000
    42 C10       -0.9172   -10.0327    11.3230 C.ar       2 BB2          0.0000
    43 C11       -0.0360   -10.5784    10.4090 C.ar       2 BB2          0.0000
    44 Cl12       1.6752   -10.4032    10.6433 Cl         2 BB2          0.0000
    45 H13       -2.2780   -11.9303     8.2424 H          2 BB2          0.0000
    46 H14       -6.3860   -11.2053     9.5660 H          2 BB2          0.0000
    47 H15       -2.9621    -9.7428    11.8643 H          2 BB2          0.0000
    48 H16       -0.5385    -9.5020    12.1840 H          2 BB2          0.0000
@<TRIPOS>BOND
     1      1      2 1
     2      1     15 1
     3      1     16 1
     4      1     17 1
     5      2      3 1
     6      2      6 1
     7      2     33 1
     8      3      4 1
     9      3     18 1
    10      3     19 1
    11      4      5 1
    12      4     20 1
    13      4     21 1
    14      5      6 1
    15      5     22 1
    16      5     23 1
    17      6      7 1
    18      6     24 1
    19      7      8 2
    20      7      9 am
    21      9     10 1
    22      9     14 1
    23     10     11 1
    24     10     25 1
    25     10     26 1
    26     11     12 1
    27     11     27 1
    28     11     28 1
    29     12     13 1
    30     13     14 1
    31     13     29 1
    32     13     30 1
    33     14     31 1
    34     14     32 1
    35     34     35 2
    36     35     36 1
    37     36     37 ar
    38     36     43 ar
    39     37     38 ar
    40     37     45 1
    41     38     39 1
    42     38     41 ar
    43     39     40 3
    44     40     46 1
    45     41     42 ar
    46     41     47 1
    47     42     43 ar
    48     42     48 1
    49     43     44 1
    50     12     35 am
@<TRIPOS>SUBSTRUCTURE
     1 BB1          12
     2 BB2          35
@<TRIPOS>MOLECULE
EN300-110418_i004_EN300-19857_i001_19_8_1
  46   48   2   0   0
SMALL
USER_CHARGES
@<TRIPOS>ATOM
     1 C1         2.4838   -15.1920    11.6791 C.3        1 BB1          0.0000
     2 N2         2.1487   -16.5933    11.9657 N.4        1 BB1          1.0000
     3 C3         2.9437   -17.0693    13.1178 C.3        1 BB1          0.0000
     4 C4         1.9930   -18.0184    13.8892 C.3        1 BB1          0.0000
     5 C5         0.6296   -17.2962    13.7268 C.3        1 BB1          0.0000
     6 C6         0.7181   -16.7019    12.3055 C.3        1 BB1          0.0000
     7 C7         0.0801   -15.3368    12.2798 C.2        1 BB1          0.0000
     8 O8        -0.2049   -14.7811    13.3195 O.2        1 BB1          0.0000
     9 N9        -0.1739   -14.7337    11.1016 N.am       1 BB1          0.0000
    10 C10       -0.7005   -13.3612    11.0542 C.3        1 BB1          0.0000
    11 C11        0.1774   -12.5356    10.1076 C.3        1 BB1          0.0000
    12 N12        0.2622   -13.2136     8.8072 N.am       1 BB1          0.0000
    13 C13        0.9155   -14.5236     8.9309 C.3        1 BB1          0.0000
    14 C14        0.0736   -15.4284     9.8292 C.3        1 BB1          0.0000
    15 H15        3.5103   -15.1305    11.3176 H          1 BB1          0.0000
    16 H16        1.8067   -14.8050    10.9176 H          1 BB1          0.0000
    17 H17        2.3830   -14.6009    12.5892 H          1 BB1          0.0000
    18 H18        3.8240   -17.6119    12.7731 H          1 BB1          0.0000
    19 H19        3.2368   -16.2305    13.7490 H          1 BB1          0.0000
    20 H20        1.9690   -19.0060    13.4286 H          1 BB1          0.0000
    21 H21        2.2765   -18.0859    14.9395 H          1 BB1          0.0000
    22 H22       -0.1937   -18.0070    13.7968 H          1 BB1          0.0000
    23 H23        0.5216   -16.5053    14.4692 H          1 BB1          0.0000
    24 H24        0.2175   -17.3610    11.5962 H          1 BB1          0.0000
    25 H25       -1.7256   -13.3749    10.6843 H          1 BB1          0.0000
    26 H26       -0.6742   -12.9242    12.0524 H          1 BB1          0.0000
    27 H27       -0.2613   -11.5467     9.9743 H          1 BB1          0.0000
    28 H28        1.1765   -12.4364    10.5319 H          1 BB1          0.0000
    29 H29        1.0120   -14.9764     7.9441 H          1 BB1          0.0000
    30 H30        1.9043   -14.3966     9.3715 H          1 BB1          0.0000
    31 H31        0.6093   -16.3591    10.0164 H          1 BB1          0.0000
    32 H32       -0.8788   -15.6420     9.3441 H          1 BB1          0.0000
    33 H34        2.3479   -17.1630    11.1571 H          1 BB1          0.0000
    34 O1        -0.1507   -13.0629     7.8701 O.2        2 BB2          0.0000
    35 C2         0.0873   -11.9601     8.3421 C.2        2 BB2          0.0000
    36 C4        -0.8544   -11.3486     9.2992 C.ar       2 BB2          0.0000
    37 C5        -0.3726   -10.6275    10.3943 C.ar       2 BB2          0.0000
    38 C6        -1.2585   -10.0583    11.2854 C.ar       2 BB2          0.0000
    39 C7        -2.6217   -10.2000    11.0969 C.ar       2 BB2          0.0000
    40 C8        -3.1072   -10.9138    10.0140 C.ar       2 BB2          0.0000
    41 Br9       -4.9726   -11.1008     9.7668 Br         2 BB2          0.0000
    42 C10       -2.2325   -11.4832     9.1112 C.ar       2 BB2          0.0000
    43 H11        0.6913   -10.5161    10.5431 H          2 BB2          0.0000
    44 H12       -0.8870    -9.5009    12.1325 H          2 BB2          0.0000
    45 H13       -3.3106    -9.7522    11.7978 H          2 BB2          0.0000
    46 H14       -2.6119   -12.0397     8.2670 H          2 BB2          0.0000
@<TRIPOS>BOND
     1      1      2 1
     2      1     15 1
     3      1     16 1
     4      1     17 1
     5      2      3 1
     6      2      6 1
     7      2     33 1
     8      3      4 1
     9      3     18 1
    10      3     19 1
    11      4      5 1
    12      4     20 1
    13      4     21 1
    14      5      6 1
    15      5     22 1
    16      5     23 1
    17      6      7 1
    18      6     24 1
    19      7      8 2
    20      7      9 am
    21      9     10 1
    22      9     14 1
    23     10     11 1
    24     10     25 1
    25     10     26 1
    26     11     12 1
    27     11     27 1
    28     11     28 1
    29     12     13 1
    30     13     14 1
    31     13     29 1
    32     13     30 1
    33     14     31 1
    34     14     32 1
    35     34     35 2
    36     35     36 1
    37     36     37 ar
    38     36     42 ar
    39     37     38 ar
    40     37     43 1
    41     38     39 ar
    42     38     44 1
    43     39     40 ar
    44     39     45 1
    45     40     41 1
    46     40     42 ar
    47     42     46 1
    48     12     35 am
@<TRIPOS>SUBSTRUCTURE
     1 BB1          12
     2 BB2          35
@<TRIPOS>MOLECULE
EN300-110418_i004_EN300-701715_i002_19_20_1
  59   61   2   0   0
SMALL
USER_CHARGES
@<TRIPOS>ATOM
     1 C1         2.4838   -15.1920    11.6791 C.3        1 BB1          0.0000
     2 N2         2.1487   -16.5933    11.9657 N.4        1 BB1          1.0000
     3 C3         2.9437   -17.0693    13.1178 C.3        1 BB1          0.0000
     4 C4         1.9930   -18.0184    13.8892 C.3        1 BB1          0.0000
     5 C5         0.6296   -17.2962    13.7268 C.3        1 BB1          0.0000
     6 C6         0.7181   -16.7019    12.3055 C.3        1 BB1          0.0000
     7 C7         0.0801   -15.3368    12.2798 C.2        1 BB1          0.0000
     8 O8        -0.2049   -14.7811    13.3195 O.2        1 BB1          0.0000
     9 N9        -0.1739   -14.7337    11.1016 N.am       1 BB1          0.0000
    10 C10       -0.7005   -13.3612    11.0542 C.3        1 BB1          0.0000
    11 C11        0.1774   -12.5356    10.1076 C.3        1 BB1          0.0000
    12 N12        0.2622   -13.2136     8.8072 N.am       1 BB1          0.0000
    13 C13        0.9155   -14.5236     8.9309 C.3        1 BB1          0.0000
    14 C14        0.0736   -15.4284     9.8292 C.3        1 BB1          0.0000
    15 H15        3.5103   -15.1305    11.3176 H          1 BB1          0.0000
    16 H16        1.8067   -14.8050    10.9176 H          1 BB1          0.0000
    17 H17        2.3830   -14.6009    12.5892 H          1 BB1          0.0000
    18 H18        3.8240   -17.6119    12.7731 H          1 BB1          0.0000
    19 H19        3.2368   -16.2305    13.7490 H          1 BB1          0.0000
    20 H20        1.9690   -19.0060    13.4286 H          1 BB1          0.0000
    21 H21        2.2765   -18.0859    14.9395 H          1 BB1          0.0000
    22 H22       -0.1937   -18.0070    13.7968 H          1 BB1          0.0000
    23 H23        0.5216   -16.5053    14.4692 H          1 BB1          0.0000
    24 H24        0.2175   -17.3610    11.5962 H          1 BB1          0.0000
    25 H25       -1.7256   -13.3749    10.6843 H          1 BB1          0.0000
    26 H26       -0.6742   -12.9242    12.0524 H          1 BB1          0.0000
    27 H27       -0.2613   -11.5467     9.9743 H          1 BB1          0.0000
    28 H28        1.1765   -12.4364    10.5319 H          1 BB1          0.0000
    29 H29        1.0120   -14.9764     7.9441 H          1 BB1          0.0000
    30 H30        1.9043   -14.3966     9.3715 H          1 BB1          0.0000
    31 H31        0.6093   -16.3591    10.0164 H          1 BB1          0.0000
    32 H32       -0.8788   -15.6420     9.3441 H          1 BB1          0.0000
    33 H34        2.3479   -17.1630    11.1571 H          1 BB1          0.0000
    34 C1        -0.4996   -10.2091    11.6106 C.3        2 BB2          0.0000
    35 O2        -1.5141   -11.1202    11.1830 O.3        2 BB2          0.0000
    36 C3        -1.7554   -11.1021     9.7747 C.3        2 BB2          0.0000
    37 C4        -1.9053    -9.6548     9.3015 C.3        2 BB2          0.0000
    38 C5        -3.0810    -8.9996    10.0289 C.3        2 BB2          0.0000
    39 C6        -4.3654    -9.7722     9.7217 C.3        2 BB2          0.0000
    40 C7        -4.2155   -11.2195    10.1949 C.3        2 BB2          0.0000
    41 C8        -5.4998   -11.9921     9.8875 C.3        2 BB2          0.0000
    42 C9        -3.0397   -11.8747     9.4674 C.3        2 BB2          0.0000
    43 C10       -0.5973   -11.7474     9.0582 C.2        2 BB2          0.0000
    44 O11       -0.3272   -12.9179     9.2668 O.2        2 BB2          0.0000
    45 H13       -0.7900    -9.1921    11.3472 H          2 BB2          0.0000
    46 H14       -0.3764   -10.2834    12.6911 H          2 BB2          0.0000
    47 H15        0.4416   -10.4568    11.1198 H          2 BB2          0.0000
    48 H16       -0.9903    -9.1043     9.5204 H          2 BB2          0.0000
    49 H17       -2.0894    -9.6410     8.2273 H          2 BB2          0.0000
    50 H18       -2.8970    -9.0135    11.1032 H          2 BB2          0.0000
    51 H19       -3.1878    -7.9686     9.6919 H          2 BB2          0.0000
    52 H20       -5.2030    -9.3055    10.2399 H          2 BB2          0.0000
    53 H21       -4.5495    -9.7584     8.6474 H          2 BB2          0.0000
    54 H22       -4.0314   -11.2333    11.2691 H          2 BB2          0.0000
    55 H23       -5.6840   -11.9783     8.8133 H          2 BB2          0.0000
    56 H24       -5.3930   -13.0232    10.2247 H          2 BB2          0.0000
    57 H25       -6.3375   -11.5253    10.4058 H          2 BB2          0.0000
    58 H26       -3.2239   -11.8609     8.3931 H          2 BB2          0.0000
    59 H27       -2.9329   -12.9058     9.8045 H          2 BB2          0.0000
@<TRIPOS>BOND
     1      1      2 1
     2      1     15 1
     3      1     16 1
     4      1     17 1
     5      2      3 1
     6      2      6 1
     7      2     33 1
     8      3      4 1
     9      3     18 1
    10      3     19 1
    11      4      5 1
    12      4     20 1
    13      4     21 1
    14      5      6 1
    15      5     22 1
    16      5     23 1
    17      6      7 1
    18      6     24 1
    19      7      8 2
    20      7      9 am
    21      9     10 1
    22      9     14 1
    23     10     11 1
    24     10     25 1
    25     10     26 1
    26     11     12 1
    27     11     27 1
    28     11     28 1
    29     12     13 1
    30     13     14 1
    31     13     29 1
    32     13     30 1
    33     14     31 1
    34     14     32 1
    35     34     35 1
    36     34     45 1
    37     34     46 1
    38     34     47 1
    39     35     36 1
    40     36     37 1
    41     36     42 1
    42     36     43 1
    43     37     38 1
    44     37     48 1
    45     37     49 1
    46     38     39 1
    47     38     50 1
    48     38     51 1
    49     39     40 1
    50     39     52 1
    51     39     53 1
    52     40     41 1
    53     40     42 1
    54     40     54 1
    55     41     55 1
    56     41     56 1
    57     41     57 1
    58     42     58 1
    59     42     59 1
    60     43     44 2
    61     12     43 am
@<TRIPOS>SUBSTRUCTURE
     1 BB1          12
     2 BB2          43
@<TRIPOS>MOLECULE
EN300-110418_i004_EN300-206926_i001_19_11_1
  48   49   2   0   0
SMALL
USER_CHARGES
@<TRIPOS>ATOM
     1 C1         2.4838   -15.1920    11.6791 C.3        1 BB1          0.0000
     2 N2         2.1487   -16.5933    11.9657 N.4        1 BB1          1.0000
     3 C3         2.9437   -17.0693    13.1178 C.3        1 BB1          0.0000
     4 C4         1.9930   -18.0184    13.8892 C.3        1 BB1          0.0000
     5 C5         0.6296   -17.2962    13.7268 C.3        1 BB1          0.0000
     6 C6         0.7181   -16.7019    12.3055 C.3        1 BB1          0.0000
     7 C7         0.0801   -15.3368    12.2798 C.2        1 BB1          0.0000
     8 O8        -0.2049   -14.7811    13.3195 O.2        1 BB1          0.0000
     9 N9        -0.1739   -14.7337    11.1016 N.am       1 BB1          0.0000
    10 C10       -0.7005   -13.3612    11.0542 C.3        1 BB1          0.0000
    11 C11        0.1774   -12.5356    10.1076 C.3        1 BB1          0.0000
    12 N12        0.2622   -13.2136     8.8072 N.am       1 BB1          0.0000
    13 C13        0.9155   -14.5236     8.9309 C.3        1 BB1          0.0000
    14 C14        0.0736   -15.4284     9.8292 C.3        1 BB1          0.0000
    15 H15        3.5103   -15.1305    11.3176 H          1 BB1          0.0000
    16 H16        1.8067   -14.8050    10.9176 H          1 BB1          0.0000
    17 H17        2.3830   -14.6009    12.5892 H          1 BB1          0.0000
    18 H18        3.8240   -17.6119    12.7731 H          1 BB1          0.0000
    19 H19        3.2368   -16.2305    13.7490 H          1 BB1          0.0000
    20 H20        1.9690   -19.0060    13.4286 H          1 BB1          0.0000
    21 H21        2.2765   -18.0859    14.9395 H          1 BB1          0.0000
    22 H22       -0.1937   -18.0070    13.7968 H          1 BB1          0.0000
    23 H23        0.5216   -16.5053    14.4692 H          1 BB1          0.0000
    24 H24        0.2175   -17.3610    11.5962 H          1 BB1          0.0000
    25 H25       -1.7256   -13.3749    10.6843 H          1 BB1          0.0000
    26 H26       -0.6742   -12.9242    12.0524 H          1 BB1          0.0000
    27 H27       -0.2613   -11.5467     9.9743 H          1 BB1          0.0000
    28 H28        1.1765   -12.4364    10.5319 H          1 BB1          0.0000
    29 H29        1.0120   -14.9764     7.9441 H          1 BB1          0.0000
    30 H30        1.9043   -14.3966     9.3715 H          1 BB1          0.0000
    31 H31        0.6093   -16.3591    10.0164 H          1 BB1          0.0000
    32 H32       -0.8788   -15.6420     9.3441 H          1 BB1          0.0000
    33 H34        2.3479   -17.1630    11.1571 H          1 BB1          0.0000
    34 C1        -5.2007   -10.8240     9.6872 C.3        2 BB2          0.0000
    35 C2        -3.7131   -10.6899     9.8875 C.2        2 BB2          0.0000
    36 O3        -3.2194    -9.5938    10.0515 O.2        2 BB2          0.0000
    37 S4        -2.7198   -12.0843     9.8838 S.3        2 BB2          0.0000
    38 C5        -1.1382   -11.3448    10.3614 C.3        2 BB2          0.0000
    39 C6         0.0028   -12.2891     9.9776 C.3        2 BB2          0.0000
    40 C7         0.2812   -12.1665     8.5016 C.2        2 BB2          0.0000
    41 O9         0.1473   -13.1352     7.7734 O.2        2 BB2          0.0000
    42 H10       -5.4310   -10.7622     8.6235 H          2 BB2          0.0000
    43 H11       -5.5345   -11.7861    10.0759 H          2 BB2          0.0000
    44 H12       -5.7125   -10.0207    10.2170 H          2 BB2          0.0000
    45 H13       -1.0116   -10.3932     9.8453 H          2 BB2          0.0000
    46 H14       -1.1255   -11.1786    11.4386 H          2 BB2          0.0000
    47 H15        0.8984   -12.0242    10.5394 H          2 BB2          0.0000
    48 H16       -0.2814   -13.3155    10.2097 H          2 BB2          0.0000
@<TRIPOS>BOND
     1      1      2 1
     2      1     15 1
     3      1     16 1
     4      1     17 1
     5      2      3 1
     6      2      6 1
     7      2     33 1
     8      3      4 1
     9      3     18 1
    10      3     19 1
    11      4      5 1
    12      4     20 1
    13      4     21 1
    14      5      6 1
    15      5     22 1
    16      5     23 1
    17      6      7 1
    18      6     24 1
    19      7      8 2
    20      7      9 am
    21      9     10 1
    22      9     14 1
    23     10     11 1
    24     10     25 1
    25     10     26 1
    26     11     12 1
    27     11     27 1
    28     11     28 1
    29     12     13 1
    30     13     14 1
    31     13     29 1
    32     13     30 1
    33     14     31 1
    34     14     32 1
    35     34     35 1
    36     34     42 1
    37     34     43 1
    38     34     44 1
    39     35     36 2
    40     35     37 1
    41     37     38 1
    42     38     39 1
    43     38     45 1
    44     38     46 1
    45     39     40 1
    46     39     47 1
    47     39     48 1
    48     40     41 2
    49     12     40 am
@<TRIPOS>SUBSTRUCTURE
     1 BB1          12
     2 BB2          40
@<TRIPOS>MOLECULE
EN300-110418_i004_EN300-206926_i001_19_3_1
  48   49   2   0   0
SMALL
USER_CHARGES
@<TRIPOS>ATOM
     1 C1         2.4838   -15.1920    11.6791 C.3        1 BB1          0.0000
     2 N2         2.1487   -16.5933    11.9657 N.4        1 BB1          1.0000
     3 C3         2.9437   -17.0693    13.1178 C.3        1 BB1          0.0000
     4 C4         1.9930   -18.0184    13.8892 C.3        1 BB1          0.0000
     5 C5         0.6296   -17.2962    13.7268 C.3        1 BB1          0.0000
     6 C6         0.7181   -16.7019    12.3055 C.3        1 BB1          0.0000
     7 C7         0.0801   -15.3368    12.2798 C.2        1 BB1          0.0000
     8 O8        -0.2049   -14.7811    13.3195 O.2        1 BB1          0.0000
     9 N9        -0.1739   -14.7337    11.1016 N.am       1 BB1          0.0000
    10 C10       -0.7005   -13.3612    11.0542 C.3        1 BB1          0.0000
    11 C11        0.1774   -12.5356    10.1076 C.3        1 BB1          0.0000
    12 N12        0.2622   -13.2136     8.8072 N.am       1 BB1          0.0000
    13 C13        0.9155   -14.5236     8.9309 C.3        1 BB1          0.0000
    14 C14        0.0736   -15.4284     9.8292 C.3        1 BB1          0.0000
    15 H15        3.5103   -15.1305    11.3176 H          1 BB1          0.0000
    16 H16        1.8067   -14.8050    10.9176 H          1 BB1          0.0000
    17 H17        2.3830   -14.6009    12.5892 H          1 BB1          0.0000
    18 H18        3.8240   -17.6119    12.7731 H          1 BB1          0.0000
    19 H19        3.2368   -16.2305    13.7490 H          1 BB1          0.0000
    20 H20        1.9690   -19.0060    13.4286 H          1 BB1          0.0000
    21 H21        2.2765   -18.0859    14.9395 H          1 BB1          0.0000
    22 H22       -0.1937   -18.0070    13.7968 H          1 BB1          0.0000
    23 H23        0.5216   -16.5053    14.4692 H          1 BB1          0.0000
    24 H24        0.2175   -17.3610    11.5962 H          1 BB1          0.0000
    25 H25       -1.7256   -13.3749    10.6843 H          1 BB1          0.0000
    26 H26       -0.6742   -12.9242    12.0524 H          1 BB1          0.0000
    27 H27       -0.2613   -11.5467     9.9743 H          1 BB1          0.0000
    28 H28        1.1765   -12.4364    10.5319 H          1 BB1          0.0000
    29 H29        1.0120   -14.9764     7.9441 H          1 BB1          0.0000
    30 H30        1.9043   -14.3966     9.3715 H          1 BB1          0.0000
    31 H31        0.6093   -16.3591    10.0164 H          1 BB1          0.0000
    32 H32       -0.8788   -15.6420     9.3441 H          1 BB1          0.0000
    33 H34        2.3479   -17.1630    11.1571 H          1 BB1          0.0000
    34 C1        -4.4655   -10.4934     9.9008 C.3        2 BB2          0.0000
    35 C2        -3.0194   -10.1186    10.0995 C.2        2 BB2          0.0000
    36 O3        -2.4661    -9.3910     9.3018 O.2        2 BB2          0.0000
    37 S4        -2.1575   -10.7195    11.4512 S.3        2 BB2          0.0000
    38 C5        -1.4227   -12.2037    10.7210 C.3        2 BB2          0.0000
    39 C6        -0.0437   -11.8631    10.1522 C.3        2 BB2          0.0000
    40 C7        -0.0925   -11.9227     8.6471 C.2        2 BB2          0.0000
    41 O8        -0.3603   -12.9720     8.0870 O.2        2 BB2          0.0000
    42 H10       -4.5262   -11.4039     9.3046 H          2 BB2          0.0000
    43 H11       -4.9338   -10.6622    10.8705 H          2 BB2          0.0000
    44 H12       -4.9824    -9.6852     9.3833 H          2 BB2          0.0000
    45 H13       -1.3201   -12.9727    11.4867 H          2 BB2          0.0000
    46 H14       -2.0651   -12.5711     9.9208 H          2 BB2          0.0000
    47 H15        0.2413   -10.8593    10.4669 H          2 BB2          0.0000
    48 H16        0.6887   -12.5812    10.5207 H          2 BB2          0.0000
@<TRIPOS>BOND
     1      1      2 1
     2      1     15 1
     3      1     16 1
     4      1     17 1
     5      2      3 1
     6      2      6 1
     7      2     33 1
     8      3      4 1
     9      3     18 1
    10      3     19 1
    11      4      5 1
    12      4     20 1
    13      4     21 1
    14      5      6 1
    15      5     22 1
    16      5     23 1
    17      6      7 1
    18      6     24 1
    19      7      8 2
    20      7      9 am
    21      9     10 1
    22      9     14 1
    23     10     11 1
    24     10     25 1
    25     10     26 1
    26     11     12 1
    27     11     27 1
    28     11     28 1
    29     12     13 1
    30     13     14 1
    31     13     29 1
    32     13     30 1
    33     14     31 1
    34     14     32 1
    35     34     35 1
    36     34     42 1
    37     34     43 1
    38     34     44 1
    39     35     36 2
    40     35     37 1
    41     37     38 1
    42     38     39 1
    43     38     45 1
    44     38     46 1
    45     39     40 1
    46     39     47 1
    47     39     48 1
    48     40     41 2
    49     12     40 am
@<TRIPOS>SUBSTRUCTURE
     1 BB1          12
     2 BB2          40
@<TRIPOS>MOLECULE
EN300-110418_i004_EN300-1198129_i001_20_17_1
  57   59   2   0   0
SMALL
USER_CHARGES
@<TRIPOS>ATOM
     1 C1         0.8294   -20.3453    15.7012 C.3        1 BB1          0.0000
     2 N2         1.2728   -21.1078    14.5264 N.4        1 BB1          1.0000
     3 C3         0.7308   -22.4817    14.5914 C.3        1 BB1          0.0000
     4 C4         0.4145   -22.8521    13.1209 C.3        1 BB1          0.0000
     5 C5        -0.1009   -21.5001    12.5612 C.3        1 BB1          0.0000
     6 C6         0.7721   -20.4631    13.2986 C.3        1 BB1          0.0000
     7 C7        -0.0565   -19.2558    13.6548 C.2        1 BB1          0.0000
     8 O8        -1.2642   -19.2968    13.5499 O.2        1 BB1          0.0000
     9 N9         0.5443   -18.1305    14.0898 N.am       1 BB1          0.0000
    10 C10        2.0107   -18.0235    14.1268 C.3        1 BB1          0.0000
    11 C11        2.4227   -16.7319    13.4126 C.3        1 BB1          0.0000
    12 N12        1.7020   -15.5972    14.0050 N.am       1 BB1          0.0000
    13 C13        0.2518   -15.7265    13.8097 C.3        1 BB1          0.0000
    14 C14       -0.2492   -16.9747    14.5345 C.3        1 BB1          0.0000
    15 H15        1.2944   -20.7559    16.5975 H          1 BB1          0.0000
    16 H16        1.1196   -19.3009    15.5872 H          1 BB1          0.0000
    17 H17       -0.2548   -20.4135    15.7905 H          1 BB1          0.0000
    18 H18        1.4746   -23.1640    15.0030 H          1 BB1          0.0000
    19 H19       -0.1785   -22.5030    15.1921 H          1 BB1          0.0000
    20 H20        1.3145   -23.1739    12.5970 H          1 BB1          0.0000
    21 H21       -0.3604   -23.6170    13.0690 H          1 BB1          0.0000
    22 H22        0.0591   -21.4427    11.4845 H          1 BB1          0.0000
    23 H23       -1.1543   -21.3591    12.8035 H          1 BB1          0.0000
    24 H24        1.6098   -20.1674    12.6670 H          1 BB1          0.0000
    25 H25        2.3496   -17.9934    15.1623 H          1 BB1          0.0000
    26 H26        2.4532   -18.8802    13.6185 H          1 BB1          0.0000
    27 H27        3.4961   -16.5802    13.5257 H          1 BB1          0.0000
    28 H28        2.1753   -16.8071    12.3537 H          1 BB1          0.0000
    29 H29       -0.2491   -14.8455    14.2110 H          1 BB1          0.0000
    30 H30        0.0347   -15.8156    12.7453 H          1 BB1          0.0000
    31 H31       -1.3008   -17.1378    14.2985 H          1 BB1          0.0000
    32 H32       -0.1279   -16.8469    15.6102 H          1 BB1          0.0000
    33 H34        2.2810   -21.1411    14.5032 H          1 BB1          0.0000
    34 O1        -0.1424   -16.0682    13.2759 O.2        2 BB2          0.0000
    35 C2        -0.3911   -17.0613    12.6065 C.2        2 BB2          0.0000
    36 C4        -0.3958   -16.9760    11.1355 C.ar       2 BB2          0.0000
    37 C5        -0.0908   -15.7687    10.5005 C.ar       2 BB2          0.0000
    38 C6        -0.0971   -15.6964     9.1240 C.ar       2 BB2          0.0000
    39 C7        -0.4049   -16.8151     8.3684 C.ar       2 BB2          0.0000
    40 C8        -0.7081   -18.0142     8.9862 C.ar       2 BB2          0.0000
    41 C9        -0.7001   -18.1055    10.3659 C.ar       2 BB2          0.0000
    42 F10       -0.9964   -19.2773    10.9694 F          2 BB2          0.0000
    43 S11        0.2873   -14.1747     8.3232 S.o2       2 BB2          0.0000
    44 O12        1.6993   -14.0649     8.4386 O.2        2 BB2          0.0000
    45 O13       -0.3379   -14.2803     7.0515 O.2        2 BB2          0.0000
    46 C14       -0.5340   -12.9116     9.3333 C.3        2 BB2          0.0000
    47 C15       -0.3919   -11.5463     8.6574 C.3        2 BB2          0.0000
    48 C16       -1.3236   -10.5914     9.2795 C.1        2 BB2          0.0000
    49 C17       -2.0667    -9.8299     9.7757 C.1        2 BB2          0.0000
    50 H18        0.1491   -14.8943    11.0872 H          2 BB2          0.0000
    51 H19       -0.4086   -16.7505     7.2903 H          2 BB2          0.0000
    52 H20       -0.9471   -18.8823     8.3900 H          2 BB2          0.0000
    53 H21       -1.5909   -13.1582     9.4350 H          2 BB2          0.0000
    54 H22       -0.0721   -12.8783    10.3200 H          2 BB2          0.0000
    55 H23        0.6301   -11.1866     8.7764 H          2 BB2          0.0000
    56 H24       -0.6229   -11.6403     7.5963 H          2 BB2          0.0000
    57 H25       -2.7313    -9.1488    10.2194 H          2 BB2          0.0000
@<TRIPOS>BOND
     1      1      2 1
     2      1     15 1
     3      1     16 1
     4      1     17 1
     5      2      3 1
     6      2      6 1
     7      2     33 1
     8      3      4 1
     9      3     18 1
    10      3     19 1
    11      4      5 1
    12      4     20 1
    13      4     21 1
    14      5      6 1
    15      5     22 1
    16      5     23 1
    17      6      7 1
    18      6     24 1
    19      7      8 2
    20      7      9 am
    21      9     10 1
    22      9     14 1
    23     10     11 1
    24     10     25 1
    25     10     26 1
    26     11     12 1
    27     11     27 1
    28     11     28 1
    29     12     13 1
    30     13     14 1
    31     13     29 1
    32     13     30 1
    33     14     31 1
    34     14     32 1
    35     34     35 2
    36     35     36 1
    37     36     37 ar
    38     36     41 ar
    39     37     38 ar
    40     37     50 1
    41     38     39 ar
    42     38     43 1
    43     39     40 ar
    44     39     51 1
    45     40     41 ar
    46     40     52 1
    47     41     42 1
    48     43     44 2
    49     43     45 2
    50     43     46 1
    51     46     47 1
    52     46     53 1
    53     46     54 1
    54     47     48 1
    55     47     55 1
    56     47     56 1
    57     48     49 3
    58     49     57 1
    59     12     35 am
@<TRIPOS>SUBSTRUCTURE
     1 BB1          12
     2 BB2          35
@<TRIPOS>MOLECULE
EN300-110418_i004_EN300-1198129_i001_20_20_1
  57   59   2   0   0
SMALL
USER_CHARGES
@<TRIPOS>ATOM
     1 C1         0.8294   -20.3453    15.7012 C.3        1 BB1          0.0000
     2 N2         1.2728   -21.1078    14.5264 N.4        1 BB1          1.0000
     3 C3         0.7308   -22.4817    14.5914 C.3        1 BB1          0.0000
     4 C4         0.4145   -22.8521    13.1209 C.3        1 BB1          0.0000
     5 C5        -0.1009   -21.5001    12.5612 C.3        1 BB1          0.0000
     6 C6         0.7721   -20.4631    13.2986 C.3        1 BB1          0.0000
     7 C7        -0.0565   -19.2558    13.6548 C.2        1 BB1          0.0000
     8 O8        -1.2642   -19.2968    13.5499 O.2        1 BB1          0.0000
     9 N9         0.5443   -18.1305    14.0898 N.am       1 BB1          0.0000
    10 C10        2.0107   -18.0235    14.1268 C.3        1 BB1          0.0000
    11 C11        2.4227   -16.7319    13.4126 C.3        1 BB1          0.0000
    12 N12        1.7020   -15.5972    14.0050 N.am       1 BB1          0.0000
    13 C13        0.2518   -15.7265    13.8097 C.3        1 BB1          0.0000
    14 C14       -0.2492   -16.9747    14.5345 C.3        1 BB1          0.0000
    15 H15        1.2944   -20.7559    16.5975 H          1 BB1          0.0000
    16 H16        1.1196   -19.3009    15.5872 H          1 BB1          0.0000
    17 H17       -0.2548   -20.4135    15.7905 H          1 BB1          0.0000
    18 H18        1.4746   -23.1640    15.0030 H          1 BB1          0.0000
    19 H19       -0.1785   -22.5030    15.1921 H          1 BB1          0.0000
    20 H20        1.3145   -23.1739    12.5970 H          1 BB1          0.0000
    21 H21       -0.3604   -23.6170    13.0690 H          1 BB1          0.0000
    22 H22        0.0591   -21.4427    11.4845 H          1 BB1          0.0000
    23 H23       -1.1543   -21.3591    12.8035 H          1 BB1          0.0000
    24 H24        1.6098   -20.1674    12.6670 H          1 BB1          0.0000
    25 H25        2.3496   -17.9934    15.1623 H          1 BB1          0.0000
    26 H26        2.4532   -18.8802    13.6185 H          1 BB1          0.0000
    27 H27        3.4961   -16.5802    13.5257 H          1 BB1          0.0000
    28 H28        2.1753   -16.8071    12.3537 H          1 BB1          0.0000
    29 H29       -0.2491   -14.8455    14.2110 H          1 BB1          0.0000
    30 H30        0.0347   -15.8156    12.7453 H          1 BB1          0.0000
    31 H31       -1.3008   -17.1378    14.2985 H          1 BB1          0.0000
    32 H32       -0.1279   -16.8469    15.6102 H          1 BB1          0.0000
    33 H34        2.2810   -21.1411    14.5032 H          1 BB1          0.0000
    34 C2        -0.1937   -16.6148    12.6241 C.2        2 BB2          0.0000
    35 O3         0.2683   -15.5959    13.1188 O.2        2 BB2          0.0000
    36 C4        -0.2826   -16.7479    11.1594 C.ar       2 BB2          0.0000
    37 C5        -0.0167   -15.6498    10.3364 C.ar       2 BB2          0.0000
    38 C6        -0.1019   -15.7818     8.9670 C.ar       2 BB2          0.0000
    39 C7        -0.4502   -16.9979     8.4040 C.ar       2 BB2          0.0000
    40 C8        -0.7154   -18.0904     9.2087 C.ar       2 BB2          0.0000
    41 C9        -0.6283   -17.9768    10.5840 C.ar       2 BB2          0.0000
    42 F10       -0.8874   -19.0445    11.3701 F          2 BB2          0.0000
    43 S11        0.2332   -14.3978     7.9292 S.o2       2 BB2          0.0000
    44 O12        1.5821   -14.5831     7.5228 O.2        2 BB2          0.0000
    45 O13       -0.8253   -14.4062     6.9813 O.2        2 BB2          0.0000
    46 C14        0.0912   -12.9624     9.0292 C.3        2 BB2          0.0000
    47 C15        0.0804   -11.6798     8.1950 C.3        2 BB2          0.0000
    48 C16        0.9386   -11.8565     7.0122 C.1        2 BB2          0.0000
    49 C17        1.6231   -11.9973     6.0689 C.1        2 BB2          0.0000
    50 H18        0.2546   -14.6998    10.7727 H          2 BB2          0.0000
    51 H19       -0.5157   -17.0934     7.3302 H          2 BB2          0.0000
    52 H20       -0.9864   -19.0355     8.7621 H          2 BB2          0.0000
    53 H21       -0.8347   -13.0323     9.6001 H          2 BB2          0.0000
    54 H22        0.9394   -12.9436     9.7135 H          2 BB2          0.0000
    55 H23       -0.9389   -11.4631     7.8752 H          2 BB2          0.0000
    56 H24        0.4563   -10.8521     8.7964 H          2 BB2          0.0000
    57 H25        2.2353   -12.1232     5.2251 H          2 BB2          0.0000
@<TRIPOS>BOND
     1      1      2 1
     2      1     15 1
     3      1     16 1
     4      1     17 1
     5      2      3 1
     6      2      6 1
     7      2     33 1
     8      3      4 1
     9      3     18 1
    10      3     19 1
    11      4      5 1
    12      4     20 1
    13      4     21 1
    14      5      6 1
    15      5     22 1
    16      5     23 1
    17      6      7 1
    18      6     24 1
    19      7      8 2
    20      7      9 am
    21      9     10 1
    22      9     14 1
    23     10     11 1
    24     10     25 1
    25     10     26 1
    26     11     12 1
    27     11     27 1
    28     11     28 1
    29     12     13 1
    30     13     14 1
    31     13     29 1
    32     13     30 1
    33     14     31 1
    34     14     32 1
    35     34     35 2
    36     34     36 1
    37     36     37 ar
    38     36     41 ar
    39     37     38 ar
    40     37     50 1
    41     38     39 ar
    42     38     43 1
    43     39     40 ar
    44     39     51 1
    45     40     41 ar
    46     40     52 1
    47     41     42 1
    48     43     44 2
    49     43     45 2
    50     43     46 1
    51     46     47 1
    52     46     53 1
    53     46     54 1
    54     47     48 1
    55     47     55 1
    56     47     56 1
    57     48     49 3
    58     49     57 1
    59     12     34 am
@<TRIPOS>SUBSTRUCTURE
     1 BB1          12
     2 BB2          34
@<TRIPOS>MOLECULE
EN300-110418_i004_EN300-1198129_i001_20_9_1
  57   59   2   0   0
SMALL
USER_CHARGES
@<TRIPOS>ATOM
     1 C1         0.8294   -20.3453    15.7012 C.3        1 BB1          0.0000
     2 N2         1.2728   -21.1078    14.5264 N.4        1 BB1          1.0000
     3 C3         0.7308   -22.4817    14.5914 C.3        1 BB1          0.0000
     4 C4         0.4145   -22.8521    13.1209 C.3        1 BB1          0.0000
     5 C5        -0.1009   -21.5001    12.5612 C.3        1 BB1          0.0000
     6 C6         0.7721   -20.4631    13.2986 C.3        1 BB1          0.0000
     7 C7        -0.0565   -19.2558    13.6548 C.2        1 BB1          0.0000
     8 O8        -1.2642   -19.2968    13.5499 O.2        1 BB1          0.0000
     9 N9         0.5443   -18.1305    14.0898 N.am       1 BB1          0.0000
    10 C10        2.0107   -18.0235    14.1268 C.3        1 BB1          0.0000
    11 C11        2.4227   -16.7319    13.4126 C.3        1 BB1          0.0000
    12 N12        1.7020   -15.5972    14.0050 N.am       1 BB1          0.0000
    13 C13        0.2518   -15.7265    13.8097 C.3        1 BB1          0.0000
    14 C14       -0.2492   -16.9747    14.5345 C.3        1 BB1          0.0000
    15 H15        1.2944   -20.7559    16.5975 H          1 BB1          0.0000
    16 H16        1.1196   -19.3009    15.5872 H          1 BB1          0.0000
    17 H17       -0.2548   -20.4135    15.7905 H          1 BB1          0.0000
    18 H18        1.4746   -23.1640    15.0030 H          1 BB1          0.0000
    19 H19       -0.1785   -22.5030    15.1921 H          1 BB1          0.0000
    20 H20        1.3145   -23.1739    12.5970 H          1 BB1          0.0000
    21 H21       -0.3604   -23.6170    13.0690 H          1 BB1          0.0000
    22 H22        0.0591   -21.4427    11.4845 H          1 BB1          0.0000
    23 H23       -1.1543   -21.3591    12.8035 H          1 BB1          0.0000
    24 H24        1.6098   -20.1674    12.6670 H          1 BB1          0.0000
    25 H25        2.3496   -17.9934    15.1623 H          1 BB1          0.0000
    26 H26        2.4532   -18.8802    13.6185 H          1 BB1          0.0000
    27 H27        3.4961   -16.5802    13.5257 H          1 BB1          0.0000
    28 H28        2.1753   -16.8071    12.3537 H          1 BB1          0.0000
    29 H29       -0.2491   -14.8455    14.2110 H          1 BB1          0.0000
    30 H30        0.0347   -15.8156    12.7453 H          1 BB1          0.0000
    31 H31       -1.3008   -17.1378    14.2985 H          1 BB1          0.0000
    32 H32       -0.1279   -16.8469    15.6102 H          1 BB1          0.0000
    33 H34        2.2810   -21.1411    14.5032 H          1 BB1          0.0000
    34 O1         0.0714   -15.4953    13.0118 O.2        2 BB2          0.0000
    35 C2        -0.3298   -16.2651    12.1501 C.2        2 BB2          0.0000
    36 C4        -0.2777   -15.8739    10.7304 C.ar       2 BB2          0.0000
    37 C5        -0.0559   -14.5399    10.3768 C.ar       2 BB2          0.0000
    38 C6        -0.0084   -14.1812     9.0467 C.ar       2 BB2          0.0000
    39 C7        -0.1800   -15.1375     8.0601 C.ar       2 BB2          0.0000
    40 C8        -0.4001   -16.4597     8.3988 C.ar       2 BB2          0.0000
    41 C9        -0.4444   -16.8374     9.7282 C.ar       2 BB2          0.0000
    42 F10       -0.6594   -18.1295    10.0590 F          2 BB2          0.0000
    43 S11        0.2712   -12.4998     8.6004 S.o2       2 BB2          0.0000
    44 O12        1.1192   -12.0014     9.6259 O.2        2 BB2          0.0000
    45 O13        0.7129   -12.5641     7.2513 O.2        2 BB2          0.0000
    46 C14       -1.3671   -11.7273     8.6976 C.3        2 BB2          0.0000
    47 C15       -1.8344   -11.7042    10.1543 C.3        2 BB2          0.0000
    48 C16       -3.1653   -11.0801    10.2329 C.1        2 BB2          0.0000
    49 C17       -4.2268   -10.5825    10.2955 C.1        2 BB2          0.0000
    50 H18        0.0778   -13.7917    11.1441 H          2 BB2          0.0000
    51 H19       -0.1423   -14.8487     7.0201 H          2 BB2          0.0000
    52 H20       -0.5331   -17.1996     7.6236 H          2 BB2          0.0000
    53 H21       -1.3110   -10.7072     8.3179 H          2 BB2          0.0000
    54 H22       -2.0750   -12.2997     8.0981 H          2 BB2          0.0000
    55 H23       -1.8885   -12.7242    10.5348 H          2 BB2          0.0000
    56 H24       -1.1279   -11.1298    10.7535 H          2 BB2          0.0000
    57 H25       -5.1762   -10.1374    10.3514 H          2 BB2          0.0000
@<TRIPOS>BOND
     1      1      2 1
     2      1     15 1
     3      1     16 1
     4      1     17 1
     5      2      3 1
     6      2      6 1
     7      2     33 1
     8      3      4 1
     9      3     18 1
    10      3     19 1
    11      4      5 1
    12      4     20 1
    13      4     21 1
    14      5      6 1
    15      5     22 1
    16      5     23 1
    17      6      7 1
    18      6     24 1
    19      7      8 2
    20      7      9 am
    21      9     10 1
    22      9     14 1
    23     10     11 1
    24     10     25 1
    25     10     26 1
    26     11     12 1
    27     11     27 1
    28     11     28 1
    29     12     13 1
    30     13     14 1
    31     13     29 1
    32     13     30 1
    33     14     31 1
    34     14     32 1
    35     34     35 2
    36     35     36 1
    37     36     37 ar
    38     36     41 ar
    39     37     38 ar
    40     37     50 1
    41     38     39 ar
    42     38     43 1
    43     39     40 ar
    44     39     51 1
    45     40     41 ar
    46     40     52 1
    47     41     42 1
    48     43     44 2
    49     43     45 2
    50     43     46 1
    51     46     47 1
    52     46     53 1
    53     46     54 1
    54     47     48 1
    55     47     55 1
    56     47     56 1
    57     48     49 3
    58     49     57 1
    59     12     35 am
@<TRIPOS>SUBSTRUCTURE
     1 BB1          12
     2 BB2          35
@<TRIPOS>MOLECULE
EN300-110418_i004_EN300-4287209_i001_20_6_1
  48   50   2   0   0
SMALL
USER_CHARGES
@<TRIPOS>ATOM
     1 C1         0.8294   -20.3453    15.7012 C.3        1 BB1          0.0000
     2 N2         1.2728   -21.1078    14.5264 N.4        1 BB1          1.0000
     3 C3         0.7308   -22.4817    14.5914 C.3        1 BB1          0.0000
     4 C4         0.4145   -22.8521    13.1209 C.3        1 BB1          0.0000
     5 C5        -0.1009   -21.5001    12.5612 C.3        1 BB1          0.0000
     6 C6         0.7721   -20.4631    13.2986 C.3        1 BB1          0.0000
     7 C7        -0.0565   -19.2558    13.6548 C.2        1 BB1          0.0000
     8 O8        -1.2642   -19.2968    13.5499 O.2        1 BB1          0.0000
     9 N9         0.5443   -18.1305    14.0898 N.am       1 BB1          0.0000
    10 C10        2.0107   -18.0235    14.1268 C.3        1 BB1          0.0000
    11 C11        2.4227   -16.7319    13.4126 C.3        1 BB1          0.0000
    12 N12        1.7020   -15.5972    14.0050 N.am       1 BB1          0.0000
    13 C13        0.2518   -15.7265    13.8097 C.3        1 BB1          0.0000
    14 C14       -0.2492   -16.9747    14.5345 C.3        1 BB1          0.0000
    15 H15        1.2944   -20.7559    16.5975 H          1 BB1          0.0000
    16 H16        1.1196   -19.3009    15.5872 H          1 BB1          0.0000
    17 H17       -0.2548   -20.4135    15.7905 H          1 BB1          0.0000
    18 H18        1.4746   -23.1640    15.0030 H          1 BB1          0.0000
    19 H19       -0.1785   -22.5030    15.1921 H          1 BB1          0.0000
    20 H20        1.3145   -23.1739    12.5970 H          1 BB1          0.0000
    21 H21       -0.3604   -23.6170    13.0690 H          1 BB1          0.0000
    22 H22        0.0591   -21.4427    11.4845 H          1 BB1          0.0000
    23 H23       -1.1543   -21.3591    12.8035 H          1 BB1          0.0000
    24 H24        1.6098   -20.1674    12.6670 H          1 BB1          0.0000
    25 H25        2.3496   -17.9934    15.1623 H          1 BB1          0.0000
    26 H26        2.4532   -18.8802    13.6185 H          1 BB1          0.0000
    27 H27        3.4961   -16.5802    13.5257 H          1 BB1          0.0000
    28 H28        2.1753   -16.8071    12.3537 H          1 BB1          0.0000
    29 H29       -0.2491   -14.8455    14.2110 H          1 BB1          0.0000
    30 H30        0.0347   -15.8156    12.7453 H          1 BB1          0.0000
    31 H31       -1.3008   -17.1378    14.2985 H          1 BB1          0.0000
    32 H32       -0.1279   -16.8469    15.6102 H          1 BB1          0.0000
    33 H34        2.2810   -21.1411    14.5032 H          1 BB1          0.0000
    34 C2        -0.1536   -16.4857    12.0918 C.2        2 BB2          0.0000
    35 O3         0.3776   -15.6734    12.8360 O.2        2 BB2          0.0000
    36 C4        -0.1204   -16.2800    10.6318 C.ar       2 BB2          0.0000
    37 C5         0.2132   -15.0305    10.1087 C.ar       2 BB2          0.0000
    38 C6         0.2425   -14.8456     8.7290 C.ar       2 BB2          0.0000
    39 C7         0.5845   -13.5663     8.1842 C.1        2 BB2          0.0000
    40 C8         0.8649   -12.5175     7.7374 C.1        2 BB2          0.0000
    41 C9        -0.0616   -15.9100     7.8771 C.ar       2 BB2          0.0000
    42 C10       -0.3916   -17.1448     8.3989 C.ar       2 BB2          0.0000
    43 C11       -0.4177   -17.3393     9.7667 C.ar       2 BB2          0.0000
    44 Cl12      -0.8340   -18.8957    10.4133 Cl         2 BB2          0.0000
    45 H13        0.4473   -14.2101    10.7709 H          2 BB2          0.0000
    46 H14        1.1157   -11.5794     7.3378 H          2 BB2          0.0000
    47 H15       -0.0387   -15.7663     6.8069 H          2 BB2          0.0000
    48 H16       -0.6261   -17.9636     7.7348 H          2 BB2          0.0000
@<TRIPOS>BOND
     1      1      2 1
     2      1     15 1
     3      1     16 1
     4      1     17 1
     5      2      3 1
     6      2      6 1
     7      2     33 1
     8      3      4 1
     9      3     18 1
    10      3     19 1
    11      4      5 1
    12      4     20 1
    13      4     21 1
    14      5      6 1
    15      5     22 1
    16      5     23 1
    17      6      7 1
    18      6     24 1
    19      7      8 2
    20      7      9 am
    21      9     10 1
    22      9     14 1
    23     10     11 1
    24     10     25 1
    25     10     26 1
    26     11     12 1
    27     11     27 1
    28     11     28 1
    29     12     13 1
    30     13     14 1
    31     13     29 1
    32     13     30 1
    33     14     31 1
    34     14     32 1
    35     34     35 2
    36     34     36 1
    37     36     37 ar
    38     36     43 ar
    39     37     38 ar
    40     37     45 1
    41     38     39 1
    42     38     41 ar
    43     39     40 3
    44     40     46 1
    45     41     42 ar
    46     41     47 1
    47     42     43 ar
    48     42     48 1
    49     43     44 1
    50     12     34 am
@<TRIPOS>SUBSTRUCTURE
     1 BB1          12
     2 BB2          34
@<TRIPOS>MOLECULE
EN300-110418_i004_EN300-1231025_i001_20_1_1
  48   49   2   0   0
SMALL
USER_CHARGES
@<TRIPOS>ATOM
     1 C1         0.8294   -20.3453    15.7012 C.3        1 BB1          0.0000
     2 N2         1.2728   -21.1078    14.5264 N.4        1 BB1          1.0000
     3 C3         0.7308   -22.4817    14.5914 C.3        1 BB1          0.0000
     4 C4         0.4145   -22.8521    13.1209 C.3        1 BB1          0.0000
     5 C5        -0.1009   -21.5001    12.5612 C.3        1 BB1          0.0000
     6 C6         0.7721   -20.4631    13.2986 C.3        1 BB1          0.0000
     7 C7        -0.0565   -19.2558    13.6548 C.2        1 BB1          0.0000
     8 O8        -1.2642   -19.2968    13.5499 O.2        1 BB1          0.0000
     9 N9         0.5443   -18.1305    14.0898 N.am       1 BB1          0.0000
    10 C10        2.0107   -18.0235    14.1268 C.3        1 BB1          0.0000
    11 C11        2.4227   -16.7319    13.4126 C.3        1 BB1          0.0000
    12 N12        1.7020   -15.5972    14.0050 N.am       1 BB1          0.0000
    13 C13        0.2518   -15.7265    13.8097 C.3        1 BB1          0.0000
    14 C14       -0.2492   -16.9747    14.5345 C.3        1 BB1          0.0000
    15 H15        1.2944   -20.7559    16.5975 H          1 BB1          0.0000
    16 H16        1.1196   -19.3009    15.5872 H          1 BB1          0.0000
    17 H17       -0.2548   -20.4135    15.7905 H          1 BB1          0.0000
    18 H18        1.4746   -23.1640    15.0030 H          1 BB1          0.0000
    19 H19       -0.1785   -22.5030    15.1921 H          1 BB1          0.0000
    20 H20        1.3145   -23.1739    12.5970 H          1 BB1          0.0000
    21 H21       -0.3604   -23.6170    13.0690 H          1 BB1          0.0000
    22 H22        0.0591   -21.4427    11.4845 H          1 BB1          0.0000
    23 H23       -1.1543   -21.3591    12.8035 H          1 BB1          0.0000
    24 H24        1.6098   -20.1674    12.6670 H          1 BB1          0.0000
    25 H25        2.3496   -17.9934    15.1623 H          1 BB1          0.0000
    26 H26        2.4532   -18.8802    13.6185 H          1 BB1          0.0000
    27 H27        3.4961   -16.5802    13.5257 H          1 BB1          0.0000
    28 H28        2.1753   -16.8071    12.3537 H          1 BB1          0.0000
    29 H29       -0.2491   -14.8455    14.2110 H          1 BB1          0.0000
    30 H30        0.0347   -15.8156    12.7453 H          1 BB1          0.0000
    31 H31       -1.3008   -17.1378    14.2985 H          1 BB1          0.0000
    32 H32       -0.1279   -16.8469    15.6102 H          1 BB1          0.0000
    33 H34        2.2810   -21.1411    14.5032 H          1 BB1          0.0000
    34 O1         1.5533   -15.7809    11.7534 O.3        2 BB2          0.0000
    35 C2         0.1671   -15.8328    12.0963 C.3        2 BB2          0.0000
    36 C3        -0.3909   -14.4108    12.1812 C.3        2 BB2          0.0000
    37 C4        -0.4040   -13.7839    10.7856 C.3        2 BB2          0.0000
    38 C5        -1.0947   -12.4851    10.8376 C.1        2 BB2          0.0000
    39 C6        -1.6456   -11.4492    10.8792 C.1        2 BB2          0.0000
    40 C7         0.0047   -16.5167    13.4294 C.2        2 BB2          0.0000
    41 O8         0.5013   -16.0276    14.4299 O.2        2 BB2          0.0000
    42 H10       -0.3753   -16.3911    11.3332 H          2 BB2          0.0000
    43 H11       -1.4068   -14.4421    12.5750 H          2 BB2          0.0000
    44 H12        0.2367   -13.8131    12.8421 H          2 BB2          0.0000
    45 H13        0.6204   -13.6371    10.4436 H          2 BB2          0.0000
    46 H14       -0.9264   -14.4458    10.0948 H          2 BB2          0.0000
    47 H15       -2.1384   -10.5227    10.9163 H          2 BB2          0.0000
    48 H16        1.7824   -16.2892    10.9633 H          2 BB2          0.0000
@<TRIPOS>BOND
     1      1      2 1
     2      1     15 1
     3      1     16 1
     4      1     17 1
     5      2      3 1
     6      2      6 1
     7      2     33 1
     8      3      4 1
     9      3     18 1
    10      3     19 1
    11      4      5 1
    12      4     20 1
    13      4     21 1
    14      5      6 1
    15      5     22 1
    16      5     23 1
    17      6      7 1
    18      6     24 1
    19      7      8 2
    20      7      9 am
    21      9     10 1
    22      9     14 1
    23     10     11 1
    24     10     25 1
    25     10     26 1
    26     11     12 1
    27     11     27 1
    28     11     28 1
    29     12     13 1
    30     13     14 1
    31     13     29 1
    32     13     30 1
    33     14     31 1
    34     14     32 1
    35     34     35 1
    36     34     48 1
    37     35     36 1
    38     35     40 1
    39     35     42 1
    40     36     37 1
    41     36     43 1
    42     36     44 1
    43     37     38 1
    44     37     45 1
    45     37     46 1
    46     38     39 3
    47     39     47 1
    48     40     41 2
    49     12     40 am
@<TRIPOS>SUBSTRUCTURE
     1 BB1          12
     2 BB2          40
@<TRIPOS>MOLECULE
EN300-110418_i004_EN300-19857_i001_20_14_1
  46   48   2   0   0
SMALL
USER_CHARGES
@<TRIPOS>ATOM
     1 C1         0.8294   -20.3453    15.7012 C.3        1 BB1          0.0000
     2 N2         1.2728   -21.1078    14.5264 N.4        1 BB1          1.0000
     3 C3         0.7308   -22.4817    14.5914 C.3        1 BB1          0.0000
     4 C4         0.4145   -22.8521    13.1209 C.3        1 BB1          0.0000
     5 C5        -0.1009   -21.5001    12.5612 C.3        1 BB1          0.0000
     6 C6         0.7721   -20.4631    13.2986 C.3        1 BB1          0.0000
     7 C7        -0.0565   -19.2558    13.6548 C.2        1 BB1          0.0000
     8 O8        -1.2642   -19.2968    13.5499 O.2        1 BB1          0.0000
     9 N9         0.5443   -18.1305    14.0898 N.am       1 BB1          0.0000
    10 C10        2.0107   -18.0235    14.1268 C.3        1 BB1          0.0000
    11 C11        2.4227   -16.7319    13.4126 C.3        1 BB1          0.0000
    12 N12        1.7020   -15.5972    14.0050 N.am       1 BB1          0.0000
    13 C13        0.2518   -15.7265    13.8097 C.3        1 BB1          0.0000
    14 C14       -0.2492   -16.9747    14.5345 C.3        1 BB1          0.0000
    15 H15        1.2944   -20.7559    16.5975 H          1 BB1          0.0000
    16 H16        1.1196   -19.3009    15.5872 H          1 BB1          0.0000
    17 H17       -0.2548   -20.4135    15.7905 H          1 BB1          0.0000
    18 H18        1.4746   -23.1640    15.0030 H          1 BB1          0.0000
    19 H19       -0.1785   -22.5030    15.1921 H          1 BB1          0.0000
    20 H20        1.3145   -23.1739    12.5970 H          1 BB1          0.0000
    21 H21       -0.3604   -23.6170    13.0690 H          1 BB1          0.0000
    22 H22        0.0591   -21.4427    11.4845 H          1 BB1          0.0000
    23 H23       -1.1543   -21.3591    12.8035 H          1 BB1          0.0000
    24 H24        1.6098   -20.1674    12.6670 H          1 BB1          0.0000
    25 H25        2.3496   -17.9934    15.1623 H          1 BB1          0.0000
    26 H26        2.4532   -18.8802    13.6185 H          1 BB1          0.0000
    27 H27        3.4961   -16.5802    13.5257 H          1 BB1          0.0000
    28 H28        2.1753   -16.8071    12.3537 H          1 BB1          0.0000
    29 H29       -0.2491   -14.8455    14.2110 H          1 BB1          0.0000
    30 H30        0.0347   -15.8156    12.7453 H          1 BB1          0.0000
    31 H31       -1.3008   -17.1378    14.2985 H          1 BB1          0.0000
    32 H32       -0.1279   -16.8469    15.6102 H          1 BB1          0.0000
    33 H34        2.2810   -21.1411    14.5032 H          1 BB1          0.0000
    34 C2        -0.2271   -16.1459    13.3298 C.2        2 BB2          0.0000
    35 O3         0.1282   -15.6911    14.4080 O.2        2 BB2          0.0000
    36 C4        -0.2357   -15.2840    12.1323 C.ar       2 BB2          0.0000
    37 C5         0.2150   -15.7808    10.9070 C.ar       2 BB2          0.0000
    38 C6         0.2045   -14.9696     9.7912 C.ar       2 BB2          0.0000
    39 C7        -0.2510   -13.6665     9.8834 C.ar       2 BB2          0.0000
    40 C8        -0.6989   -13.1666    11.0947 C.ar       2 BB2          0.0000
    41 Br9       -1.3191   -11.3838    11.2084 Br         2 BB2          0.0000
    42 C10       -0.6998   -13.9688    12.2175 C.ar       2 BB2          0.0000
    43 H11        0.5712   -16.7977    10.8333 H          2 BB2          0.0000
    44 H12        0.5529   -15.3526     8.8435 H          2 BB2          0.0000
    45 H13       -0.2570   -13.0361     9.0065 H          2 BB2          0.0000
    46 H14       -1.0492   -13.5781    13.1619 H          2 BB2          0.0000
@<TRIPOS>BOND
     1      1      2 1
     2      1     15 1
     3      1     16 1
     4      1     17 1
     5      2      3 1
     6      2      6 1
     7      2     33 1
     8      3      4 1
     9      3     18 1
    10      3     19 1
    11      4      5 1
    12      4     20 1
    13      4     21 1
    14      5      6 1
    15      5     22 1
    16      5     23 1
    17      6      7 1
    18      6     24 1
    19      7      8 2
    20      7      9 am
    21      9     10 1
    22      9     14 1
    23     10     11 1
    24     10     25 1
    25     10     26 1
    26     11     12 1
    27     11     27 1
    28     11     28 1
    29     12     13 1
    30     13     14 1
    31     13     29 1
    32     13     30 1
    33     14     31 1
    34     14     32 1
    35     34     35 2
    36     34     36 1
    37     36     37 ar
    38     36     42 ar
    39     37     38 ar
    40     37     43 1
    41     38     39 ar
    42     38     44 1
    43     39     40 ar
    44     39     45 1
    45     40     41 1
    46     40     42 ar
    47     42     46 1
    48     12     34 am
@<TRIPOS>SUBSTRUCTURE
     1 BB1          12
     2 BB2          34
@<TRIPOS>MOLECULE
EN300-110418_i004_EN300-19857_i001_20_15_1
  46   48   2   0   0
SMALL
USER_CHARGES
@<TRIPOS>ATOM
     1 C1         0.8294   -20.3453    15.7012 C.3        1 BB1          0.0000
     2 N2         1.2728   -21.1078    14.5264 N.4        1 BB1          1.0000
     3 C3         0.7308   -22.4817    14.5914 C.3        1 BB1          0.0000
     4 C4         0.4145   -22.8521    13.1209 C.3        1 BB1          0.0000
     5 C5        -0.1009   -21.5001    12.5612 C.3        1 BB1          0.0000
     6 C6         0.7721   -20.4631    13.2986 C.3        1 BB1          0.0000
     7 C7        -0.0565   -19.2558    13.6548 C.2        1 BB1          0.0000
     8 O8        -1.2642   -19.2968    13.5499 O.2        1 BB1          0.0000
     9 N9         0.5443   -18.1305    14.0898 N.am       1 BB1          0.0000
    10 C10        2.0107   -18.0235    14.1268 C.3        1 BB1          0.0000
    11 C11        2.4227   -16.7319    13.4126 C.3        1 BB1          0.0000
    12 N12        1.7020   -15.5972    14.0050 N.am       1 BB1          0.0000
    13 C13        0.2518   -15.7265    13.8097 C.3        1 BB1          0.0000
    14 C14       -0.2492   -16.9747    14.5345 C.3        1 BB1          0.0000
    15 H15        1.2944   -20.7559    16.5975 H          1 BB1          0.0000
    16 H16        1.1196   -19.3009    15.5872 H          1 BB1          0.0000
    17 H17       -0.2548   -20.4135    15.7905 H          1 BB1          0.0000
    18 H18        1.4746   -23.1640    15.0030 H          1 BB1          0.0000
    19 H19       -0.1785   -22.5030    15.1921 H          1 BB1          0.0000
    20 H20        1.3145   -23.1739    12.5970 H          1 BB1          0.0000
    21 H21       -0.3604   -23.6170    13.0690 H          1 BB1          0.0000
    22 H22        0.0591   -21.4427    11.4845 H          1 BB1          0.0000
    23 H23       -1.1543   -21.3591    12.8035 H          1 BB1          0.0000
    24 H24        1.6098   -20.1674    12.6670 H          1 BB1          0.0000
    25 H25        2.3496   -17.9934    15.1623 H          1 BB1          0.0000
    26 H26        2.4532   -18.8802    13.6185 H          1 BB1          0.0000
    27 H27        3.4961   -16.5802    13.5257 H          1 BB1          0.0000
    28 H28        2.1753   -16.8071    12.3537 H          1 BB1          0.0000
    29 H29       -0.2491   -14.8455    14.2110 H          1 BB1          0.0000
    30 H30        0.0347   -15.8156    12.7453 H          1 BB1          0.0000
    31 H31       -1.3008   -17.1378    14.2985 H          1 BB1          0.0000
    32 H32       -0.1279   -16.8469    15.6102 H          1 BB1          0.0000
    33 H34        2.2810   -21.1411    14.5032 H          1 BB1          0.0000
    34 O1         0.1896   -15.4612    14.0997 O.2        2 BB2          0.0000
    35 C2         0.4308   -15.7600    12.9387 C.2        2 BB2          0.0000
    36 C4         0.1148   -14.8131    11.8522 C.ar       2 BB2          0.0000
    37 C5        -0.7069   -13.7107    12.0991 C.ar       2 BB2          0.0000
    38 C6        -0.9985   -12.8293    11.0788 C.ar       2 BB2          0.0000
    39 C7        -0.4794   -13.0347     9.8130 C.ar       2 BB2          0.0000
    40 C8         0.3356   -14.1255     9.5602 C.ar       2 BB2          0.0000
    41 Br9        1.0393   -14.3958     7.8260 Br         2 BB2          0.0000
    42 C10        0.6406   -15.0118    10.5730 C.ar       2 BB2          0.0000
    43 H11       -1.1132   -13.5490    13.0866 H          2 BB2          0.0000
    44 H12       -1.6339   -11.9768    11.2686 H          2 BB2          0.0000
    45 H13       -0.7111   -12.3413     9.0181 H          2 BB2          0.0000
    46 H14        1.2763   -15.8623    10.3750 H          2 BB2          0.0000
@<TRIPOS>BOND
     1      1      2 1
     2      1     15 1
     3      1     16 1
     4      1     17 1
     5      2      3 1
     6      2      6 1
     7      2     33 1
     8      3      4 1
     9      3     18 1
    10      3     19 1
    11      4      5 1
    12      4     20 1
    13      4     21 1
    14      5      6 1
    15      5     22 1
    16      5     23 1
    17      6      7 1
    18      6     24 1
    19      7      8 2
    20      7      9 am
    21      9     10 1
    22      9     14 1
    23     10     11 1
    24     10     25 1
    25     10     26 1
    26     11     12 1
    27     11     27 1
    28     11     28 1
    29     12     13 1
    30     13     14 1
    31     13     29 1
    32     13     30 1
    33     14     31 1
    34     14     32 1
    35     34     35 2
    36     35     36 1
    37     36     37 ar
    38     36     42 ar
    39     37     38 ar
    40     37     43 1
    41     38     39 ar
    42     38     44 1
    43     39     40 ar
    44     39     45 1
    45     40     41 1
    46     40     42 ar
    47     42     46 1
    48     12     35 am
@<TRIPOS>SUBSTRUCTURE
     1 BB1          12
     2 BB2          35
@<TRIPOS>MOLECULE
EN300-110418_i004_EN300-19857_i001_20_19_1
  46   48   2   0   0
SMALL
USER_CHARGES
@<TRIPOS>ATOM
     1 C1         0.8294   -20.3453    15.7012 C.3        1 BB1          0.0000
     2 N2         1.2728   -21.1078    14.5264 N.4        1 BB1          1.0000
     3 C3         0.7308   -22.4817    14.5914 C.3        1 BB1          0.0000
     4 C4         0.4145   -22.8521    13.1209 C.3        1 BB1          0.0000
     5 C5        -0.1009   -21.5001    12.5612 C.3        1 BB1          0.0000
     6 C6         0.7721   -20.4631    13.2986 C.3        1 BB1          0.0000
     7 C7        -0.0565   -19.2558    13.6548 C.2        1 BB1          0.0000
     8 O8        -1.2642   -19.2968    13.5499 O.2        1 BB1          0.0000
     9 N9         0.5443   -18.1305    14.0898 N.am       1 BB1          0.0000
    10 C10        2.0107   -18.0235    14.1268 C.3        1 BB1          0.0000
    11 C11        2.4227   -16.7319    13.4126 C.3        1 BB1          0.0000
    12 N12        1.7020   -15.5972    14.0050 N.am       1 BB1          0.0000
    13 C13        0.2518   -15.7265    13.8097 C.3        1 BB1          0.0000
    14 C14       -0.2492   -16.9747    14.5345 C.3        1 BB1          0.0000
    15 H15        1.2944   -20.7559    16.5975 H          1 BB1          0.0000
    16 H16        1.1196   -19.3009    15.5872 H          1 BB1          0.0000
    17 H17       -0.2548   -20.4135    15.7905 H          1 BB1          0.0000
    18 H18        1.4746   -23.1640    15.0030 H          1 BB1          0.0000
    19 H19       -0.1785   -22.5030    15.1921 H          1 BB1          0.0000
    20 H20        1.3145   -23.1739    12.5970 H          1 BB1          0.0000
    21 H21       -0.3604   -23.6170    13.0690 H          1 BB1          0.0000
    22 H22        0.0591   -21.4427    11.4845 H          1 BB1          0.0000
    23 H23       -1.1543   -21.3591    12.8035 H          1 BB1          0.0000
    24 H24        1.6098   -20.1674    12.6670 H          1 BB1          0.0000
    25 H25        2.3496   -17.9934    15.1623 H          1 BB1          0.0000
    26 H26        2.4532   -18.8802    13.6185 H          1 BB1          0.0000
    27 H27        3.4961   -16.5802    13.5257 H          1 BB1          0.0000
    28 H28        2.1753   -16.8071    12.3537 H          1 BB1          0.0000
    29 H29       -0.2491   -14.8455    14.2110 H          1 BB1          0.0000
    30 H30        0.0347   -15.8156    12.7453 H          1 BB1          0.0000
    31 H31       -1.3008   -17.1378    14.2985 H          1 BB1          0.0000
    32 H32       -0.1279   -16.8469    15.6102 H          1 BB1          0.0000
    33 H34        2.2810   -21.1411    14.5032 H          1 BB1          0.0000
    34 C2         0.1084   -15.2492    12.0190 C.2        2 BB2          0.0000
    35 O3        -0.1015   -15.0032    13.1984 O.2        2 BB2          0.0000
    36 C4        -0.1003   -14.2039    10.9989 C.ar       2 BB2          0.0000
    37 C5         0.6067   -14.2472     9.7949 C.ar       2 BB2          0.0000
    38 C6         0.4070   -13.2666     8.8454 C.ar       2 BB2          0.0000
    39 C7        -0.4913   -12.2416     9.0830 C.ar       2 BB2          0.0000
    40 C8        -1.1956   -12.1914    10.2743 C.ar       2 BB2          0.0000
    41 Br9       -2.4207   -10.7854    10.5877 Br         2 BB2          0.0000
    42 C10       -1.0103   -13.1691    11.2304 C.ar       2 BB2          0.0000
    43 H11        1.3085   -15.0465     9.6080 H          2 BB2          0.0000
    44 H12        0.9533   -13.2990     7.9144 H          2 BB2          0.0000
    45 H13       -0.6436   -11.4766     8.3360 H          2 BB2          0.0000
    46 H14       -1.5600   -13.1293    12.1592 H          2 BB2          0.0000
@<TRIPOS>BOND
     1      1      2 1
     2      1     15 1
     3      1     16 1
     4      1     17 1
     5      2      3 1
     6      2      6 1
     7      2     33 1
     8      3      4 1
     9      3     18 1
    10      3     19 1
    11      4      5 1
    12      4     20 1
    13      4     21 1
    14      5      6 1
    15      5     22 1
    16      5     23 1
    17      6      7 1
    18      6     24 1
    19      7      8 2
    20      7      9 am
    21      9     10 1
    22      9     14 1
    23     10     11 1
    24     10     25 1
    25     10     26 1
    26     11     12 1
    27     11     27 1
    28     11     28 1
    29     12     13 1
    30     13     14 1
    31     13     29 1
    32     13     30 1
    33     14     31 1
    34     14     32 1
    35     34     35 2
    36     34     36 1
    37     36     37 ar
    38     36     42 ar
    39     37     38 ar
    40     37     43 1
    41     38     39 ar
    42     38     44 1
    43     39     40 ar
    44     39     45 1
    45     40     41 1
    46     40     42 ar
    47     42     46 1
    48     12     34 am
@<TRIPOS>SUBSTRUCTURE
     1 BB1          12
     2 BB2          34
@<TRIPOS>MOLECULE
EN300-110418_i004_EN300-1165841_i001_20_9_1
  61   63   2   0   0
SMALL
USER_CHARGES
@<TRIPOS>ATOM
     1 C1         0.8294   -20.3453    15.7012 C.3        1 BB1          0.0000
     2 N2         1.2728   -21.1078    14.5264 N.4        1 BB1          1.0000
     3 C3         0.7308   -22.4817    14.5914 C.3        1 BB1          0.0000
     4 C4         0.4145   -22.8521    13.1209 C.3        1 BB1          0.0000
     5 C5        -0.1009   -21.5001    12.5612 C.3        1 BB1          0.0000
     6 C6         0.7721   -20.4631    13.2986 C.3        1 BB1          0.0000
     7 C7        -0.0565   -19.2558    13.6548 C.2        1 BB1          0.0000
     8 O8        -1.2642   -19.2968    13.5499 O.2        1 BB1          0.0000
     9 N9         0.5443   -18.1305    14.0898 N.am       1 BB1          0.0000
    10 C10        2.0107   -18.0235    14.1268 C.3        1 BB1          0.0000
    11 C11        2.4227   -16.7319    13.4126 C.3        1 BB1          0.0000
    12 N12        1.7020   -15.5972    14.0050 N.am       1 BB1          0.0000
    13 C13        0.2518   -15.7265    13.8097 C.3        1 BB1          0.0000
    14 C14       -0.2492   -16.9747    14.5345 C.3        1 BB1          0.0000
    15 H15        1.2944   -20.7559    16.5975 H          1 BB1          0.0000
    16 H16        1.1196   -19.3009    15.5872 H          1 BB1          0.0000
    17 H17       -0.2548   -20.4135    15.7905 H          1 BB1          0.0000
    18 H18        1.4746   -23.1640    15.0030 H          1 BB1          0.0000
    19 H19       -0.1785   -22.5030    15.1921 H          1 BB1          0.0000
    20 H20        1.3145   -23.1739    12.5970 H          1 BB1          0.0000
    21 H21       -0.3604   -23.6170    13.0690 H          1 BB1          0.0000
    22 H22        0.0591   -21.4427    11.4845 H          1 BB1          0.0000
    23 H23       -1.1543   -21.3591    12.8035 H          1 BB1          0.0000
    24 H24        1.6098   -20.1674    12.6670 H          1 BB1          0.0000
    25 H25        2.3496   -17.9934    15.1623 H          1 BB1          0.0000
    26 H26        2.4532   -18.8802    13.6185 H          1 BB1          0.0000
    27 H27        3.4961   -16.5802    13.5257 H          1 BB1          0.0000
    28 H28        2.1753   -16.8071    12.3537 H          1 BB1          0.0000
    29 H29       -0.2491   -14.8455    14.2110 H          1 BB1          0.0000
    30 H30        0.0347   -15.8156    12.7453 H          1 BB1          0.0000
    31 H31       -1.3008   -17.1378    14.2985 H          1 BB1          0.0000
    32 H32       -0.1279   -16.8469    15.6102 H          1 BB1          0.0000
    33 H34        2.2810   -21.1411    14.5032 H          1 BB1          0.0000
    34 C1        -0.4775   -18.1700    10.2903 C.3        2 BB2          0.0000
    35 C2        -0.3453   -16.7630    10.8767 C.3        2 BB2          0.0000
    36 N3         0.3038   -15.8828     9.8960 N.4        2 BB2          1.0000
    37 C4         0.2669   -14.4986    10.3832 C.3        2 BB2          0.0000
    38 C5         1.0128   -13.5892     9.4043 C.3        2 BB2          0.0000
    39 C6         0.3403   -13.6667     8.0306 C.3        2 BB2          0.0000
    40 O7        -0.9980   -13.1748     8.1253 O.3        2 BB2          0.0000
    41 C8         0.3180   -15.1256     7.5655 C.3        2 BB2          0.0000
    42 C9        -0.4021   -15.9780     8.6126 C.3        2 BB2          0.0000
    43 C10        1.0969   -12.8523     7.0656 C.1        2 BB2          0.0000
    44 C11        1.7003   -12.2027     6.2959 C.1        2 BB2          0.0000
    45 C12        0.4877   -16.8178    12.1313 C.2        2 BB2          0.0000
    46 O14        0.6985   -15.7997    12.7683 O.2        2 BB2          0.0000
    47 H15        0.5126   -18.5589    10.0524 H          2 BB2          0.0000
    48 H16       -0.9591   -18.8231    11.0180 H          2 BB2          0.0000
    49 H17       -1.0800   -18.1303     9.3829 H          2 BB2          0.0000
    50 H18       -1.3354   -16.3740    11.1147 H          2 BB2          0.0000
    51 H19       -0.7692   -14.1705    10.4658 H          2 BB2          0.0000
    52 H20        0.7430   -14.4457    11.3623 H          2 BB2          0.0000
    53 H21        0.9827   -12.5618     9.7668 H          2 BB2          0.0000
    54 H22        2.0492   -13.9164     9.3211 H          2 BB2          0.0000
    55 H23       -0.2086   -15.1963     6.6138 H          2 BB2          0.0000
    56 H24        1.3401   -15.4846     7.4442 H          2 BB2          0.0000
    57 H25       -0.4200   -17.0173     8.2846 H          2 BB2          0.0000
    58 H26       -1.4240   -15.6184     8.7329 H          2 BB2          0.0000
    59 H27        2.2399   -11.6219     5.6077 H          2 BB2          0.0000
    60 H28       -1.1530   -12.6008     8.8879 H          2 BB2          0.0000
    61 H29        1.2633   -16.1691     9.7718 H          2 BB2          0.0000
@<TRIPOS>BOND
     1      1      2 1
     2      1     15 1
     3      1     16 1
     4      1     17 1
     5      2      3 1
     6      2      6 1
     7      2     33 1
     8      3      4 1
     9      3     18 1
    10      3     19 1
    11      4      5 1
    12      4     20 1
    13      4     21 1
    14      5      6 1
    15      5     22 1
    16      5     23 1
    17      6      7 1
    18      6     24 1
    19      7      8 2
    20      7      9 am
    21      9     10 1
    22      9     14 1
    23     10     11 1
    24     10     25 1
    25     10     26 1
    26     11     12 1
    27     11     27 1
    28     11     28 1
    29     12     13 1
    30     13     14 1
    31     13     29 1
    32     13     30 1
    33     14     31 1
    34     14     32 1
    35     34     35 1
    36     34     47 1
    37     34     48 1
    38     34     49 1
    39     35     36 1
    40     35     45 1
    41     35     50 1
    42     36     37 1
    43     36     42 1
    44     36     61 1
    45     37     38 1
    46     37     51 1
    47     37     52 1
    48     38     39 1
    49     38     53 1
    50     38     54 1
    51     39     40 1
    52     39     41 1
    53     39     43 1
    54     40     60 1
    55     41     42 1
    56     41     55 1
    57     41     56 1
    58     42     57 1
    59     42     58 1
    60     43     44 3
    61     44     59 1
    62     45     46 2
    63     12     45 am
@<TRIPOS>SUBSTRUCTURE
     1 BB1          12
     2 BB2          45
@<TRIPOS>MOLECULE
EN300-110418_i004_EN300-29801_i001_20_1_1
  66   67   2   0   0
SMALL
USER_CHARGES
@<TRIPOS>ATOM
     1 C1         0.8294   -20.3453    15.7012 C.3        1 BB1          0.0000
     2 N2         1.2728   -21.1078    14.5264 N.4        1 BB1          1.0000
     3 C3         0.7308   -22.4817    14.5914 C.3        1 BB1          0.0000
     4 C4         0.4145   -22.8521    13.1209 C.3        1 BB1          0.0000
     5 C5        -0.1009   -21.5001    12.5612 C.3        1 BB1          0.0000
     6 C6         0.7721   -20.4631    13.2986 C.3        1 BB1          0.0000
     7 C7        -0.0565   -19.2558    13.6548 C.2        1 BB1          0.0000
     8 O8        -1.2642   -19.2968    13.5499 O.2        1 BB1          0.0000
     9 N9         0.5443   -18.1305    14.0898 N.am       1 BB1          0.0000
    10 C10        2.0107   -18.0235    14.1268 C.3        1 BB1          0.0000
    11 C11        2.4227   -16.7319    13.4126 C.3        1 BB1          0.0000
    12 N12        1.7020   -15.5972    14.0050 N.am       1 BB1          0.0000
    13 C13        0.2518   -15.7265    13.8097 C.3        1 BB1          0.0000
    14 C14       -0.2492   -16.9747    14.5345 C.3        1 BB1          0.0000
    15 H15        1.2944   -20.7559    16.5975 H          1 BB1          0.0000
    16 H16        1.1196   -19.3009    15.5872 H          1 BB1          0.0000
    17 H17       -0.2548   -20.4135    15.7905 H          1 BB1          0.0000
    18 H18        1.4746   -23.1640    15.0030 H          1 BB1          0.0000
    19 H19       -0.1785   -22.5030    15.1921 H          1 BB1          0.0000
    20 H20        1.3145   -23.1739    12.5970 H          1 BB1          0.0000
    21 H21       -0.3604   -23.6170    13.0690 H          1 BB1          0.0000
    22 H22        0.0591   -21.4427    11.4845 H          1 BB1          0.0000
    23 H23       -1.1543   -21.3591    12.8035 H          1 BB1          0.0000
    24 H24        1.6098   -20.1674    12.6670 H          1 BB1          0.0000
    25 H25        2.3496   -17.9934    15.1623 H          1 BB1          0.0000
    26 H26        2.4532   -18.8802    13.6185 H          1 BB1          0.0000
    27 H27        3.4961   -16.5802    13.5257 H          1 BB1          0.0000
    28 H28        2.1753   -16.8071    12.3537 H          1 BB1          0.0000
    29 H29       -0.2491   -14.8455    14.2110 H          1 BB1          0.0000
    30 H30        0.0347   -15.8156    12.7453 H          1 BB1          0.0000
    31 H31       -1.3008   -17.1378    14.2985 H          1 BB1          0.0000
    32 H32       -0.1279   -16.8469    15.6102 H          1 BB1          0.0000
    33 H34        2.2810   -21.1411    14.5032 H          1 BB1          0.0000
    34 C1        -0.9111   -18.4258     9.2021 C.3        2 BB2          0.0000
    35 S2        -0.4253   -19.5600    10.5319 S.3        2 BB2          0.0000
    36 C3         0.2245   -18.4423    11.8044 C.3        2 BB2          0.0000
    37 C4        -0.7278   -17.2573    11.9769 C.3        2 BB2          0.0000
    38 C5         0.0837   -15.9741    12.1659 C.3        2 BB2          0.0000
    39 N6         0.8220   -15.6776    10.9357 N.am       2 BB2          0.0000
    40 C7         0.5402   -14.5627    10.2328 C.2        2 BB2          0.0000
    41 O8        -0.3261   -13.8034    10.6195 O.2        2 BB2          0.0000
    42 O9         1.2187   -14.2902     9.1023 O.3        2 BB2          0.0000
    43 C10        0.6373   -13.3075     8.2052 C.3        2 BB2          0.0000
    44 C11        0.6808   -11.9271     8.8637 C.3        2 BB2          0.0000
    45 C12        1.4339   -13.2749     6.8993 C.3        2 BB2          0.0000
    46 C13       -0.8151   -13.6850     7.9074 C.3        2 BB2          0.0000
    47 C14        1.0554   -16.1570    13.3031 C.2        2 BB2          0.0000
    48 O15        0.8562   -15.6023    14.3703 O.2        2 BB2          0.0000
    49 H17       -1.6644   -17.7314     9.5739 H          2 BB2          0.0000
    50 H18       -0.0381   -17.8679     8.8634 H          2 BB2          0.0000
    51 H19       -1.3226   -18.9970     8.3698 H          2 BB2          0.0000
    52 H20        0.3116   -18.9789    12.7491 H          2 BB2          0.0000
    53 H21        1.2062   -18.0784    11.5015 H          2 BB2          0.0000
    54 H22       -1.3551   -17.1632    11.0905 H          2 BB2          0.0000
    55 H23       -1.3572   -17.4213    12.8517 H          2 BB2          0.0000
    56 H24       -0.5903   -15.1481    12.3932 H          2 BB2          0.0000
    57 H25        1.7156   -11.6582     9.0759 H          2 BB2          0.0000
    58 H26        0.2444   -11.1895     8.1903 H          2 BB2          0.0000
    59 H27        0.1134   -11.9504     9.7941 H          2 BB2          0.0000
    60 H28        1.4029   -14.2583     6.4302 H          2 BB2          0.0000
    61 H29        0.9975   -12.5371     6.2259 H          2 BB2          0.0000
    62 H30        2.4687   -13.0059     7.1115 H          2 BB2          0.0000
    63 H31       -1.3826   -13.7083     8.8377 H          2 BB2          0.0000
    64 H32       -1.2515   -12.9473     7.2340 H          2 BB2          0.0000
    65 H33       -0.8460   -14.6684     7.4382 H          2 BB2          0.0000
    66 H34        1.5134   -16.2838    10.6270 H          2 BB2          0.0000
@<TRIPOS>BOND
     1      1      2 1
     2      1     15 1
     3      1     16 1
     4      1     17 1
     5      2      3 1
     6      2      6 1
     7      2     33 1
     8      3      4 1
     9      3     18 1
    10      3     19 1
    11      4      5 1
    12      4     20 1
    13      4     21 1
    14      5      6 1
    15      5     22 1
    16      5     23 1
    17      6      7 1
    18      6     24 1
    19      7      8 2
    20      7      9 am
    21      9     10 1
    22      9     14 1
    23     10     11 1
    24     10     25 1
    25     10     26 1
    26     11     12 1
    27     11     27 1
    28     11     28 1
    29     12     13 1
    30     13     14 1
    31     13     29 1
    32     13     30 1
    33     14     31 1
    34     14     32 1
    35     34     35 1
    36     34     49 1
    37     34     50 1
    38     34     51 1
    39     35     36 1
    40     36     37 1
    41     36     52 1
    42     36     53 1
    43     37     38 1
    44     37     54 1
    45     37     55 1
    46     38     39 1
    47     38     47 1
    48     38     56 1
    49     39     40 am
    50     39     66 1
    51     40     41 2
    52     40     42 1
    53     42     43 1
    54     43     44 1
    55     43     45 1
    56     43     46 1
    57     44     57 1
    58     44     58 1
    59     44     59 1
    60     45     60 1
    61     45     61 1
    62     45     62 1
    63     46     63 1
    64     46     64 1
    65     46     65 1
    66     47     48 2
    67     12     47 am
@<TRIPOS>SUBSTRUCTURE
     1 BB1          12
     2 BB2          47
@<TRIPOS>MOLECULE
EN300-110418_i004_EN300-1071101_i001_20_8_1
  73   75   2   0   0
SMALL
USER_CHARGES
@<TRIPOS>ATOM
     1 C1         0.8294   -20.3453    15.7012 C.3        1 BB1          0.0000
     2 N2         1.2728   -21.1078    14.5264 N.4        1 BB1          1.0000
     3 C3         0.7308   -22.4817    14.5914 C.3        1 BB1          0.0000
     4 C4         0.4145   -22.8521    13.1209 C.3        1 BB1          0.0000
     5 C5        -0.1009   -21.5001    12.5612 C.3        1 BB1          0.0000
     6 C6         0.7721   -20.4631    13.2986 C.3        1 BB1          0.0000
     7 C7        -0.0565   -19.2558    13.6548 C.2        1 BB1          0.0000
     8 O8        -1.2642   -19.2968    13.5499 O.2        1 BB1          0.0000
     9 N9         0.5443   -18.1305    14.0898 N.am       1 BB1          0.0000
    10 C10        2.0107   -18.0235    14.1268 C.3        1 BB1          0.0000
    11 C11        2.4227   -16.7319    13.4126 C.3        1 BB1          0.0000
    12 N12        1.7020   -15.5972    14.0050 N.am       1 BB1          0.0000
    13 C13        0.2518   -15.7265    13.8097 C.3        1 BB1          0.0000
    14 C14       -0.2492   -16.9747    14.5345 C.3        1 BB1          0.0000
    15 H15        1.2944   -20.7559    16.5975 H          1 BB1          0.0000
    16 H16        1.1196   -19.3009    15.5872 H          1 BB1          0.0000
    17 H17       -0.2548   -20.4135    15.7905 H          1 BB1          0.0000
    18 H18        1.4746   -23.1640    15.0030 H          1 BB1          0.0000
    19 H19       -0.1785   -22.5030    15.1921 H          1 BB1          0.0000
    20 H20        1.3145   -23.1739    12.5970 H          1 BB1          0.0000
    21 H21       -0.3604   -23.6170    13.0690 H          1 BB1          0.0000
    22 H22        0.0591   -21.4427    11.4845 H          1 BB1          0.0000
    23 H23       -1.1543   -21.3591    12.8035 H          1 BB1          0.0000
    24 H24        1.6098   -20.1674    12.6670 H          1 BB1          0.0000
    25 H25        2.3496   -17.9934    15.1623 H          1 BB1          0.0000
    26 H26        2.4532   -18.8802    13.6185 H          1 BB1          0.0000
    27 H27        3.4961   -16.5802    13.5257 H          1 BB1          0.0000
    28 H28        2.1753   -16.8071    12.3537 H          1 BB1          0.0000
    29 H29       -0.2491   -14.8455    14.2110 H          1 BB1          0.0000
    30 H30        0.0347   -15.8156    12.7453 H          1 BB1          0.0000
    31 H31       -1.3008   -17.1378    14.2985 H          1 BB1          0.0000
    32 H32       -0.1279   -16.8469    15.6102 H          1 BB1          0.0000
    33 H34        2.2810   -21.1411    14.5032 H          1 BB1          0.0000
    34 C1         0.3515   -13.6135     6.6485 C.3        2 BB2          0.0000
    35 O2        -0.0879   -14.3590     7.7857 O.3        2 BB2          0.0000
    36 C3         0.9245   -14.5635     8.7732 C.3        2 BB2          0.0000
    37 C4         0.2818   -15.0750    10.0640 C.3        2 BB2          0.0000
    38 N5        -0.8631   -14.2283    10.4085 N.am       2 BB2          0.0000
    39 C6        -0.6994   -12.8977    10.5475 C.2        2 BB2          0.0000
    40 O7         0.3977   -12.4005    10.3872 O.2        2 BB2          0.0000
    41 O8        -1.7515   -12.1196    10.8640 O.3        2 BB2          0.0000
    42 C9        -1.7329   -10.7537    10.3717 C.3        2 BB2          0.0000
    43 C10       -0.7441    -9.9276    11.1967 C.3        2 BB2          0.0000
    44 C11       -1.3028   -10.7467     8.9034 C.3        2 BB2          0.0000
    45 C12       -3.1322   -10.1476    10.4961 C.3        2 BB2          0.0000
    46 C13        1.2931   -15.0310    11.1804 C.2        2 BB2          0.0000
    47 O15        0.9626   -15.3326    12.3146 O.2        2 BB2          0.0000
    48 C16       -0.1850   -16.4941     9.8647 C.ar       2 BB2          0.0000
    49 C17       -0.3964   -16.9791     8.5876 C.ar       2 BB2          0.0000
    50 C18       -0.8246   -18.2807     8.4047 C.ar       2 BB2          0.0000
    51 C19       -1.0410   -19.0973     9.4989 C.ar       2 BB2          0.0000
    52 C20       -0.8286   -18.6125    10.7758 C.ar       2 BB2          0.0000
    53 C21       -0.3963   -17.3123    10.9586 C.ar       2 BB2          0.0000
    54 H22       -0.4744   -13.5016     5.9461 H          2 BB2          0.0000
    55 H23        0.6919   -12.6288     6.9690 H          2 BB2          0.0000
    56 H24        1.1724   -14.1414     6.1631 H          2 BB2          0.0000
    57 H25        1.6436   -15.2975     8.4097 H          2 BB2          0.0000
    58 H26        1.4353   -13.6211     8.9704 H          2 BB2          0.0000
    59 H27        0.2528   -10.3594    11.1081 H          2 BB2          0.0000
    60 H28       -0.7302    -8.9022    10.8272 H          2 BB2          0.0000
    61 H29       -1.0506    -9.9327    12.2427 H          2 BB2          0.0000
    62 H30       -2.0073   -11.3352     8.3156 H          2 BB2          0.0000
    63 H31       -1.2888    -9.7213     8.5338 H          2 BB2          0.0000
    64 H32       -0.3059   -11.1785     8.8148 H          2 BB2          0.0000
    65 H33       -3.4387   -10.1527    11.5421 H          2 BB2          0.0000
    66 H34       -3.1183    -9.1222    10.1265 H          2 BB2          0.0000
    67 H35       -3.8367   -10.7361     9.9082 H          2 BB2          0.0000
    68 H36       -0.2274   -16.3411     7.7327 H          2 BB2          0.0000
    69 H37       -0.9904   -18.6594     7.4070 H          2 BB2          0.0000
    70 H38       -1.3762   -20.1140     9.3560 H          2 BB2          0.0000
    71 H39       -0.9980   -19.2505    11.6307 H          2 BB2          0.0000
    72 H40       -0.2304   -16.9335    11.9563 H          2 BB2          0.0000
    73 H41       -1.7388   -14.6253    10.5365 H          2 BB2          0.0000
@<TRIPOS>BOND
     1      1      2 1
     2      1     15 1
     3      1     16 1
     4      1     17 1
     5      2      3 1
     6      2      6 1
     7      2     33 1
     8      3      4 1
     9      3     18 1
    10      3     19 1
    11      4      5 1
    12      4     20 1
    13      4     21 1
    14      5      6 1
    15      5     22 1
    16      5     23 1
    17      6      7 1
    18      6     24 1
    19      7      8 2
    20      7      9 am
    21      9     10 1
    22      9     14 1
    23     10     11 1
    24     10     25 1
    25     10     26 1
    26     11     12 1
    27     11     27 1
    28     11     28 1
    29     12     13 1
    30     13     14 1
    31     13     29 1
    32     13     30 1
    33     14     31 1
    34     14     32 1
    35     34     35 1
    36     34     54 1
    37     34     55 1
    38     34     56 1
    39     35     36 1
    40     36     37 1
    41     36     57 1
    42     36     58 1
    43     37     38 1
    44     37     46 1
    45     37     48 1
    46     38     39 am
    47     38     73 1
    48     39     40 2
    49     39     41 1
    50     41     42 1
    51     42     43 1
    52     42     44 1
    53     42     45 1
    54     43     59 1
    55     43     60 1
    56     43     61 1
    57     44     62 1
    58     44     63 1
    59     44     64 1
    60     45     65 1
    61     45     66 1
    62     45     67 1
    63     46     47 2
    64     48     49 ar
    65     48     53 ar
    66     49     50 ar
    67     49     68 1
    68     50     51 ar
    69     50     69 1
    70     51     52 ar
    71     51     70 1
    72     52     53 ar
    73     52     71 1
    74     53     72 1
    75     12     46 am
@<TRIPOS>SUBSTRUCTURE
     1 BB1          12
     2 BB2          46
@<TRIPOS>MOLECULE
EN300-110418_i004_EN300-222254_i002_20_1_1
  56   59   2   0   0
SMALL
USER_CHARGES
@<TRIPOS>ATOM
     1 C1         0.8294   -20.3453    15.7012 C.3        1 BB1          0.0000
     2 N2         1.2728   -21.1078    14.5264 N.4        1 BB1          1.0000
     3 C3         0.7308   -22.4817    14.5914 C.3        1 BB1          0.0000
     4 C4         0.4145   -22.8521    13.1209 C.3        1 BB1          0.0000
     5 C5        -0.1009   -21.5001    12.5612 C.3        1 BB1          0.0000
     6 C6         0.7721   -20.4631    13.2986 C.3        1 BB1          0.0000
     7 C7        -0.0565   -19.2558    13.6548 C.2        1 BB1          0.0000
     8 O8        -1.2642   -19.2968    13.5499 O.2        1 BB1          0.0000
     9 N9         0.5443   -18.1305    14.0898 N.am       1 BB1          0.0000
    10 C10        2.0107   -18.0235    14.1268 C.3        1 BB1          0.0000
    11 C11        2.4227   -16.7319    13.4126 C.3        1 BB1          0.0000
    12 N12        1.7020   -15.5972    14.0050 N.am       1 BB1          0.0000
    13 C13        0.2518   -15.7265    13.8097 C.3        1 BB1          0.0000
    14 C14       -0.2492   -16.9747    14.5345 C.3        1 BB1          0.0000
    15 H15        1.2944   -20.7559    16.5975 H          1 BB1          0.0000
    16 H16        1.1196   -19.3009    15.5872 H          1 BB1          0.0000
    17 H17       -0.2548   -20.4135    15.7905 H          1 BB1          0.0000
    18 H18        1.4746   -23.1640    15.0030 H          1 BB1          0.0000
    19 H19       -0.1785   -22.5030    15.1921 H          1 BB1          0.0000
    20 H20        1.3145   -23.1739    12.5970 H          1 BB1          0.0000
    21 H21       -0.3604   -23.6170    13.0690 H          1 BB1          0.0000
    22 H22        0.0591   -21.4427    11.4845 H          1 BB1          0.0000
    23 H23       -1.1543   -21.3591    12.8035 H          1 BB1          0.0000
    24 H24        1.6098   -20.1674    12.6670 H          1 BB1          0.0000
    25 H25        2.3496   -17.9934    15.1623 H          1 BB1          0.0000
    26 H26        2.4532   -18.8802    13.6185 H          1 BB1          0.0000
    27 H27        3.4961   -16.5802    13.5257 H          1 BB1          0.0000
    28 H28        2.1753   -16.8071    12.3537 H          1 BB1          0.0000
    29 H29       -0.2491   -14.8455    14.2110 H          1 BB1          0.0000
    30 H30        0.0347   -15.8156    12.7453 H          1 BB1          0.0000
    31 H31       -1.3008   -17.1378    14.2985 H          1 BB1          0.0000
    32 H32       -0.1279   -16.8469    15.6102 H          1 BB1          0.0000
    33 H34        2.2810   -21.1411    14.5032 H          1 BB1          0.0000
    34 C2         0.7196   -16.0614    13.6158 C.2        2 BB2          0.0000
    35 O3         1.8368   -16.5307    13.4803 O.2        2 BB2          0.0000
    36 C4        -0.2410   -16.0554    12.4548 C.3        2 BB2          0.0000
    37 C5        -0.3307   -17.4046    11.7223 C.3        2 BB2          0.0000
    38 C6        -0.3838   -16.6008    10.4125 C.3        2 BB2          0.0000
    39 C7         0.3603   -15.4822    11.1606 C.3        2 BB2          0.0000
    40 C8        -0.1351   -14.0989    10.8258 C.ar       2 BB2          0.0000
    41 C9        -0.9924   -13.4442    11.6893 C.ar       2 BB2          0.0000
    42 C10       -1.4477   -12.1754    11.3827 C.ar       2 BB2          0.0000
    43 C11       -1.0451   -11.5594    10.2112 C.ar       2 BB2          0.0000
    44 Cl12      -1.6170    -9.9659     9.8274 Cl         2 BB2          0.0000
    45 C13       -0.1865   -12.2132     9.3458 C.ar       2 BB2          0.0000
    46 C14        0.2735   -13.4815     9.6554 C.ar       2 BB2          0.0000
    47 F15        1.1125   -14.1209     8.8113 F          2 BB2          0.0000
    48 H16       -1.2123   -15.6324    12.7112 H          2 BB2          0.0000
    49 H17        0.5657   -18.0166    11.8231 H          2 BB2          0.0000
    50 H18       -1.2468   -17.9561    11.9336 H          2 BB2          0.0000
    51 H19        0.1958   -17.0455     9.6035 H          2 BB2          0.0000
    52 H20       -1.3941   -16.3263    10.1093 H          2 BB2          0.0000
    53 H21        1.4456   -15.5685    11.1078 H          2 BB2          0.0000
    54 H22       -1.3074   -13.9242    12.6042 H          2 BB2          0.0000
    55 H23       -2.1183   -11.6648    12.0580 H          2 BB2          0.0000
    56 H24        0.1280   -11.7327     8.4312 H          2 BB2          0.0000
@<TRIPOS>BOND
     1      1      2 1
     2      1     15 1
     3      1     16 1
     4      1     17 1
     5      2      3 1
     6      2      6 1
     7      2     33 1
     8      3      4 1
     9      3     18 1
    10      3     19 1
    11      4      5 1
    12      4     20 1
    13      4     21 1
    14      5      6 1
    15      5     22 1
    16      5     23 1
    17      6      7 1
    18      6     24 1
    19      7      8 2
    20      7      9 am
    21      9     10 1
    22      9     14 1
    23     10     11 1
    24     10     25 1
    25     10     26 1
    26     11     12 1
    27     11     27 1
    28     11     28 1
    29     12     13 1
    30     13     14 1
    31     13     29 1
    32     13     30 1
    33     14     31 1
    34     14     32 1
    35     34     35 2
    36     34     36 1
    37     36     37 1
    38     36     39 1
    39     36     48 1
    40     37     38 1
    41     37     49 1
    42     37     50 1
    43     38     39 1
    44     38     51 1
    45     38     52 1
    46     39     40 1
    47     39     53 1
    48     40     41 ar
    49     40     46 ar
    50     41     42 ar
    51     41     54 1
    52     42     43 ar
    53     42     55 1
    54     43     44 1
    55     43     45 ar
    56     45     46 ar
    57     45     56 1
    58     46     47 1
    59     12     34 am
@<TRIPOS>SUBSTRUCTURE
     1 BB1          12
     2 BB2          34
@<TRIPOS>MOLECULE
EN300-110418_i004_EN300-315786_i001_20_1_1
  61   64   2   0   0
SMALL
USER_CHARGES
@<TRIPOS>ATOM
     1 C1         0.8294   -20.3453    15.7012 C.3        1 BB1          0.0000
     2 N2         1.2728   -21.1078    14.5264 N.4        1 BB1          1.0000
     3 C3         0.7308   -22.4817    14.5914 C.3        1 BB1          0.0000
     4 C4         0.4145   -22.8521    13.1209 C.3        1 BB1          0.0000
     5 C5        -0.1009   -21.5001    12.5612 C.3        1 BB1          0.0000
     6 C6         0.7721   -20.4631    13.2986 C.3        1 BB1          0.0000
     7 C7        -0.0565   -19.2558    13.6548 C.2        1 BB1          0.0000
     8 O8        -1.2642   -19.2968    13.5499 O.2        1 BB1          0.0000
     9 N9         0.5443   -18.1305    14.0898 N.am       1 BB1          0.0000
    10 C10        2.0107   -18.0235    14.1268 C.3        1 BB1          0.0000
    11 C11        2.4227   -16.7319    13.4126 C.3        1 BB1          0.0000
    12 N12        1.7020   -15.5972    14.0050 N.am       1 BB1          0.0000
    13 C13        0.2518   -15.7265    13.8097 C.3        1 BB1          0.0000
    14 C14       -0.2492   -16.9747    14.5345 C.3        1 BB1          0.0000
    15 H15        1.2944   -20.7559    16.5975 H          1 BB1          0.0000
    16 H16        1.1196   -19.3009    15.5872 H          1 BB1          0.0000
    17 H17       -0.2548   -20.4135    15.7905 H          1 BB1          0.0000
    18 H18        1.4746   -23.1640    15.0030 H          1 BB1          0.0000
    19 H19       -0.1785   -22.5030    15.1921 H          1 BB1          0.0000
    20 H20        1.3145   -23.1739    12.5970 H          1 BB1          0.0000
    21 H21       -0.3604   -23.6170    13.0690 H          1 BB1          0.0000
    22 H22        0.0591   -21.4427    11.4845 H          1 BB1          0.0000
    23 H23       -1.1543   -21.3591    12.8035 H          1 BB1          0.0000
    24 H24        1.6098   -20.1674    12.6670 H          1 BB1          0.0000
    25 H25        2.3496   -17.9934    15.1623 H          1 BB1          0.0000
    26 H26        2.4532   -18.8802    13.6185 H          1 BB1          0.0000
    27 H27        3.4961   -16.5802    13.5257 H          1 BB1          0.0000
    28 H28        2.1753   -16.8071    12.3537 H          1 BB1          0.0000
    29 H29       -0.2491   -14.8455    14.2110 H          1 BB1          0.0000
    30 H30        0.0347   -15.8156    12.7453 H          1 BB1          0.0000
    31 H31       -1.3008   -17.1378    14.2985 H          1 BB1          0.0000
    32 H32       -0.1279   -16.8469    15.6102 H          1 BB1          0.0000
    33 H34        2.2810   -21.1411    14.5032 H          1 BB1          0.0000
    34 O1         0.2905   -16.2156    14.6110 O.2        2 BB2          0.0000
    35 C2        -0.0431   -16.8871    13.6453 C.2        2 BB2          0.0000
    36 C4         0.1511   -16.3620    12.2777 C.ar       2 BB2          0.0000
    37 C5         0.9072   -15.2055    12.0741 C.ar       2 BB2          0.0000
    38 C6         1.0879   -14.7164    10.7984 C.ar       2 BB2          0.0000
    39 C7         0.5155   -15.3762     9.7102 C.ar       2 BB2          0.0000
    40 C8        -0.2401   -16.5316     9.9129 C.ar       2 BB2          0.0000
    41 C9        -0.4168   -17.0252    11.1875 C.ar       2 BB2          0.0000
    42 C10        0.7097   -14.8496     8.3397 C.2        2 BB2          0.0000
    43 O11        1.2660   -15.5300     7.5005 O.2        2 BB2          0.0000
    44 N12        0.2693   -13.6158     8.0232 N.am       2 BB2          0.0000
    45 C13       -0.3324   -12.7415     9.0425 C.3        2 BB2          0.0000
    46 C14        0.3584   -11.3747     8.9759 C.3        2 BB2          0.0000
    47 O15        0.3256   -10.8958     7.6294 O.3        2 BB2          0.0000
    48 C16        1.0327   -11.7185     6.6982 C.3        2 BB2          0.0000
    49 C17        0.3815   -13.1008     6.6492 C.3        2 BB2          0.0000
    50 H18        1.3500   -14.6945    12.9163 H          2 BB2          0.0000
    51 H19        1.6724   -13.8218    10.6409 H          2 BB2          0.0000
    52 H20       -0.6831   -17.0416     9.0702 H          2 BB2          0.0000
    53 H21       -1.0013   -17.9196    11.3442 H          2 BB2          0.0000
    54 H22       -1.3977   -12.6246     8.8434 H          2 BB2          0.0000
    55 H23       -0.1890   -13.1776    10.0311 H          2 BB2          0.0000
    56 H24       -0.1628   -10.6713     9.6253 H          2 BB2          0.0000
    57 H25        1.3938   -11.4738     9.3019 H          2 BB2          0.0000
    58 H26        0.9965   -11.2625     5.7088 H          2 BB2          0.0000
    59 H27        2.0704   -11.8188     7.0159 H          2 BB2          0.0000
    60 H28        0.9955   -13.7750     6.0520 H          2 BB2          0.0000
    61 H29       -0.6130   -13.0228     6.2100 H          2 BB2          0.0000
@<TRIPOS>BOND
     1      1      2 1
     2      1     15 1
     3      1     16 1
     4      1     17 1
     5      2      3 1
     6      2      6 1
     7      2     33 1
     8      3      4 1
     9      3     18 1
    10      3     19 1
    11      4      5 1
    12      4     20 1
    13      4     21 1
    14      5      6 1
    15      5     22 1
    16      5     23 1
    17      6      7 1
    18      6     24 1
    19      7      8 2
    20      7      9 am
    21      9     10 1
    22      9     14 1
    23     10     11 1
    24     10     25 1
    25     10     26 1
    26     11     12 1
    27     11     27 1
    28     11     28 1
    29     12     13 1
    30     13     14 1
    31     13     29 1
    32     13     30 1
    33     14     31 1
    34     14     32 1
    35     34     35 2
    36     35     36 1
    37     36     37 ar
    38     36     41 ar
    39     37     38 ar
    40     37     50 1
    41     38     39 ar
    42     38     51 1
    43     39     40 ar
    44     39     42 1
    45     40     41 ar
    46     40     52 1
    47     41     53 1
    48     42     43 2
    49     42     44 am
    50     44     45 1
    51     44     49 1
    52     45     46 1
    53     45     54 1
    54     45     55 1
    55     46     47 1
    56     46     56 1
    57     46     57 1
    58     47     48 1
    59     48     49 1
    60     48     58 1
    61     48     59 1
    62     49     60 1
    63     49     61 1
    64     12     35 am
@<TRIPOS>SUBSTRUCTURE
     1 BB1          12
     2 BB2          35
@<TRIPOS>MOLECULE
EN300-110418_i004_EN300-194291_i002_20_12_1
  57   60   2   0   0
SMALL
USER_CHARGES
@<TRIPOS>ATOM
     1 C1         0.8294   -20.3453    15.7012 C.3        1 BB1          0.0000
     2 N2         1.2728   -21.1078    14.5264 N.4        1 BB1          1.0000
     3 C3         0.7308   -22.4817    14.5914 C.3        1 BB1          0.0000
     4 C4         0.4145   -22.8521    13.1209 C.3        1 BB1          0.0000
     5 C5        -0.1009   -21.5001    12.5612 C.3        1 BB1          0.0000
     6 C6         0.7721   -20.4631    13.2986 C.3        1 BB1          0.0000
     7 C7        -0.0565   -19.2558    13.6548 C.2        1 BB1          0.0000
     8 O8        -1.2642   -19.2968    13.5499 O.2        1 BB1          0.0000
     9 N9         0.5443   -18.1305    14.0898 N.am       1 BB1          0.0000
    10 C10        2.0107   -18.0235    14.1268 C.3        1 BB1          0.0000
    11 C11        2.4227   -16.7319    13.4126 C.3        1 BB1          0.0000
    12 N12        1.7020   -15.5972    14.0050 N.am       1 BB1          0.0000
    13 C13        0.2518   -15.7265    13.8097 C.3        1 BB1          0.0000
    14 C14       -0.2492   -16.9747    14.5345 C.3        1 BB1          0.0000
    15 H15        1.2944   -20.7559    16.5975 H          1 BB1          0.0000
    16 H16        1.1196   -19.3009    15.5872 H          1 BB1          0.0000
    17 H17       -0.2548   -20.4135    15.7905 H          1 BB1          0.0000
    18 H18        1.4746   -23.1640    15.0030 H          1 BB1          0.0000
    19 H19       -0.1785   -22.5030    15.1921 H          1 BB1          0.0000
    20 H20        1.3145   -23.1739    12.5970 H          1 BB1          0.0000
    21 H21       -0.3604   -23.6170    13.0690 H          1 BB1          0.0000
    22 H22        0.0591   -21.4427    11.4845 H          1 BB1          0.0000
    23 H23       -1.1543   -21.3591    12.8035 H          1 BB1          0.0000
    24 H24        1.6098   -20.1674    12.6670 H          1 BB1          0.0000
    25 H25        2.3496   -17.9934    15.1623 H          1 BB1          0.0000
    26 H26        2.4532   -18.8802    13.6185 H          1 BB1          0.0000
    27 H27        3.4961   -16.5802    13.5257 H          1 BB1          0.0000
    28 H28        2.1753   -16.8071    12.3537 H          1 BB1          0.0000
    29 H29       -0.2491   -14.8455    14.2110 H          1 BB1          0.0000
    30 H30        0.0347   -15.8156    12.7453 H          1 BB1          0.0000
    31 H31       -1.3008   -17.1378    14.2985 H          1 BB1          0.0000
    32 H32       -0.1279   -16.8469    15.6102 H          1 BB1          0.0000
    33 H34        2.2810   -21.1411    14.5032 H          1 BB1          0.0000
    34 O1         1.9320   -16.0914    13.2909 O.2        2 BB2          0.0000
    35 C2         0.7456   -15.8133    13.3301 C.2        2 BB2          0.0000
    36 C4         0.0314   -15.3798    12.0758 C.3        2 BB2          0.0000
    37 C5        -0.7148   -14.0455    12.2975 C.3        2 BB2          0.0000
    38 N6        -0.5862   -13.3104    11.0337 N.am       2 BB2          0.0000
    39 C7         0.3960   -13.8196    10.2703 C.2        2 BB2          0.0000
    40 O8         0.7185   -13.3971     9.1801 O.2        2 BB2          0.0000
    41 C9         1.0406   -14.9966    10.9688 C.3        2 BB2          0.0000
    42 C10       -1.3839   -12.2184    10.6702 C.ar       2 BB2          0.0000
    43 C11       -0.8494   -10.9372    10.6692 C.ar       2 BB2          0.0000
    44 C12       -1.6370    -9.8604    10.3100 C.ar       2 BB2          0.0000
    45 C13       -2.9591   -10.0573     9.9514 C.ar       2 BB2          0.0000
    46 F14       -3.7273    -9.0028     9.6005 F          2 BB2          0.0000
    47 C15       -3.4960   -11.3363     9.9514 C.ar       2 BB2          0.0000
    48 F16       -4.7867   -11.5269     9.6006 F          2 BB2          0.0000
    49 C17       -2.7088   -12.4167    10.3049 C.ar       2 BB2          0.0000
    50 H18       -0.6515   -16.1560    11.7302 H          2 BB2          0.0000
    51 H19       -1.7653   -14.2332    12.5195 H          2 BB2          0.0000
    52 H20       -0.2513   -13.4845    13.1090 H          2 BB2          0.0000
    53 H21        1.9949   -14.7042    11.4071 H          2 BB2          0.0000
    54 H22        1.1770   -15.8249    10.2735 H          2 BB2          0.0000
    55 H23        0.1820   -10.7822    10.9496 H          2 BB2          0.0000
    56 H24       -1.2207    -8.8639    10.3094 H          2 BB2          0.0000
    57 H25       -3.1263   -13.4128    10.3050 H          2 BB2          0.0000
@<TRIPOS>BOND
     1      1      2 1
     2      1     15 1
     3      1     16 1
     4      1     17 1
     5      2      3 1
     6      2      6 1
     7      2     33 1
     8      3      4 1
     9      3     18 1
    10      3     19 1
    11      4      5 1
    12      4     20 1
    13      4     21 1
    14      5      6 1
    15      5     22 1
    16      5     23 1
    17      6      7 1
    18      6     24 1
    19      7      8 2
    20      7      9 am
    21      9     10 1
    22      9     14 1
    23     10     11 1
    24     10     25 1
    25     10     26 1
    26     11     12 1
    27     11     27 1
    28     11     28 1
    29     12     13 1
    30     13     14 1
    31     13     29 1
    32     13     30 1
    33     14     31 1
    34     14     32 1
    35     34     35 2
    36     35     36 1
    37     36     37 1
    38     36     41 1
    39     36     50 1
    40     37     38 1
    41     37     51 1
    42     37     52 1
    43     38     39 am
    44     38     42 1
    45     39     40 2
    46     39     41 1
    47     41     53 1
    48     41     54 1
    49     42     43 ar
    50     42     49 ar
    51     43     44 ar
    52     43     55 1
    53     44     45 ar
    54     44     56 1
    55     45     46 1
    56     45     47 ar
    57     47     48 1
    58     47     49 ar
    59     49     57 1
    60     12     35 am
@<TRIPOS>SUBSTRUCTURE
     1 BB1          12
     2 BB2          35
@<TRIPOS>MOLECULE
EN300-110418_i004_EN300-194291_i002_20_6_1
  57   60   2   0   0
SMALL
USER_CHARGES
@<TRIPOS>ATOM
     1 C1         0.8294   -20.3453    15.7012 C.3        1 BB1          0.0000
     2 N2         1.2728   -21.1078    14.5264 N.4        1 BB1          1.0000
     3 C3         0.7308   -22.4817    14.5914 C.3        1 BB1          0.0000
     4 C4         0.4145   -22.8521    13.1209 C.3        1 BB1          0.0000
     5 C5        -0.1009   -21.5001    12.5612 C.3        1 BB1          0.0000
     6 C6         0.7721   -20.4631    13.2986 C.3        1 BB1          0.0000
     7 C7        -0.0565   -19.2558    13.6548 C.2        1 BB1          0.0000
     8 O8        -1.2642   -19.2968    13.5499 O.2        1 BB1          0.0000
     9 N9         0.5443   -18.1305    14.0898 N.am       1 BB1          0.0000
    10 C10        2.0107   -18.0235    14.1268 C.3        1 BB1          0.0000
    11 C11        2.4227   -16.7319    13.4126 C.3        1 BB1          0.0000
    12 N12        1.7020   -15.5972    14.0050 N.am       1 BB1          0.0000
    13 C13        0.2518   -15.7265    13.8097 C.3        1 BB1          0.0000
    14 C14       -0.2492   -16.9747    14.5345 C.3        1 BB1          0.0000
    15 H15        1.2944   -20.7559    16.5975 H          1 BB1          0.0000
    16 H16        1.1196   -19.3009    15.5872 H          1 BB1          0.0000
    17 H17       -0.2548   -20.4135    15.7905 H          1 BB1          0.0000
    18 H18        1.4746   -23.1640    15.0030 H          1 BB1          0.0000
    19 H19       -0.1785   -22.5030    15.1921 H          1 BB1          0.0000
    20 H20        1.3145   -23.1739    12.5970 H          1 BB1          0.0000
    21 H21       -0.3604   -23.6170    13.0690 H          1 BB1          0.0000
    22 H22        0.0591   -21.4427    11.4845 H          1 BB1          0.0000
    23 H23       -1.1543   -21.3591    12.8035 H          1 BB1          0.0000
    24 H24        1.6098   -20.1674    12.6670 H          1 BB1          0.0000
    25 H25        2.3496   -17.9934    15.1623 H          1 BB1          0.0000
    26 H26        2.4532   -18.8802    13.6185 H          1 BB1          0.0000
    27 H27        3.4961   -16.5802    13.5257 H          1 BB1          0.0000
    28 H28        2.1753   -16.8071    12.3537 H          1 BB1          0.0000
    29 H29       -0.2491   -14.8455    14.2110 H          1 BB1          0.0000
    30 H30        0.0347   -15.8156    12.7453 H          1 BB1          0.0000
    31 H31       -1.3008   -17.1378    14.2985 H          1 BB1          0.0000
    32 H32       -0.1279   -16.8469    15.6102 H          1 BB1          0.0000
    33 H34        2.2810   -21.1411    14.5032 H          1 BB1          0.0000
    34 O1         1.0065   -15.9968    14.3205 O.2        2 BB2          0.0000
    35 C2        -0.0228   -16.5681    14.0032 C.2        2 BB2          0.0000
    36 C4        -0.6902   -16.2451    12.6912 C.3        2 BB2          0.0000
    37 C5         0.1173   -15.1882    11.9056 C.3        2 BB2          0.0000
    38 N6        -0.0074   -15.5700    10.4939 N.am       2 BB2          0.0000
    39 C7        -0.4260   -16.8410    10.3670 C.2        2 BB2          0.0000
    40 O8        -0.6055   -17.4112     9.3117 O.2        2 BB2          0.0000
    41 C9        -0.6406   -17.4569    11.7321 C.3        2 BB2          0.0000
    42 C10        0.2740   -14.7196     9.4177 C.ar       2 BB2          0.0000
    43 C11        0.6822   -15.2499     8.2014 C.ar       2 BB2          0.0000
    44 C12        0.9593   -14.4102     7.1397 C.ar       2 BB2          0.0000
    45 C13        0.8309   -13.0402     7.2875 C.ar       2 BB2          0.0000
    46 F14        1.1024   -12.2211     6.2480 F          2 BB2          0.0000
    47 C15        0.4233   -12.5073     8.5015 C.ar       2 BB2          0.0000
    48 F16        0.2980   -11.1696     8.6440 F          2 BB2          0.0000
    49 C17        0.1397   -13.3454     9.5642 C.ar       2 BB2          0.0000
    50 H18       -1.7166   -15.9138    12.8493 H          2 BB2          0.0000
    51 H19       -0.3037   -14.1957    12.0665 H          2 BB2          0.0000
    52 H20        1.1634   -15.2091    12.2110 H          2 BB2          0.0000
    53 H21        0.1907   -18.1133    11.9894 H          2 BB2          0.0000
    54 H22       -1.5828   -18.0042    11.7598 H          2 BB2          0.0000
    55 H23        0.7834   -16.3189     8.0851 H          2 BB2          0.0000
    56 H24        1.2768   -14.8233     6.1937 H          2 BB2          0.0000
    57 H25       -0.1778   -12.9311    10.5097 H          2 BB2          0.0000
@<TRIPOS>BOND
     1      1      2 1
     2      1     15 1
     3      1     16 1
     4      1     17 1
     5      2      3 1
     6      2      6 1
     7      2     33 1
     8      3      4 1
     9      3     18 1
    10      3     19 1
    11      4      5 1
    12      4     20 1
    13      4     21 1
    14      5      6 1
    15      5     22 1
    16      5     23 1
    17      6      7 1
    18      6     24 1
    19      7      8 2
    20      7      9 am
    21      9     10 1
    22      9     14 1
    23     10     11 1
    24     10     25 1
    25     10     26 1
    26     11     12 1
    27     11     27 1
    28     11     28 1
    29     12     13 1
    30     13     14 1
    31     13     29 1
    32     13     30 1
    33     14     31 1
    34     14     32 1
    35     34     35 2
    36     35     36 1
    37     36     37 1
    38     36     41 1
    39     36     50 1
    40     37     38 1
    41     37     51 1
    42     37     52 1
    43     38     39 am
    44     38     42 1
    45     39     40 2
    46     39     41 1
    47     41     53 1
    48     41     54 1
    49     42     43 ar
    50     42     49 ar
    51     43     44 ar
    52     43     55 1
    53     44     45 ar
    54     44     56 1
    55     45     46 1
    56     45     47 ar
    57     47     48 1
    58     47     49 ar
    59     49     57 1
    60     12     35 am
@<TRIPOS>SUBSTRUCTURE
     1 BB1          12
     2 BB2          35
@<TRIPOS>MOLECULE
EN300-110418_i004_EN300-206926_i001_20_13_1
  48   49   2   0   0
SMALL
USER_CHARGES
@<TRIPOS>ATOM
     1 C1         0.8294   -20.3453    15.7012 C.3        1 BB1          0.0000
     2 N2         1.2728   -21.1078    14.5264 N.4        1 BB1          1.0000
     3 C3         0.7308   -22.4817    14.5914 C.3        1 BB1          0.0000
     4 C4         0.4145   -22.8521    13.1209 C.3        1 BB1          0.0000
     5 C5        -0.1009   -21.5001    12.5612 C.3        1 BB1          0.0000
     6 C6         0.7721   -20.4631    13.2986 C.3        1 BB1          0.0000
     7 C7        -0.0565   -19.2558    13.6548 C.2        1 BB1          0.0000
     8 O8        -1.2642   -19.2968    13.5499 O.2        1 BB1          0.0000
     9 N9         0.5443   -18.1305    14.0898 N.am       1 BB1          0.0000
    10 C10        2.0107   -18.0235    14.1268 C.3        1 BB1          0.0000
    11 C11        2.4227   -16.7319    13.4126 C.3        1 BB1          0.0000
    12 N12        1.7020   -15.5972    14.0050 N.am       1 BB1          0.0000
    13 C13        0.2518   -15.7265    13.8097 C.3        1 BB1          0.0000
    14 C14       -0.2492   -16.9747    14.5345 C.3        1 BB1          0.0000
    15 H15        1.2944   -20.7559    16.5975 H          1 BB1          0.0000
    16 H16        1.1196   -19.3009    15.5872 H          1 BB1          0.0000
    17 H17       -0.2548   -20.4135    15.7905 H          1 BB1          0.0000
    18 H18        1.4746   -23.1640    15.0030 H          1 BB1          0.0000
    19 H19       -0.1785   -22.5030    15.1921 H          1 BB1          0.0000
    20 H20        1.3145   -23.1739    12.5970 H          1 BB1          0.0000
    21 H21       -0.3604   -23.6170    13.0690 H          1 BB1          0.0000
    22 H22        0.0591   -21.4427    11.4845 H          1 BB1          0.0000
    23 H23       -1.1543   -21.3591    12.8035 H          1 BB1          0.0000
    24 H24        1.6098   -20.1674    12.6670 H          1 BB1          0.0000
    25 H25        2.3496   -17.9934    15.1623 H          1 BB1          0.0000
    26 H26        2.4532   -18.8802    13.6185 H          1 BB1          0.0000
    27 H27        3.4961   -16.5802    13.5257 H          1 BB1          0.0000
    28 H28        2.1753   -16.8071    12.3537 H          1 BB1          0.0000
    29 H29       -0.2491   -14.8455    14.2110 H          1 BB1          0.0000
    30 H30        0.0347   -15.8156    12.7453 H          1 BB1          0.0000
    31 H31       -1.3008   -17.1378    14.2985 H          1 BB1          0.0000
    32 H32       -0.1279   -16.8469    15.6102 H          1 BB1          0.0000
    33 H34        2.2810   -21.1411    14.5032 H          1 BB1          0.0000
    34 C1        -0.9824   -11.6960    10.6006 C.3        2 BB2          0.0000
    35 C2         0.1278   -12.0724     9.6537 C.2        2 BB2          0.0000
    36 O3         0.5421   -11.2618     8.8517 O.2        2 BB2          0.0000
    37 S4         0.8045   -13.6441     9.7096 S.3        2 BB2          0.0000
    38 C5        -0.1426   -14.3454    11.0834 C.3        2 BB2          0.0000
    39 C6         0.7480   -15.2992    11.8823 C.3        2 BB2          0.0000
    40 C7        -0.0391   -15.8792    13.0292 C.2        2 BB2          0.0000
    41 O9         0.2837   -15.6295    14.1780 O.2        2 BB2          0.0000
    42 H10       -1.9443   -11.9285    10.1436 H          2 BB2          0.0000
    43 H11       -0.8754   -12.2586    11.5281 H          2 BB2          0.0000
    44 H12       -0.9306   -10.6285    10.8151 H          2 BB2          0.0000
    45 H13       -0.4892   -13.5419    11.7333 H          2 BB2          0.0000
    46 H14       -1.0005   -14.8917    10.6917 H          2 BB2          0.0000
    47 H15        1.0916   -16.1047    11.2334 H          2 BB2          0.0000
    48 H16        1.6079   -14.7537    12.2708 H          2 BB2          0.0000
@<TRIPOS>BOND
     1      1      2 1
     2      1     15 1
     3      1     16 1
     4      1     17 1
     5      2      3 1
     6      2      6 1
     7      2     33 1
     8      3      4 1
     9      3     18 1
    10      3     19 1
    11      4      5 1
    12      4     20 1
    13      4     21 1
    14      5      6 1
    15      5     22 1
    16      5     23 1
    17      6      7 1
    18      6     24 1
    19      7      8 2
    20      7      9 am
    21      9     10 1
    22      9     14 1
    23     10     11 1
    24     10     25 1
    25     10     26 1
    26     11     12 1
    27     11     27 1
    28     11     28 1
    29     12     13 1
    30     13     14 1
    31     13     29 1
    32     13     30 1
    33     14     31 1
    34     14     32 1
    35     34     35 1
    36     34     42 1
    37     34     43 1
    38     34     44 1
    39     35     36 2
    40     35     37 1
    41     37     38 1
    42     38     39 1
    43     38     45 1
    44     38     46 1
    45     39     40 1
    46     39     47 1
    47     39     48 1
    48     40     41 2
    49     12     40 am
@<TRIPOS>SUBSTRUCTURE
     1 BB1          12
     2 BB2          40
@<TRIPOS>MOLECULE
EN300-110418_i004_EN300-206926_i001_20_19_1
  48   49   2   0   0
SMALL
USER_CHARGES
@<TRIPOS>ATOM
     1 C1         0.8294   -20.3453    15.7012 C.3        1 BB1          0.0000
     2 N2         1.2728   -21.1078    14.5264 N.4        1 BB1          1.0000
     3 C3         0.7308   -22.4817    14.5914 C.3        1 BB1          0.0000
     4 C4         0.4145   -22.8521    13.1209 C.3        1 BB1          0.0000
     5 C5        -0.1009   -21.5001    12.5612 C.3        1 BB1          0.0000
     6 C6         0.7721   -20.4631    13.2986 C.3        1 BB1          0.0000
     7 C7        -0.0565   -19.2558    13.6548 C.2        1 BB1          0.0000
     8 O8        -1.2642   -19.2968    13.5499 O.2        1 BB1          0.0000
     9 N9         0.5443   -18.1305    14.0898 N.am       1 BB1          0.0000
    10 C10        2.0107   -18.0235    14.1268 C.3        1 BB1          0.0000
    11 C11        2.4227   -16.7319    13.4126 C.3        1 BB1          0.0000
    12 N12        1.7020   -15.5972    14.0050 N.am       1 BB1          0.0000
    13 C13        0.2518   -15.7265    13.8097 C.3        1 BB1          0.0000
    14 C14       -0.2492   -16.9747    14.5345 C.3        1 BB1          0.0000
    15 H15        1.2944   -20.7559    16.5975 H          1 BB1          0.0000
    16 H16        1.1196   -19.3009    15.5872 H          1 BB1          0.0000
    17 H17       -0.2548   -20.4135    15.7905 H          1 BB1          0.0000
    18 H18        1.4746   -23.1640    15.0030 H          1 BB1          0.0000
    19 H19       -0.1785   -22.5030    15.1921 H          1 BB1          0.0000
    20 H20        1.3145   -23.1739    12.5970 H          1 BB1          0.0000
    21 H21       -0.3604   -23.6170    13.0690 H          1 BB1          0.0000
    22 H22        0.0591   -21.4427    11.4845 H          1 BB1          0.0000
    23 H23       -1.1543   -21.3591    12.8035 H          1 BB1          0.0000
    24 H24        1.6098   -20.1674    12.6670 H          1 BB1          0.0000
    25 H25        2.3496   -17.9934    15.1623 H          1 BB1          0.0000
    26 H26        2.4532   -18.8802    13.6185 H          1 BB1          0.0000
    27 H27        3.4961   -16.5802    13.5257 H          1 BB1          0.0000
    28 H28        2.1753   -16.8071    12.3537 H          1 BB1          0.0000
    29 H29       -0.2491   -14.8455    14.2110 H          1 BB1          0.0000
    30 H30        0.0347   -15.8156    12.7453 H          1 BB1          0.0000
    31 H31       -1.3008   -17.1378    14.2985 H          1 BB1          0.0000
    32 H32       -0.1279   -16.8469    15.6102 H          1 BB1          0.0000
    33 H34        2.2810   -21.1411    14.5032 H          1 BB1          0.0000
    34 C1         0.9340   -14.4334     7.4760 C.3        2 BB2          0.0000
    35 C2         0.7101   -13.9092     8.8711 C.2        2 BB2          0.0000
    36 O3        -0.2018   -13.1399     9.0910 O.2        2 BB2          0.0000
    37 S4         1.7426   -14.3997    10.1456 S.3        2 BB2          0.0000
    38 C5         0.5129   -14.9753    11.3425 C.3        2 BB2          0.0000
    39 C6         1.1850   -15.8998    12.3596 C.3        2 BB2          0.0000
    40 C7         0.1895   -16.2839    13.4239 C.2        2 BB2          0.0000
    41 O9         0.3633   -15.9297    14.5775 O.2        2 BB2          0.0000
    42 H10        1.6098   -13.7659     6.9413 H          2 BB2          0.0000
    43 H11        1.3731   -15.4296     7.5282 H          2 BB2          0.0000
    44 H12       -0.0191   -14.4835     6.9494 H          2 BB2          0.0000
    45 H13        0.0809   -14.1187    11.8600 H          2 BB2          0.0000
    46 H14       -0.2744   -15.5197    10.8212 H          2 BB2          0.0000
    47 H15        1.5414   -16.7976    11.8546 H          2 BB2          0.0000
    48 H16        2.0272   -15.3829    12.8194 H          2 BB2          0.0000
@<TRIPOS>BOND
     1      1      2 1
     2      1     15 1
     3      1     16 1
     4      1     17 1
     5      2      3 1
     6      2      6 1
     7      2     33 1
     8      3      4 1
     9      3     18 1
    10      3     19 1
    11      4      5 1
    12      4     20 1
    13      4     21 1
    14      5      6 1
    15      5     22 1
    16      5     23 1
    17      6      7 1
    18      6     24 1
    19      7      8 2
    20      7      9 am
    21      9     10 1
    22      9     14 1
    23     10     11 1
    24     10     25 1
    25     10     26 1
    26     11     12 1
    27     11     27 1
    28     11     28 1
    29     12     13 1
    30     13     14 1
    31     13     29 1
    32     13     30 1
    33     14     31 1
    34     14     32 1
    35     34     35 1
    36     34     42 1
    37     34     43 1
    38     34     44 1
    39     35     36 2
    40     35     37 1
    41     37     38 1
    42     38     39 1
    43     38     45 1
    44     38     46 1
    45     39     40 1
    46     39     47 1
    47     39     48 1
    48     40     41 2
    49     12     40 am
@<TRIPOS>SUBSTRUCTURE
     1 BB1          12
     2 BB2          40
@<TRIPOS>MOLECULE
EN300-110418_i004_EN300-1165841_i001_8_18_1
  61   63   2   0   0
SMALL
USER_CHARGES
@<TRIPOS>ATOM
     1 C1        -0.2605   -13.0848    10.4856 C.3        1 BB1          0.0000
     2 N2        -1.5011   -12.3083    10.3592 N.4        1 BB1          1.0000
     3 C3        -1.6340   -11.3917    11.5116 C.3        1 BB1          0.0000
     4 C4        -2.2798   -10.1112    10.9261 C.3        1 BB1          0.0000
     5 C5        -1.5989   -10.0249     9.5348 C.3        1 BB1          0.0000
     6 C6        -1.4602   -11.5056     9.1231 C.3        1 BB1          0.0000
     7 C7        -0.1470   -11.7202     8.4156 C.2        1 BB1          0.0000
     8 O8         0.7214   -10.8759     8.4797 O.2        1 BB1          0.0000
     9 N9         0.0624   -12.8503     7.7116 N.am       1 BB1          0.0000
    10 C10        1.3708   -13.1269     7.0995 C.3        1 BB1          0.0000
    11 C11        1.8147   -14.5336     7.5147 C.3        1 BB1          0.0000
    12 N12        0.7567   -15.4962     7.1805 N.am       1 BB1          0.0000
    13 C13       -0.4739   -15.2181     7.9330 C.3        1 BB1          0.0000
    14 C14       -1.0098   -13.8423     7.5400 C.3        1 BB1          0.0000
    15 H15       -0.3407   -13.7618    11.3361 H          1 BB1          0.0000
    16 H16       -0.0991   -13.6625     9.5754 H          1 BB1          0.0000
    17 H17        0.5787   -12.4064    10.6389 H          1 BB1          0.0000
    18 H18       -2.2808   -11.8294    12.2719 H          1 BB1          0.0000
    19 H19       -0.6538   -11.1647    11.9308 H          1 BB1          0.0000
    20 H20       -3.3588   -10.2288    10.8261 H          1 BB1          0.0000
    21 H21       -2.0382    -9.2392    11.5338 H          1 BB1          0.0000
    22 H22       -2.2312    -9.4862     8.8291 H          1 BB1          0.0000
    23 H23       -0.6192    -9.5534     9.6137 H          1 BB1          0.0000
    24 H24       -2.2862   -11.7878     8.4702 H          1 BB1          0.0000
    25 H25        1.2856   -13.0753     6.0142 H          1 BB1          0.0000
    26 H26        2.0999   -12.3952     7.4476 H          1 BB1          0.0000
    27 H27        2.7287   -14.7984     6.9831 H          1 BB1          0.0000
    28 H28        1.9994   -14.5545     8.5888 H          1 BB1          0.0000
    29 H29       -1.2198   -15.9794     7.7045 H          1 BB1          0.0000
    30 H30       -0.2574   -15.2295     9.0012 H          1 BB1          0.0000
    31 H31       -1.8558   -13.5834     8.1768 H          1 BB1          0.0000
    32 H32       -1.3242   -13.8562     6.4964 H          1 BB1          0.0000
    33 H34       -2.2924   -12.9336    10.3296 H          1 BB1          0.0000
    34 C1         1.3966   -14.2800     9.9920 C.3        2 BB2          0.0000
    35 C2         0.2518   -15.2819    10.1545 C.3        2 BB2          0.0000
    36 N3         0.6693   -16.3598    11.0610 N.4        2 BB2          1.0000
    37 C4        -0.4874   -17.2057    11.3786 C.3        2 BB2          0.0000
    38 C5        -0.0421   -18.3766    12.2572 C.3        2 BB2          0.0000
    39 C6         0.5657   -17.8327    13.5534 C.3        2 BB2          0.0000
    40 O7        -0.4306   -17.1141    14.2835 O.3        2 BB2          0.0000
    41 C8         1.7244   -16.8931    13.2074 C.3        2 BB2          0.0000
    42 C9         1.2135   -15.7772    12.2935 C.3        2 BB2          0.0000
    43 C10        1.0639   -18.9511    14.3706 C.1        2 BB2          0.0000
    44 C11        1.4612   -19.8431    15.0224 C.1        2 BB2          0.0000
    45 C12       -0.1007   -15.8644     8.8102 C.2        2 BB2          0.0000
    46 O13       -0.3651   -15.1264     7.8763 O.2        2 BB2          0.0000
    47 H15        2.2672   -14.7875     9.5764 H          2 BB2          0.0000
    48 H16        1.0868   -13.4802     9.3193 H          2 BB2          0.0000
    49 H17        1.6516   -13.8587    10.9644 H          2 BB2          0.0000
    50 H18       -0.6189   -14.7745    10.5701 H          2 BB2          0.0000
    51 H19       -1.2333   -16.6156    11.9110 H          2 BB2          0.0000
    52 H20       -0.9208   -17.5894    10.4549 H          2 BB2          0.0000
    53 H21       -0.9027   -19.0025    12.4933 H          2 BB2          0.0000
    54 H22        0.7037   -18.9676    11.7255 H          2 BB2          0.0000
    55 H23        2.1265   -16.4587    14.1226 H          2 BB2          0.0000
    56 H24        2.5068   -17.4534    12.6954 H          2 BB2          0.0000
    57 H25        2.0359   -15.1063    12.0454 H          2 BB2          0.0000
    58 H26        0.4315   -15.2175    12.8066 H          2 BB2          0.0000
    59 H27        1.8166   -20.6408    15.6053 H          2 BB2          0.0000
    60 H28       -1.2926   -17.5517    14.3077 H          2 BB2          0.0000
    61 H29        1.3802   -16.9182    10.6130 H          2 BB2          0.0000
@<TRIPOS>BOND
     1      1      2 1
     2      1     15 1
     3      1     16 1
     4      1     17 1
     5      2      3 1
     6      2      6 1
     7      2     33 1
     8      3      4 1
     9      3     18 1
    10      3     19 1
    11      4      5 1
    12      4     20 1
    13      4     21 1
    14      5      6 1
    15      5     22 1
    16      5     23 1
    17      6      7 1
    18      6     24 1
    19      7      8 2
    20      7      9 am
    21      9     10 1
    22      9     14 1
    23     10     11 1
    24     10     25 1
    25     10     26 1
    26     11     12 1
    27     11     27 1
    28     11     28 1
    29     12     13 1
    30     13     14 1
    31     13     29 1
    32     13     30 1
    33     14     31 1
    34     14     32 1
    35     34     35 1
    36     34     47 1
    37     34     48 1
    38     34     49 1
    39     35     36 1
    40     35     45 1
    41     35     50 1
    42     36     37 1
    43     36     42 1
    44     36     61 1
    45     37     38 1
    46     37     51 1
    47     37     52 1
    48     38     39 1
    49     38     53 1
    50     38     54 1
    51     39     40 1
    52     39     41 1
    53     39     43 1
    54     40     60 1
    55     41     42 1
    56     41     55 1
    57     41     56 1
    58     42     57 1
    59     42     58 1
    60     43     44 3
    61     44     59 1
    62     45     46 2
    63     12     45 am
@<TRIPOS>SUBSTRUCTURE
     1 BB1          12
     2 BB2          45
