@<TRIPOS>MOLECULE
EN300-141346_i001_EN300-1071101_i001_20_8_1
  55   55   2   0   0
SMALL
USER_CHARGES
@<TRIPOS>ATOM
     1 C1         1.0147   -18.1800    12.8444 C.3        1 BB1          0.0000
     2 C2         1.8799   -16.9773    13.2263 C.3        1 BB1          0.0000
     3 C3         2.2971   -17.0943    14.6936 C.3        1 BB1          0.0000
     4 N4         3.0784   -16.9470    12.3773 N.am       1 BB1          0.0000
     5 C5         1.0796   -15.6889    13.0248 C.3        1 BB1          0.0000
     6 F6        -0.0889   -15.7408    13.7924 F          1 BB1          0.0000
     7 H7         0.1254   -18.2025    13.4744 H          1 BB1          0.0000
     8 H8         0.7175   -18.0966    11.7991 H          1 BB1          0.0000
     9 H9         1.5848   -19.0978    12.9880 H          1 BB1          0.0000
    10 H10        2.8671   -18.0121    14.8371 H          1 BB1          0.0000
    11 H11        2.9134   -16.2374    14.9655 H          1 BB1          0.0000
    12 H12        1.4077   -17.1167    15.3235 H          1 BB1          0.0000
    13 H13        1.6813   -14.8350    13.3364 H          1 BB1          0.0000
    14 H14        0.8182   -15.5843    11.9719 H          1 BB1          0.0000
    15 H15        2.8040   -16.8480    11.4114 H          1 BB1          0.0000
    16 C1         0.3515   -13.6135     6.6485 C.3        2 BB2          0.0000
    17 O2        -0.0879   -14.3590     7.7857 O.3        2 BB2          0.0000
    18 C3         0.9245   -14.5635     8.7732 C.3        2 BB2          0.0000
    19 C4         0.2818   -15.0750    10.0640 C.3        2 BB2          0.0000
    20 N5        -0.8631   -14.2283    10.4085 N.am       2 BB2          0.0000
    21 C6        -0.6994   -12.8977    10.5475 C.2        2 BB2          0.0000
    22 O7         0.3977   -12.4005    10.3872 O.2        2 BB2          0.0000
    23 O8        -1.7515   -12.1196    10.8640 O.3        2 BB2          0.0000
    24 C9        -1.7329   -10.7537    10.3717 C.3        2 BB2          0.0000
    25 C10       -0.7441    -9.9276    11.1967 C.3        2 BB2          0.0000
    26 C11       -1.3028   -10.7467     8.9034 C.3        2 BB2          0.0000
    27 C12       -3.1322   -10.1476    10.4961 C.3        2 BB2          0.0000
    28 C13        1.2931   -15.0310    11.1804 C.2        2 BB2          0.0000
    29 O15        0.9626   -15.3326    12.3146 O.2        2 BB2          0.0000
    30 C16       -0.1850   -16.4941     9.8647 C.ar       2 BB2          0.0000
    31 C17       -0.3964   -16.9791     8.5876 C.ar       2 BB2          0.0000
    32 C18       -0.8246   -18.2807     8.4047 C.ar       2 BB2          0.0000
    33 C19       -1.0410   -19.0973     9.4989 C.ar       2 BB2          0.0000
    34 C20       -0.8286   -18.6125    10.7758 C.ar       2 BB2          0.0000
    35 C21       -0.3963   -17.3123    10.9586 C.ar       2 BB2          0.0000
    36 H22       -0.4744   -13.5016     5.9461 H          2 BB2          0.0000
    37 H23        0.6919   -12.6288     6.9690 H          2 BB2          0.0000
    38 H24        1.1724   -14.1414     6.1631 H          2 BB2          0.0000
    39 H25        1.6436   -15.2975     8.4097 H          2 BB2          0.0000
    40 H26        1.4353   -13.6211     8.9704 H          2 BB2          0.0000
    41 H27        0.2528   -10.3594    11.1081 H          2 BB2          0.0000
    42 H28       -0.7302    -8.9022    10.8272 H          2 BB2          0.0000
    43 H29       -1.0506    -9.9327    12.2427 H          2 BB2          0.0000
    44 H30       -2.0073   -11.3352     8.3156 H          2 BB2          0.0000
    45 H31       -1.2888    -9.7213     8.5338 H          2 BB2          0.0000
    46 H32       -0.3059   -11.1785     8.8148 H          2 BB2          0.0000
    47 H33       -3.4387   -10.1527    11.5421 H          2 BB2          0.0000
    48 H34       -3.1183    -9.1222    10.1265 H          2 BB2          0.0000
    49 H35       -3.8367   -10.7361     9.9082 H          2 BB2          0.0000
    50 H36       -0.2274   -16.3411     7.7327 H          2 BB2          0.0000
    51 H37       -0.9904   -18.6594     7.4070 H          2 BB2          0.0000
    52 H38       -1.3762   -20.1140     9.3560 H          2 BB2          0.0000
    53 H39       -0.9980   -19.2505    11.6307 H          2 BB2          0.0000
    54 H40       -0.2304   -16.9335    11.9563 H          2 BB2          0.0000
    55 H41       -1.7388   -14.6253    10.5365 H          2 BB2          0.0000
@<TRIPOS>BOND
     1      1      2 1
     2      1      7 1
     3      1      8 1
     4      1      9 1
     5      2      3 1
     6      2      4 1
     7      2      5 1
     8      3     10 1
     9      3     11 1
    10      3     12 1
    11      4     15 1
    12      5      6 1
    13      5     13 1
    14      5     14 1
    15     16     17 1
    16     16     36 1
    17     16     37 1
    18     16     38 1
    19     17     18 1
    20     18     19 1
    21     18     39 1
    22     18     40 1
    23     19     20 1
    24     19     28 1
    25     19     30 1
    26     20     21 am
    27     20     55 1
    28     21     22 2
    29     21     23 1
    30     23     24 1
    31     24     25 1
    32     24     26 1
    33     24     27 1
    34     25     41 1
    35     25     42 1
    36     25     43 1
    37     26     44 1
    38     26     45 1
    39     26     46 1
    40     27     47 1
    41     27     48 1
    42     27     49 1
    43     28     29 2
    44     30     31 ar
    45     30     35 ar
    46     31     32 ar
    47     31     50 1
    48     32     33 ar
    49     32     51 1
    50     33     34 ar
    51     33     52 1
    52     34     35 ar
    53     34     53 1
    54     35     54 1
    55      4     28 am
@<TRIPOS>SUBSTRUCTURE
     1 BB1           4
     2 BB2          28
@<TRIPOS>MOLECULE
EN300-266730_i001_EN300-1165841_i001_6_18_1
  59   62   2   0   0
SMALL
USER_CHARGES
@<TRIPOS>ATOM
     1 C1        -0.4046   -12.4579    10.4669 C.3        1 BB1          0.0000
     2 C2        -0.7614   -11.0479     9.9543 C.3        1 BB1          0.0000
     3 O3        -0.1668   -10.9028     8.6494 O.3        1 BB1          0.0000
     4 C4         0.9590   -11.7908     8.6220 C.3        1 BB1          0.0000
     5 C5         1.4695   -12.0491     7.2216 C.3        1 BB1          0.0000
     6 C6         0.4542   -12.8569     6.4106 C.3        1 BB1          0.0000
     7 C7         0.1553   -14.1512     7.1761 C.3        1 BB1          0.0000
     8 N8        -0.4715   -13.8061     8.4534 N.am       1 BB1          0.0000
     9 C9         0.4544   -13.0677     9.3206 C.3        1 BB1          0.0000
    10 C10       -2.2580   -10.9025     9.8545 C.ar       1 BB1          0.0000
    11 C11       -2.8205    -9.6528     9.6741 C.ar       1 BB1          0.0000
    12 C12       -4.1934    -9.5194     9.5827 C.ar       1 BB1          0.0000
    13 C13       -5.0037   -10.6359     9.6711 C.ar       1 BB1          0.0000
    14 C14       -4.4411   -11.8857     9.8506 C.ar       1 BB1          0.0000
    15 C15       -3.0680   -12.0196     9.9378 C.ar       1 BB1          0.0000
    16 H16        0.1759   -12.3945    11.3873 H          1 BB1          0.0000
    17 H17       -1.3077   -13.0478    10.6231 H          1 BB1          0.0000
    18 H18       -0.3582   -10.2946    10.6311 H          1 BB1          0.0000
    19 H19        1.7630   -11.3652     9.2224 H          1 BB1          0.0000
    20 H20        1.6485   -11.0960     6.7241 H          1 BB1          0.0000
    21 H21        2.4058   -12.6042     7.2783 H          1 BB1          0.0000
    22 H22       -0.4630   -12.2805     6.2901 H          1 BB1          0.0000
    23 H23        0.8709   -13.0958     5.4322 H          1 BB1          0.0000
    24 H24       -0.5230   -14.7733     6.5920 H          1 BB1          0.0000
    25 H25        1.0845   -14.6910     7.3587 H          1 BB1          0.0000
    26 H26        1.2629   -13.6972     9.6925 H          1 BB1          0.0000
    27 H27       -2.1875    -8.7805     9.6050 H          1 BB1          0.0000
    28 H28       -4.6330    -8.5429     9.4424 H          1 BB1          0.0000
    29 H29       -6.0763   -10.5317     9.6003 H          1 BB1          0.0000
    30 H30       -5.0742   -12.7580     9.9201 H          1 BB1          0.0000
    31 H31       -2.6284   -12.9961    10.0779 H          1 BB1          0.0000
    32 C1         1.3966   -14.2800     9.9920 C.3        2 BB2          0.0000
    33 C2         0.2518   -15.2819    10.1545 C.3        2 BB2          0.0000
    34 N3         0.6693   -16.3598    11.0610 N.4        2 BB2          1.0000
    35 C4        -0.4874   -17.2057    11.3786 C.3        2 BB2          0.0000
    36 C5        -0.0421   -18.3766    12.2572 C.3        2 BB2          0.0000
    37 C6         0.5657   -17.8327    13.5534 C.3        2 BB2          0.0000
    38 O7        -0.4306   -17.1141    14.2835 O.3        2 BB2          0.0000
    39 C8         1.7244   -16.8931    13.2074 C.3        2 BB2          0.0000
    40 C9         1.2135   -15.7772    12.2935 C.3        2 BB2          0.0000
    41 C10        1.0639   -18.9511    14.3706 C.1        2 BB2          0.0000
    42 C11        1.4612   -19.8431    15.0224 C.1        2 BB2          0.0000
    43 C12       -0.1007   -15.8644     8.8102 C.2        2 BB2          0.0000
    44 O13       -0.3651   -15.1264     7.8763 O.2        2 BB2          0.0000
    45 H15        2.2672   -14.7875     9.5764 H          2 BB2          0.0000
    46 H16        1.0868   -13.4802     9.3193 H          2 BB2          0.0000
    47 H17        1.6516   -13.8587    10.9644 H          2 BB2          0.0000
    48 H18       -0.6189   -14.7745    10.5701 H          2 BB2          0.0000
    49 H19       -1.2333   -16.6156    11.9110 H          2 BB2          0.0000
    50 H20       -0.9208   -17.5894    10.4549 H          2 BB2          0.0000
    51 H21       -0.9027   -19.0025    12.4933 H          2 BB2          0.0000
    52 H22        0.7037   -18.9676    11.7255 H          2 BB2          0.0000
    53 H23        2.1265   -16.4587    14.1226 H          2 BB2          0.0000
    54 H24        2.5068   -17.4534    12.6954 H          2 BB2          0.0000
    55 H25        2.0359   -15.1063    12.0454 H          2 BB2          0.0000
    56 H26        0.4315   -15.2175    12.8066 H          2 BB2          0.0000
    57 H27        1.8166   -20.6408    15.6053 H          2 BB2          0.0000
    58 H28       -1.2926   -17.5517    14.3077 H          2 BB2          0.0000
    59 H29        1.3802   -16.9182    10.6130 H          2 BB2          0.0000
@<TRIPOS>BOND
     1      1      2 1
     2      1      9 1
     3      1     16 1
     4      1     17 1
     5      2      3 1
     6      2     10 1
     7      2     18 1
     8      3      4 1
     9      4      5 1
    10      4      9 1
    11      4     19 1
    12      5      6 1
    13      5     20 1
    14      5     21 1
    15      6      7 1
    16      6     22 1
    17      6     23 1
    18      7      8 1
    19      7     24 1
    20      7     25 1
    21      8      9 1
    22      9     26 1
    23     10     11 ar
    24     10     15 ar
    25     11     12 ar
    26     11     27 1
    27     12     13 ar
    28     12     28 1
    29     13     14 ar
    30     13     29 1
    31     14     15 ar
    32     14     30 1
    33     15     31 1
    34     32     33 1
    35     32     45 1
    36     32     46 1
    37     32     47 1
    38     33     34 1
    39     33     43 1
    40     33     48 1
    41     34     35 1
    42     34     40 1
    43     34     59 1
    44     35     36 1
    45     35     49 1
    46     35     50 1
    47     36     37 1
    48     36     51 1
    49     36     52 1
    50     37     38 1
    51     37     39 1
    52     37     41 1
    53     38     58 1
    54     39     40 1
    55     39     53 1
    56     39     54 1
    57     40     55 1
    58     40     56 1
    59     41     42 3
    60     42     57 1
    61     43     44 2
    62      8     43 am
@<TRIPOS>SUBSTRUCTURE
     1 BB1           8
     2 BB2          43
@<TRIPOS>MOLECULE
EN300-110418_i004_EN300-1231025_i001_11_12_1
  48   49   2   0   0
SMALL
USER_CHARGES
@<TRIPOS>ATOM
     1 C1         1.9206   -16.3327    12.9076 C.3        1 BB1          0.0000
     2 N2         1.6812   -17.4797    12.0216 N.4        1 BB1          1.0000
     3 C3         1.8262   -18.7372    12.7853 C.3        1 BB1          0.0000
     4 C4         0.7544   -19.6858    12.1927 C.3        1 BB1          0.0000
     5 C5        -0.4148   -18.7040    11.9170 C.3        1 BB1          0.0000
     6 C6         0.3103   -17.4129    11.4829 C.3        1 BB1          0.0000
     7 C7        -0.4033   -16.2103    12.0448 C.2        1 BB1          0.0000
     8 O8        -1.2617   -16.3545    12.8894 O.2        1 BB1          0.0000
     9 N9        -0.0877   -14.9747    11.6088 N.am       1 BB1          0.0000
    10 C10        0.8753   -14.7837    10.5135 C.3        1 BB1          0.0000
    11 C11        0.2406   -13.8675     9.4618 C.3        1 BB1          0.0000
    12 N12       -0.2190   -12.6308    10.1075 N.am       1 BB1          0.0000
    13 C13       -1.2697   -12.9049    11.0970 C.3        1 BB1          0.0000
    14 C14       -0.7015   -13.7819    12.2117 C.3        1 BB1          0.0000
    15 H15        2.9670   -16.3213    13.2126 H          1 BB1          0.0000
    16 H16        1.6865   -15.4093    12.3779 H          1 BB1          0.0000
    17 H17        1.2859   -16.4164    13.7898 H          1 BB1          0.0000
    18 H18        2.8229   -19.1549    12.6430 H          1 BB1          0.0000
    19 H19        1.6346   -18.5624    13.8440 H          1 BB1          0.0000
    20 H20        1.1063   -20.1433    11.2682 H          1 BB1          0.0000
    21 H21        0.4629   -20.4465    12.9169 H          1 BB1          0.0000
    22 H22       -1.0505   -19.0776    11.1142 H          1 BB1          0.0000
    23 H23       -0.9965   -18.5333    12.8229 H          1 BB1          0.0000
    24 H24        0.3419   -17.3532    10.3950 H          1 BB1          0.0000
    25 H25        1.7835   -14.3223    10.9009 H          1 BB1          0.0000
    26 H26        1.1139   -15.7474    10.0636 H          1 BB1          0.0000
    27 H27        0.9786   -13.6260     8.6969 H          1 BB1          0.0000
    28 H28       -0.6076   -14.3747     9.0019 H          1 BB1          0.0000
    29 H29       -1.6268   -11.9651    11.5180 H          1 BB1          0.0000
    30 H30       -2.0968   -13.4254    10.6144 H          1 BB1          0.0000
    31 H31       -1.5035   -14.0820    12.8862 H          1 BB1          0.0000
    32 H32        0.0567   -13.2266    12.7639 H          1 BB1          0.0000
    33 H34        2.3439   -17.4661    11.2608 H          1 BB1          0.0000
    34 O1        -0.9571   -11.3582    11.7008 O.3        2 BB2          0.0000
    35 C2        -0.9083   -10.5246    10.5412 C.3        2 BB2          0.0000
    36 C3        -2.3171   -10.0284    10.2101 C.3        2 BB2          0.0000
    37 C4        -3.2807   -11.2163    10.1734 C.3        2 BB2          0.0000
    38 C5        -4.6362   -10.7388     9.8548 C.1        2 BB2          0.0000
    39 C6        -5.7173   -10.3580     9.6008 C.1        2 BB2          0.0000
    40 C7        -0.3672   -11.3143     9.3773 C.2        2 BB2          0.0000
    41 O9        -0.9931   -12.2660     8.9427 O.2        2 BB2          0.0000
    42 H10       -0.2585    -9.6710    10.7345 H          2 BB2          0.0000
    43 H11       -2.6417    -9.3206    10.9729 H          2 BB2          0.0000
    44 H12       -2.3098    -9.5363     9.2375 H          2 BB2          0.0000
    45 H13       -2.9562   -11.9239     9.4106 H          2 BB2          0.0000
    46 H14       -3.2881   -11.7083    11.1460 H          2 BB2          0.0000
    47 H15       -6.6842   -10.0174     9.3736 H          2 BB2          0.0000
    48 H16       -0.9217   -10.8725    12.5362 H          2 BB2          0.0000
@<TRIPOS>BOND
     1      1      2 1
     2      1     15 1
     3      1     16 1
     4      1     17 1
     5      2      3 1
     6      2      6 1
     7      2     33 1
     8      3      4 1
     9      3     18 1
    10      3     19 1
    11      4      5 1
    12      4     20 1
    13      4     21 1
    14      5      6 1
    15      5     22 1
    16      5     23 1
    17      6      7 1
    18      6     24 1
    19      7      8 2
    20      7      9 am
    21      9     10 1
    22      9     14 1
    23     10     11 1
    24     10     25 1
    25     10     26 1
    26     11     12 1
    27     11     27 1
    28     11     28 1
    29     12     13 1
    30     13     14 1
    31     13     29 1
    32     13     30 1
    33     14     31 1
    34     14     32 1
    35     34     35 1
    36     34     48 1
    37     35     36 1
    38     35     40 1
    39     35     42 1
    40     36     37 1
    41     36     43 1
    42     36     44 1
    43     37     38 1
    44     37     45 1
    45     37     46 1
    46     38     39 3
    47     39     47 1
    48     40     41 2
    49     12     40 am
@<TRIPOS>SUBSTRUCTURE
     1 BB1          12
     2 BB2          40
@<TRIPOS>MOLECULE
EN300-110418_i004_EN300-1231025_i001_11_15_1
  48   49   2   0   0
SMALL
USER_CHARGES
@<TRIPOS>ATOM
     1 C1         1.9206   -16.3327    12.9076 C.3        1 BB1          0.0000
     2 N2         1.6812   -17.4797    12.0216 N.4        1 BB1          1.0000
     3 C3         1.8262   -18.7372    12.7853 C.3        1 BB1          0.0000
     4 C4         0.7544   -19.6858    12.1927 C.3        1 BB1          0.0000
     5 C5        -0.4148   -18.7040    11.9170 C.3        1 BB1          0.0000
     6 C6         0.3103   -17.4129    11.4829 C.3        1 BB1          0.0000
     7 C7        -0.4033   -16.2103    12.0448 C.2        1 BB1          0.0000
     8 O8        -1.2617   -16.3545    12.8894 O.2        1 BB1          0.0000
     9 N9        -0.0877   -14.9747    11.6088 N.am       1 BB1          0.0000
    10 C10        0.8753   -14.7837    10.5135 C.3        1 BB1          0.0000
    11 C11        0.2406   -13.8675     9.4618 C.3        1 BB1          0.0000
    12 N12       -0.2190   -12.6308    10.1075 N.am       1 BB1          0.0000
    13 C13       -1.2697   -12.9049    11.0970 C.3        1 BB1          0.0000
    14 C14       -0.7015   -13.7819    12.2117 C.3        1 BB1          0.0000
    15 H15        2.9670   -16.3213    13.2126 H          1 BB1          0.0000
    16 H16        1.6865   -15.4093    12.3779 H          1 BB1          0.0000
    17 H17        1.2859   -16.4164    13.7898 H          1 BB1          0.0000
    18 H18        2.8229   -19.1549    12.6430 H          1 BB1          0.0000
    19 H19        1.6346   -18.5624    13.8440 H          1 BB1          0.0000
    20 H20        1.1063   -20.1433    11.2682 H          1 BB1          0.0000
    21 H21        0.4629   -20.4465    12.9169 H          1 BB1          0.0000
    22 H22       -1.0505   -19.0776    11.1142 H          1 BB1          0.0000
    23 H23       -0.9965   -18.5333    12.8229 H          1 BB1          0.0000
    24 H24        0.3419   -17.3532    10.3950 H          1 BB1          0.0000
    25 H25        1.7835   -14.3223    10.9009 H          1 BB1          0.0000
    26 H26        1.1139   -15.7474    10.0636 H          1 BB1          0.0000
    27 H27        0.9786   -13.6260     8.6969 H          1 BB1          0.0000
    28 H28       -0.6076   -14.3747     9.0019 H          1 BB1          0.0000
    29 H29       -1.6268   -11.9651    11.5180 H          1 BB1          0.0000
    30 H30       -2.0968   -13.4254    10.6144 H          1 BB1          0.0000
    31 H31       -1.5035   -14.0820    12.8862 H          1 BB1          0.0000
    32 H32        0.0567   -13.2266    12.7639 H          1 BB1          0.0000
    33 H34        2.3439   -17.4661    11.2608 H          1 BB1          0.0000
    34 O1         0.1620    -9.9019    11.1327 O.3        2 BB2          0.0000
    35 C2        -0.7974   -10.4651    10.2359 C.3        2 BB2          0.0000
    36 C3        -1.8248   -11.2738    11.0304 C.3        2 BB2          0.0000
    37 C4        -2.9290   -11.7602    10.0896 C.3        2 BB2          0.0000
    38 C5        -3.9702   -10.7257     9.9789 C.1        2 BB2          0.0000
    39 C6        -4.8006    -9.9005     9.8906 C.1        2 BB2          0.0000
    40 C7        -0.0972   -11.3689     9.2541 C.2        2 BB2          0.0000
    41 O9         0.4711   -12.3731     9.6479 O.2        2 BB2          0.0000
    42 H10       -1.3036    -9.6649     9.6960 H          2 BB2          0.0000
    43 H11       -1.3348   -12.1321    11.4901 H          2 BB2          0.0000
    44 H12       -2.2601   -10.6450    11.8071 H          2 BB2          0.0000
    45 H13       -2.5062   -11.9570     9.1045 H          2 BB2          0.0000
    46 H14       -3.3673   -12.6759    10.4865 H          2 BB2          0.0000
    47 H15       -5.5434    -9.1625     9.8116 H          2 BB2          0.0000
    48 H16        0.0776    -8.9456    11.2493 H          2 BB2          0.0000
@<TRIPOS>BOND
     1      1      2 1
     2      1     15 1
     3      1     16 1
     4      1     17 1
     5      2      3 1
     6      2      6 1
     7      2     33 1
     8      3      4 1
     9      3     18 1
    10      3     19 1
    11      4      5 1
    12      4     20 1
    13      4     21 1
    14      5      6 1
    15      5     22 1
    16      5     23 1
    17      6      7 1
    18      6     24 1
    19      7      8 2
    20      7      9 am
    21      9     10 1
    22      9     14 1
    23     10     11 1
    24     10     25 1
    25     10     26 1
    26     11     12 1
    27     11     27 1
    28     11     28 1
    29     12     13 1
    30     13     14 1
    31     13     29 1
    32     13     30 1
    33     14     31 1
    34     14     32 1
    35     34     35 1
    36     34     48 1
    37     35     36 1
    38     35     40 1
    39     35     42 1
    40     36     37 1
    41     36     43 1
    42     36     44 1
    43     37     38 1
    44     37     45 1
    45     37     46 1
    46     38     39 3
    47     39     47 1
    48     40     41 2
    49     12     40 am
@<TRIPOS>SUBSTRUCTURE
     1 BB1          12
     2 BB2          40
@<TRIPOS>MOLECULE
EN300-110418_i004_EN300-1231025_i001_11_9_1
  48   49   2   0   0
SMALL
USER_CHARGES
@<TRIPOS>ATOM
     1 C1         1.9206   -16.3327    12.9076 C.3        1 BB1          0.0000
     2 N2         1.6812   -17.4797    12.0216 N.4        1 BB1          1.0000
     3 C3         1.8262   -18.7372    12.7853 C.3        1 BB1          0.0000
     4 C4         0.7544   -19.6858    12.1927 C.3        1 BB1          0.0000
     5 C5        -0.4148   -18.7040    11.9170 C.3        1 BB1          0.0000
     6 C6         0.3103   -17.4129    11.4829 C.3        1 BB1          0.0000
     7 C7        -0.4033   -16.2103    12.0448 C.2        1 BB1          0.0000
     8 O8        -1.2617   -16.3545    12.8894 O.2        1 BB1          0.0000
     9 N9        -0.0877   -14.9747    11.6088 N.am       1 BB1          0.0000
    10 C10        0.8753   -14.7837    10.5135 C.3        1 BB1          0.0000
    11 C11        0.2406   -13.8675     9.4618 C.3        1 BB1          0.0000
    12 N12       -0.2190   -12.6308    10.1075 N.am       1 BB1          0.0000
    13 C13       -1.2697   -12.9049    11.0970 C.3        1 BB1          0.0000
    14 C14       -0.7015   -13.7819    12.2117 C.3        1 BB1          0.0000
    15 H15        2.9670   -16.3213    13.2126 H          1 BB1          0.0000
    16 H16        1.6865   -15.4093    12.3779 H          1 BB1          0.0000
    17 H17        1.2859   -16.4164    13.7898 H          1 BB1          0.0000
    18 H18        2.8229   -19.1549    12.6430 H          1 BB1          0.0000
    19 H19        1.6346   -18.5624    13.8440 H          1 BB1          0.0000
    20 H20        1.1063   -20.1433    11.2682 H          1 BB1          0.0000
    21 H21        0.4629   -20.4465    12.9169 H          1 BB1          0.0000
    22 H22       -1.0505   -19.0776    11.1142 H          1 BB1          0.0000
    23 H23       -0.9965   -18.5333    12.8229 H          1 BB1          0.0000
    24 H24        0.3419   -17.3532    10.3950 H          1 BB1          0.0000
    25 H25        1.7835   -14.3223    10.9009 H          1 BB1          0.0000
    26 H26        1.1139   -15.7474    10.0636 H          1 BB1          0.0000
    27 H27        0.9786   -13.6260     8.6969 H          1 BB1          0.0000
    28 H28       -0.6076   -14.3747     9.0019 H          1 BB1          0.0000
    29 H29       -1.6268   -11.9651    11.5180 H          1 BB1          0.0000
    30 H30       -2.0968   -13.4254    10.6144 H          1 BB1          0.0000
    31 H31       -1.5035   -14.0820    12.8862 H          1 BB1          0.0000
    32 H32        0.0567   -13.2266    12.7639 H          1 BB1          0.0000
    33 H34        2.3439   -17.4661    11.2608 H          1 BB1          0.0000
    34 O1        -0.9130   -12.0846    11.3924 O.3        2 BB2          0.0000
    35 C2        -0.5656   -11.1375    10.3804 C.3        2 BB2          0.0000
    36 C3        -1.8251   -10.7194     9.6192 C.3        2 BB2          0.0000
    37 C4        -2.9018   -10.2835    10.6150 C.3        2 BB2          0.0000
    38 C5        -4.2329   -10.5602    10.0508 C.1        2 BB2          0.0000
    39 C6        -5.2945   -10.7808     9.6008 C.1        2 BB2          0.0000
    40 C7         0.4158   -11.7629     9.4228 C.2        2 BB2          0.0000
    41 O8         0.7904   -12.9101     9.5966 O.2        2 BB2          0.0000
    42 H10       -0.1129   -10.2606    10.8434 H          2 BB2          0.0000
    43 H11       -1.5885    -9.8894     8.9534 H          2 BB2          0.0000
    44 H12       -2.1920   -11.5620     9.0331 H          2 BB2          0.0000
    45 H13       -2.7801   -10.8361    11.5466 H          2 BB2          0.0000
    46 H14       -2.8049    -9.2156    10.8106 H          2 BB2          0.0000
    47 H15       -6.2441   -10.9782     9.1983 H          2 BB2          0.0000
    48 H16       -1.2506   -12.9226    11.0477 H          2 BB2          0.0000
@<TRIPOS>BOND
     1      1      2 1
     2      1     15 1
     3      1     16 1
     4      1     17 1
     5      2      3 1
     6      2      6 1
     7      2     33 1
     8      3      4 1
     9      3     18 1
    10      3     19 1
    11      4      5 1
    12      4     20 1
    13      4     21 1
    14      5      6 1
    15      5     22 1
    16      5     23 1
    17      6      7 1
    18      6     24 1
    19      7      8 2
    20      7      9 am
    21      9     10 1
    22      9     14 1
    23     10     11 1
    24     10     25 1
    25     10     26 1
    26     11     12 1
    27     11     27 1
    28     11     28 1
    29     12     13 1
    30     13     14 1
    31     13     29 1
    32     13     30 1
    33     14     31 1
    34     14     32 1
    35     34     35 1
    36     34     48 1
    37     35     36 1
    38     35     40 1
    39     35     42 1
    40     36     37 1
    41     36     43 1
    42     36     44 1
    43     37     38 1
    44     37     45 1
    45     37     46 1
    46     38     39 3
    47     39     47 1
    48     40     41 2
    49     12     40 am
@<TRIPOS>SUBSTRUCTURE
     1 BB1          12
     2 BB2          40
