@<TRIPOS>MOLECULE
EN300-7549830_i001_EN300-128560_i001_13_12_27
  33   35   2   0   0
SMALL
USER_CHARGES
@<TRIPOS>ATOM
     1 C1        32.9176    35.8982    36.8715 C.3        1 BB1          0.0000
     2 C2        32.2179    36.9496    36.0493 C.ar       1 BB1          0.0000
     3 C3        32.7187    37.3047    34.8052 C.ar       1 BB1          0.0000
     4 O4        33.8409    36.7030    34.3278 O.3        1 BB1          0.0000
     5 C5        32.0758    38.2719    34.0478 C.ar       1 BB1          0.0000
     6 C6        30.9343    38.8851    34.5303 C.ar       1 BB1          0.0000
     7 C7        30.4304    38.5339    35.7732 C.ar       1 BB1          0.0000
     8 N8        29.2728    39.1558    36.2625 N.2        1 BB1          0.0000
     9 C9        31.0719    37.5577    36.5327 C.ar       1 BB1          0.0000
    10 O10       30.5795    37.2110    37.7522 O.3        1 BB1          0.0000
    11 H11       33.6632    36.3726    37.5096 H          1 BB1          0.0000
    12 H12       32.1881    35.3765    37.4910 H          1 BB1          0.0000
    13 H13       33.4076    35.1851    36.2086 H          1 BB1          0.0000
    14 H14       32.4675    38.5470    33.0798 H          1 BB1          0.0000
    15 H15       30.4351    39.6383    33.9387 H          1 BB1          0.0000
    16 H16       34.4085    37.2868    33.8060 H          1 BB1          0.0000
    17 C1        28.5086    36.3641    42.0748 C.3        2 BB2          0.0000
    18 C2        28.0345    36.6995    40.6842 C.ar       2 BB2          0.0000
    19 C3        28.9289    36.7013    39.6345 C.ar       2 BB2          0.0000
    20 C4        28.4869    37.0124    38.3448 C.ar       2 BB2          0.0000
    21 C5        29.4345    37.0160    37.2188 C.2        2 BB2          0.0000
    22 C7        27.1392    37.3196    38.1304 C.ar       2 BB2          0.0000
    23 C8        26.2575    37.3136    39.1902 C.ar       2 BB2          0.0000
    24 C9        26.7018    36.9995    40.4630 C.ar       2 BB2          0.0000
    25 N10       25.7486    36.9953    41.5953 N.pl3      2 BB2          0.0000
    26 O11       26.0213    37.5891    42.6232 O.2        2 BB2          0.0000
    27 O12       24.6913    36.3982    41.4991 O.2        2 BB2          0.0000
    28 H13       28.7262    37.2847    42.6164 H          2 BB2          0.0000
    29 H14       27.7312    35.8088    42.5996 H          2 BB2          0.0000
    30 H15       29.4113    35.7563    42.0142 H          2 BB2          0.0000
    31 H16       29.9679    36.4634    39.8080 H          2 BB2          0.0000
    32 H18       26.7904    37.5612    37.1373 H          2 BB2          0.0000
    33 H19       25.2167    37.5506    39.0263 H          2 BB2          0.0000
@<TRIPOS>BOND
     1      1      2 1
     2      1     11 1
     3      1     12 1
     4      1     13 1
     5      2      3 ar
     6      2      9 ar
     7      3      4 1
     8      3      5 ar
     9      4     16 1
    10      5      6 ar
    11      5     14 1
    12      6      7 ar
    13      6     15 1
    14      7      8 1
    15      7      9 ar
    16      9     10 1
    17     17     18 1
    18     17     28 1
    19     17     29 1
    20     17     30 1
    21     18     19 ar
    22     18     24 ar
    23     19     20 ar
    24     19     31 1
    25     20     21 1
    26     20     22 ar
    27     22     23 ar
    28     22     32 1
    29     23     24 ar
    30     23     33 1
    31     24     25 1
    32     25     26 2
    33     25     27 2
    34      8     21 2
    35     10     21 1
@<TRIPOS>SUBSTRUCTURE
     1 BB1          10
     2 BB2          21
@<TRIPOS>MOLECULE
EN300-7549830_i001_EN300-177026_i002_13_20_27
  31   33   2   0   0
SMALL
USER_CHARGES
@<TRIPOS>ATOM
     1 C1        32.9176    35.8982    36.8715 C.3        1 BB1          0.0000
     2 C2        32.2179    36.9496    36.0493 C.ar       1 BB1          0.0000
     3 C3        32.7187    37.3047    34.8052 C.ar       1 BB1          0.0000
     4 O4        33.8409    36.7030    34.3278 O.3        1 BB1          0.0000
     5 C5        32.0758    38.2719    34.0478 C.ar       1 BB1          0.0000
     6 C6        30.9343    38.8851    34.5303 C.ar       1 BB1          0.0000
     7 C7        30.4304    38.5339    35.7732 C.ar       1 BB1          0.0000
     8 N8        29.2728    39.1558    36.2625 N.2        1 BB1          0.0000
     9 C9        31.0719    37.5577    36.5327 C.ar       1 BB1          0.0000
    10 O10       30.5795    37.2110    37.7522 O.3        1 BB1          0.0000
    11 H11       33.6632    36.3726    37.5096 H          1 BB1          0.0000
    12 H12       32.1881    35.3765    37.4910 H          1 BB1          0.0000
    13 H13       33.4076    35.1851    36.2086 H          1 BB1          0.0000
    14 H14       32.4675    38.5470    33.0798 H          1 BB1          0.0000
    15 H15       30.4351    39.6383    33.9387 H          1 BB1          0.0000
    16 H16       34.4085    37.2868    33.8060 H          1 BB1          0.0000
    17 C1        25.7943    36.8831    40.8639 C.3        2 BB2          0.0000
    18 C2        27.2366    36.5215    41.2240 C.3        2 BB2          0.0000
    19 O3        27.2933    35.1600    41.6542 O.3        2 BB2          0.0000
    20 C4        28.1171    36.7031    40.0145 C.2        2 BB2          0.0000
    21 N5        29.3975    36.5120    40.0000 N.2        2 BB2          0.0000
    22 C6        30.0252    36.7107    38.8702 C.2        2 BB2          0.0000
    23 C7        29.2062    37.1031    37.8418 C.2        2 BB2          0.0000
    24 C8        29.6079    37.3871    36.5163 C.2        2 BB2          0.0000
    25 S10       27.5619    37.1823    38.4706 S.3        2 BB2          0.0000
    26 H11       25.7511    37.9216    40.5357 H          2 BB2          0.0000
    27 H12       25.4466    36.2335    40.0606 H          2 BB2          0.0000
    28 H13       25.1575    36.7516    41.7387 H          2 BB2          0.0000
    29 H14       27.5843    37.1711    42.0273 H          2 BB2          0.0000
    30 H15       31.0911    36.5784    38.7570 H          2 BB2          0.0000
    31 H17       26.8654    34.9986    42.5063 H          2 BB2          0.0000
@<TRIPOS>BOND
     1      1      2 1
     2      1     11 1
     3      1     12 1
     4      1     13 1
     5      2      3 ar
     6      2      9 ar
     7      3      4 1
     8      3      5 ar
     9      4     16 1
    10      5      6 ar
    11      5     14 1
    12      6      7 ar
    13      6     15 1
    14      7      8 1
    15      7      9 ar
    16      9     10 1
    17     17     18 1
    18     17     26 1
    19     17     27 1
    20     17     28 1
    21     18     19 1
    22     18     20 1
    23     18     29 1
    24     19     31 1
    25     20     21 2
    26     20     25 1
    27     21     22 1
    28     22     23 2
    29     22     30 1
    30     23     24 1
    31     23     25 1
    32      8     24 2
    33     10     24 1
@<TRIPOS>SUBSTRUCTURE
     1 BB1          10
     2 BB2          24
@<TRIPOS>MOLECULE
EN300-7549830_i001_EN300-83792_i001_7_7_27
  33   36   2   0   0
SMALL
USER_CHARGES
@<TRIPOS>ATOM
     1 C1        28.4889    35.8007    42.1272 C.3        1 BB1          0.0000
     2 C2        27.9078    36.2733    40.8195 C.ar       1 BB1          0.0000
     3 C3        26.5436    36.4990    40.7075 C.ar       1 BB1          0.0000
     4 O4        25.7311    36.2940    41.7786 O.3        1 BB1          0.0000
     5 C5        26.0078    36.9338    39.5050 C.ar       1 BB1          0.0000
     6 C6        26.8314    37.1435    38.4143 C.ar       1 BB1          0.0000
     7 C7        28.1953    36.9189    38.5212 C.ar       1 BB1          0.0000
     8 N8        29.0305    37.1316    37.4152 N.2        1 BB1          0.0000
     9 C9        28.7360    36.4879    39.7309 C.ar       1 BB1          0.0000
    10 O10       30.0736    36.2671    39.8387 O.3        1 BB1          0.0000
    11 H11       28.4915    34.7109    42.1508 H          1 BB1          0.0000
    12 H12       29.5103    36.1687    42.2249 H          1 BB1          0.0000
    13 H13       27.8854    36.1806    42.9514 H          1 BB1          0.0000
    14 H14       24.9455    37.1086    39.4199 H          1 BB1          0.0000
    15 H15       26.4120    37.4823    37.4784 H          1 BB1          0.0000
    16 H16       26.1466    35.8002    42.4987 H          1 BB1          0.0000
    17 C2        30.0075    36.6634    38.7307 C.2        2 BB2          0.0000
    18 C3        30.1955    37.6334    37.6391 C.ar       2 BB2          0.0000
    19 N4        29.4500    38.7261    37.5864 N.ar       2 BB2          0.0000
    20 C5        29.5753    39.6282    36.6322 C.ar       2 BB2          0.0000
    21 C6        30.4986    39.4917    35.6180 C.ar       2 BB2          0.0000
    22 C7        31.3274    38.3570    35.6055 C.ar       2 BB2          0.0000
    23 C8        32.2908    38.1461    34.6071 C.ar       2 BB2          0.0000
    24 C9        33.0645    37.0258    34.6490 C.ar       2 BB2          0.0000
    25 C10       32.9127    36.0868    35.6679 C.ar       2 BB2          0.0000
    26 C11       31.9867    36.2605    36.6526 C.ar       2 BB2          0.0000
    27 C12       31.1777    37.4034    36.6463 C.ar       2 BB2          0.0000
    28 H14       28.9358    40.4984    36.6457 H          2 BB2          0.0000
    29 H15       30.5833    40.2430    34.8468 H          2 BB2          0.0000
    30 H16       32.4176    38.8658    33.8120 H          2 BB2          0.0000
    31 H17       33.8062    36.8624    33.8812 H          2 BB2          0.0000
    32 H18       33.5392    35.2071    35.6770 H          2 BB2          0.0000
    33 H19       31.8807    35.5238    37.4352 H          2 BB2          0.0000
@<TRIPOS>BOND
     1      1      2 1
     2      1     11 1
     3      1     12 1
     4      1     13 1
     5      2      3 ar
     6      2      9 ar
     7      3      4 1
     8      3      5 ar
     9      4     16 1
    10      5      6 ar
    11      5     14 1
    12      6      7 ar
    13      6     15 1
    14      7      8 1
    15      7      9 ar
    16      9     10 1
    17     17     18 1
    18     18     19 ar
    19     18     27 ar
    20     19     20 ar
    21     20     21 ar
    22     20     28 1
    23     21     22 ar
    24     21     29 1
    25     22     23 ar
    26     22     27 ar
    27     23     24 ar
    28     23     30 1
    29     24     25 ar
    30     24     31 1
    31     25     26 ar
    32     25     32 1
    33     26     27 ar
    34     26     33 1
    35      8     17 2
    36     10     17 1
@<TRIPOS>SUBSTRUCTURE
     1 BB1          10
     2 BB2          17
