@<TRIPOS>MOLECULE
EN300-84592_i002_EN300-125264_i004_9_3_10
  48   48   2   0   0
SMALL
USER_CHARGES
@<TRIPOS>ATOM
     1 C1        25.7499    37.0575    41.5014 C.3        1 BB1          0.0000
     2 C2        26.4490    36.1941    40.4493 C.3        1 BB1          0.0000
     3 C3        26.1806    36.7695    39.0573 C.3        1 BB1          0.0000
     4 C4        27.9556    36.1856    40.7158 C.3        1 BB1          0.0000
     5 O5        28.2181    35.5043    41.9442 O.3        1 BB1          0.0000
     6 C6        28.6719    35.4667    39.5708 C.3        1 BB1          0.0000
     7 C7        30.0749    36.0526    39.3992 C.3        1 BB1          0.0000
     8 N8        31.0607    34.9637    39.3747 N.pl3      1 BB1          0.0000
     9 H9        24.6766    37.0636    41.3116 H          1 BB1          0.0000
    10 H10       25.9411    36.6476    42.4932 H          1 BB1          0.0000
    11 H11       26.1340    38.0762    41.4491 H          1 BB1          0.0000
    12 H12       26.0649    35.1754    40.5017 H          1 BB1          0.0000
    13 H13       26.5648    37.7883    39.0050 H          1 BB1          0.0000
    14 H14       26.6787    36.1544    38.3077 H          1 BB1          0.0000
    15 H15       25.1073    36.7756    38.8674 H          1 BB1          0.0000
    16 H16       28.3183    37.2112    40.7845 H          1 BB1          0.0000
    17 H17       28.7476    34.4038    39.8000 H          1 BB1          0.0000
    18 H18       28.1071    35.6002    38.6483 H          1 BB1          0.0000
    19 H19       30.1243    36.6086    38.4630 H          1 BB1          0.0000
    20 H20       30.2934    36.7219    40.2313 H          1 BB1          0.0000
    21 H21       27.4254    35.3067    42.4617 H          1 BB1          0.0000
    22 H23       31.4344    34.8276    40.3020 H          1 BB1          0.0000
    23 C1        29.8470    40.1769    37.0204 C.3        2 BB2          0.0000
    24 O2        29.5265    38.8404    36.5520 O.3        2 BB2          0.0000
    25 C3        30.4062    37.8675    36.8373 C.2        2 BB2          0.0000
    26 O4        31.0770    37.9344    37.8400 O.2        2 BB2          0.0000
    27 C5        30.5572    36.6916    35.9068 C.3        2 BB2          0.0000
    28 C6        30.8471    37.1951    34.4915 C.3        2 BB2          0.0000
    29 C7        32.1411    38.0115    34.4956 C.3        2 BB2          0.0000
    30 C8        33.2984    37.1307    34.9707 C.3        2 BB2          0.0000
    31 C9        33.0085    36.6272    36.3861 C.3        2 BB2          0.0000
    32 C10       31.7145    35.8108    36.3819 C.3        2 BB2          0.0000
    33 S11       31.3707    35.2138    38.0600 S.o2       2 BB2          0.0000
    34 O12       32.4263    35.5702    38.9421 O.2        2 BB2          0.0000
    35 O13       30.0138    35.4543    38.4067 O.2        2 BB2          0.0000
    36 H15       29.0558    40.8653    36.7236 H          2 BB2          0.0000
    37 H16       29.9339    40.1700    38.1069 H          2 BB2          0.0000
    38 H17       30.7918    40.4987    36.5823 H          2 BB2          0.0000
    39 H18       29.6353    36.1099    35.9039 H          2 BB2          0.0000
    40 H19       30.9563    36.3446    33.8186 H          2 BB2          0.0000
    41 H20       30.0227    37.8226    34.1531 H          2 BB2          0.0000
    42 H21       32.3477    38.3703    33.4873 H          2 BB2          0.0000
    43 H22       32.0318    38.8620    35.1686 H          2 BB2          0.0000
    44 H23       33.4075    36.2802    34.2978 H          2 BB2          0.0000
    45 H24       34.2202    37.7124    34.9737 H          2 BB2          0.0000
    46 H25       33.8329    35.9996    36.7245 H          2 BB2          0.0000
    47 H26       32.8992    37.4777    37.0591 H          2 BB2          0.0000
    48 H27       31.8237    34.9602    35.7091 H          2 BB2          0.0000
@<TRIPOS>BOND
     1      1      2 1
     2      1      9 1
     3      1     10 1
     4      1     11 1
     5      2      3 1
     6      2      4 1
     7      2     12 1
     8      3     13 1
     9      3     14 1
    10      3     15 1
    11      4      5 1
    12      4      6 1
    13      4     16 1
    14      5     21 1
    15      6      7 1
    16      6     17 1
    17      6     18 1
    18      7      8 1
    19      7     19 1
    20      7     20 1
    21      8     22 1
    22     23     24 1
    23     23     36 1
    24     23     37 1
    25     23     38 1
    26     24     25 1
    27     25     26 2
    28     25     27 1
    29     27     28 1
    30     27     32 1
    31     27     39 1
    32     28     29 1
    33     28     40 1
    34     28     41 1
    35     29     30 1
    36     29     42 1
    37     29     43 1
    38     30     31 1
    39     30     44 1
    40     30     45 1
    41     31     32 1
    42     31     46 1
    43     31     47 1
    44     32     33 1
    45     32     48 1
    46     33     34 2
    47     33     35 2
    48      8     33 1
@<TRIPOS>SUBSTRUCTURE
     1 BB1           8
     2 BB2          33
@<TRIPOS>MOLECULE
EN300-26967_i001_EN300-96185_i001_18_5_10
  32   33   2   0   0
SMALL
USER_CHARGES
@<TRIPOS>ATOM
     1 N1        30.6899    39.0462    35.9648 N.pl3      1 BB1          0.0000
     2 C2        31.5042    37.9123    35.9160 C.ar       1 BB1          0.0000
     3 C3        32.4980    37.8111    34.9492 C.ar       1 BB1          0.0000
     4 C4        33.3057    36.6909    34.8967 C.ar       1 BB1          0.0000
     5 C5        33.1309    35.6652    35.8039 C.ar       1 BB1          0.0000
     6 C6        32.1361    35.7572    36.7782 C.ar       1 BB1          0.0000
     7 C7        31.9526    34.6941    37.7200 C.1        1 BB1          0.0000
     8 C8        31.8021    33.8227    38.4920 C.1        1 BB1          0.0000
     9 C9        31.3250    36.8900    36.8354 C.ar       1 BB1          0.0000
    10 H10       32.6392    38.6103    34.2367 H          1 BB1          0.0000
    11 H11       34.0760    36.6176    34.1433 H          1 BB1          0.0000
    12 H12       33.7639    34.7914    35.7594 H          1 BB1          0.0000
    13 H13       31.6674    33.0432    39.1826 H          1 BB1          0.0000
    14 H14       30.5535    36.9666    37.5872 H          1 BB1          0.0000
    15 H15       30.8180    39.7632    35.3241 H          1 BB1          0.0000
    16 S2        29.0492    38.1411    37.3982 S.o2       2 BB2          0.0000
    17 O3        29.9181    37.9715    38.5097 O.2        2 BB2          0.0000
    18 O4        28.6121    39.4334    37.0003 O.2        2 BB2          0.0000
    19 C5        27.6434    37.0000    37.5092 C.3        2 BB2          0.0000
    20 C6        27.1759    36.9166    38.9395 C.ar       2 BB2          0.0000
    21 C7        25.9352    37.4146    39.2913 C.ar       2 BB2          0.0000
    22 C8        25.5061    37.3377    40.6029 C.ar       2 BB2          0.0000
    23 C9        26.3176    36.7633    41.5638 C.ar       2 BB2          0.0000
    24 C10       27.5580    36.2653    41.2129 C.ar       2 BB2          0.0000
    25 C11       27.9856    36.3368    39.8991 C.ar       2 BB2          0.0000
    26 Br12      29.6828    35.6555    39.4184 Br         2 BB2          0.0000
    27 H13       26.8298    37.3636    36.8816 H          2 BB2          0.0000
    28 H14       27.9504    36.0110    37.1691 H          2 BB2          0.0000
    29 H15       25.3012    37.8640    38.5413 H          2 BB2          0.0000
    30 H16       24.5367    37.7268    40.8775 H          2 BB2          0.0000
    31 H17       25.9822    36.7041    42.5886 H          2 BB2          0.0000
    32 H18       28.1919    35.8169    41.9635 H          2 BB2          0.0000
@<TRIPOS>BOND
     1      1      2 1
     2      1     15 1
     3      2      3 ar
     4      2      9 ar
     5      3      4 ar
     6      3     10 1
     7      4      5 ar
     8      4     11 1
     9      5      6 ar
    10      5     12 1
    11      6      7 1
    12      6      9 ar
    13      7      8 3
    14      8     13 1
    15      9     14 1
    16     16     17 2
    17     16     18 2
    18     16     19 1
    19     19     20 1
    20     19     27 1
    21     19     28 1
    22     20     21 ar
    23     20     25 ar
    24     21     22 ar
    25     21     29 1
    26     22     23 ar
    27     22     30 1
    28     23     24 ar
    29     23     31 1
    30     24     25 ar
    31     24     32 1
    32     25     26 1
    33      1     16 1
@<TRIPOS>SUBSTRUCTURE
     1 BB1           1
     2 BB2          16
@<TRIPOS>MOLECULE
EN300-26967_i001_EN300-1425531_i002_18_6_10
  32   33   2   0   0
SMALL
USER_CHARGES
@<TRIPOS>ATOM
     1 N1        30.6899    39.0462    35.9648 N.pl3      1 BB1          0.0000
     2 C2        31.5042    37.9123    35.9160 C.ar       1 BB1          0.0000
     3 C3        32.4980    37.8111    34.9492 C.ar       1 BB1          0.0000
     4 C4        33.3057    36.6909    34.8967 C.ar       1 BB1          0.0000
     5 C5        33.1309    35.6652    35.8039 C.ar       1 BB1          0.0000
     6 C6        32.1361    35.7572    36.7782 C.ar       1 BB1          0.0000
     7 C7        31.9526    34.6941    37.7200 C.1        1 BB1          0.0000
     8 C8        31.8021    33.8227    38.4920 C.1        1 BB1          0.0000
     9 C9        31.3250    36.8900    36.8354 C.ar       1 BB1          0.0000
    10 H10       32.6392    38.6103    34.2367 H          1 BB1          0.0000
    11 H11       34.0760    36.6176    34.1433 H          1 BB1          0.0000
    12 H12       33.7639    34.7914    35.7594 H          1 BB1          0.0000
    13 H13       31.6674    33.0432    39.1826 H          1 BB1          0.0000
    14 H14       30.5535    36.9666    37.5872 H          1 BB1          0.0000
    15 H15       30.8180    39.7632    35.3241 H          1 BB1          0.0000
    16 F1        25.9200    37.1897    41.5021 F          2 BB2          0.0000
    17 C2        26.2056    36.2379    40.5173 C.3        2 BB2          0.0000
    18 C3        27.6625    36.2774    40.0266 C.3        2 BB2          0.0000
    19 C4        27.1988    37.3018    38.9775 C.3        2 BB2          0.0000
    20 C5        27.8399    37.1040    37.6025 C.3        2 BB2          0.0000
    21 S6        29.5861    37.5904    37.6738 S.o2       2 BB2          0.0000
    22 O7        29.7102    39.0059    37.6606 O.2        2 BB2          0.0000
    23 O8        30.2846    36.8024    38.6280 O.2        2 BB2          0.0000
    24 C10       25.7993    36.6766    39.1004 C.3        2 BB2          0.0000
    25 H11       25.8610    35.2383    40.7820 H          2 BB2          0.0000
    26 H12       28.3588    36.6868    40.7585 H          2 BB2          0.0000
    27 H13       28.0040    35.3360    39.5964 H          2 BB2          0.0000
    28 H14       27.2492    38.3343    39.3235 H          2 BB2          0.0000
    29 H15       27.7663    36.0552    37.3147 H          2 BB2          0.0000
    30 H16       27.3210    37.7196    36.8678 H          2 BB2          0.0000
    31 H17       25.6313    35.8442    38.4170 H          2 BB2          0.0000
    32 H18       24.9913    37.4081    39.0847 H          2 BB2          0.0000
@<TRIPOS>BOND
     1      1      2 1
     2      1     15 1
     3      2      3 ar
     4      2      9 ar
     5      3      4 ar
     6      3     10 1
     7      4      5 ar
     8      4     11 1
     9      5      6 ar
    10      5     12 1
    11      6      7 1
    12      6      9 ar
    13      7      8 3
    14      8     13 1
    15      9     14 1
    16     16     17 1
    17     17     18 1
    18     17     24 1
    19     17     25 1
    20     18     19 1
    21     18     26 1
    22     18     27 1
    23     19     20 1
    24     19     24 1
    25     19     28 1
    26     20     21 1
    27     20     29 1
    28     20     30 1
    29     21     22 2
    30     21     23 2
    31     24     31 1
    32     24     32 1
    33      1     21 1
@<TRIPOS>SUBSTRUCTURE
     1 BB1           1
     2 BB2          21
@<TRIPOS>MOLECULE
EN300-26967_i001_EN300-272107_i002_18_15_10
  36   36   2   0   0
SMALL
USER_CHARGES
@<TRIPOS>ATOM
     1 N1        30.6899    39.0462    35.9648 N.pl3      1 BB1          0.0000
     2 C2        31.5042    37.9123    35.9160 C.ar       1 BB1          0.0000
     3 C3        32.4980    37.8111    34.9492 C.ar       1 BB1          0.0000
     4 C4        33.3057    36.6909    34.8967 C.ar       1 BB1          0.0000
     5 C5        33.1309    35.6652    35.8039 C.ar       1 BB1          0.0000
     6 C6        32.1361    35.7572    36.7782 C.ar       1 BB1          0.0000
     7 C7        31.9526    34.6941    37.7200 C.1        1 BB1          0.0000
     8 C8        31.8021    33.8227    38.4920 C.1        1 BB1          0.0000
     9 C9        31.3250    36.8900    36.8354 C.ar       1 BB1          0.0000
    10 H10       32.6392    38.6103    34.2367 H          1 BB1          0.0000
    11 H11       34.0760    36.6176    34.1433 H          1 BB1          0.0000
    12 H12       33.7639    34.7914    35.7594 H          1 BB1          0.0000
    13 H13       31.6674    33.0432    39.1826 H          1 BB1          0.0000
    14 H14       30.5535    36.9666    37.5872 H          1 BB1          0.0000
    15 H15       30.8180    39.7632    35.3241 H          1 BB1          0.0000
    16 C1        25.8080    36.9759    41.1656 C.3        2 BB2          0.0000
    17 C2        26.6811    36.5371    39.9882 C.3        2 BB2          0.0000
    18 C3        28.1565    36.6988    40.3592 C.3        2 BB2          0.0000
    19 C4        28.4967    35.7602    41.5187 C.3        2 BB2          0.0000
    20 N5        28.9905    36.3668    39.2015 N.pl3      2 BB2          0.0000
    21 C6        29.6707    35.0710    39.1362 C.3        2 BB2          0.0000
    22 S7        29.1643    37.4563    37.9665 S.o2       2 BB2          0.0000
    23 O8        29.9618    38.5164    38.4758 O.2        2 BB2          0.0000
    24 O9        29.5164    36.7034    36.8138 O.2        2 BB2          0.0000
    25 H11       26.0338    36.3587    42.0352 H          2 BB2          0.0000
    26 H12       26.0116    38.0210    41.3992 H          2 BB2          0.0000
    27 H13       24.7569    36.8607    40.9012 H          2 BB2          0.0000
    28 H14       26.4776    35.4921    39.7546 H          2 BB2          0.0000
    29 H15       26.4554    37.1544    39.1186 H          2 BB2          0.0000
    30 H16       28.3449    37.7298    40.6590 H          2 BB2          0.0000
    31 H17       27.8762    36.0073    42.3801 H          2 BB2          0.0000
    32 H18       28.3083    34.7294    41.2189 H          2 BB2          0.0000
    33 H19       29.5478    35.8755    41.7831 H          2 BB2          0.0000
    34 H20       29.0219    34.3442    38.6474 H          2 BB2          0.0000
    35 H21       30.5946    35.1738    38.5671 H          2 BB2          0.0000
    36 H22       29.9017    34.7306    40.1456 H          2 BB2          0.0000
@<TRIPOS>BOND
     1      1      2 1
     2      1     15 1
     3      2      3 ar
     4      2      9 ar
     5      3      4 ar
     6      3     10 1
     7      4      5 ar
     8      4     11 1
     9      5      6 ar
    10      5     12 1
    11      6      7 1
    12      6      9 ar
    13      7      8 3
    14      8     13 1
    15      9     14 1
    16     16     17 1
    17     16     25 1
    18     16     26 1
    19     16     27 1
    20     17     18 1
    21     17     28 1
    22     17     29 1
    23     18     19 1
    24     18     20 1
    25     18     30 1
    26     19     31 1
    27     19     32 1
    28     19     33 1
    29     20     21 1
    30     20     22 1
    31     21     34 1
    32     21     35 1
    33     21     36 1
    34     22     23 2
    35     22     24 2
    36      1     22 1
@<TRIPOS>SUBSTRUCTURE
     1 BB1           1
     2 BB2          22
@<TRIPOS>MOLECULE
EN300-153879_i004_EN300-93482_i002_20_15_10
  39   40   2   0   0
SMALL
USER_CHARGES
@<TRIPOS>ATOM
     1 N1        30.5390    35.8328    39.4366 N.pl3      1 BB1          0.0000
     2 C2        31.6107    35.5170    38.4828 C.3        1 BB1          0.0000
     3 C3        31.7127    34.0571    38.3251 C.1        1 BB1          0.0000
     4 C4        31.7941    32.8927    38.1991 C.1        1 BB1          0.0000
     5 C5        31.2930    36.1553    37.1290 C.3        1 BB1          0.0000
     6 C6        31.1548    37.6876    37.2720 C.3        1 BB1          0.0000
     7 C7        32.2722    38.2514    36.3667 C.3        1 BB1          0.0000
     8 O8        32.5283    37.2070    35.4026 O.3        1 BB1          0.0000
     9 C9        32.4777    35.9747    36.1542 C.3        1 BB1          0.0000
    10 H10       32.5567    35.9092    38.8563 H          1 BB1          0.0000
    11 H11       31.8669    31.8513    38.0865 H          1 BB1          0.0000
    12 H12       30.3824    35.7271    36.7102 H          1 BB1          0.0000
    13 H13       30.1766    38.0171    36.9217 H          1 BB1          0.0000
    14 H14       31.3126    37.9904    38.3072 H          1 BB1          0.0000
    15 H15       31.9326    39.1569    35.8639 H          1 BB1          0.0000
    16 H16       33.1686    38.4552    36.9525 H          1 BB1          0.0000
    17 H17       33.4055    35.8293    36.7074 H          1 BB1          0.0000
    18 H18       32.2959    35.1313    35.4882 H          1 BB1          0.0000
    19 H20       30.8380    35.6641    40.3853 H          1 BB1          0.0000
    20 C1        28.5011    35.7928    41.7715 C.3        2 BB2          0.0000
    21 C2        27.2496    35.8422    40.8927 C.3        2 BB2          0.0000
    22 C3        26.2755    36.8917    41.4401 C.3        2 BB2          0.0000
    23 O4        25.1995    37.0631    40.5145 O.3        2 BB2          0.0000
    24 C5        25.6014    37.5568    39.2345 C.3        2 BB2          0.0000
    25 C6        26.5410    36.5412    38.5742 C.3        2 BB2          0.0000
    26 N7        27.6218    36.2248    39.5214 N.pl3      2 BB2          0.0000
    27 S8        29.2099    36.2975    39.0579 S.o2       2 BB2          0.0000
    28 O9        29.8196    37.2920    39.8694 O.2        2 BB2          0.0000
    29 O10       29.6715    34.9550    38.9954 O.2        2 BB2          0.0000
    30 H12       28.2406    35.3959    42.7527 H          2 BB2          0.0000
    31 H13       29.2471    35.1490    41.3055 H          2 BB2          0.0000
    32 H14       28.9071    36.7982    41.8825 H          2 BB2          0.0000
    33 H15       26.7685    34.8641    40.8838 H          2 BB2          0.0000
    34 H16       25.8808    36.5570    42.3993 H          2 BB2          0.0000
    35 H17       26.7976    37.8396    41.5710 H          2 BB2          0.0000
    36 H18       24.7217    37.7004    38.6070 H          2 BB2          0.0000
    37 H19       26.1210    38.5070    39.3575 H          2 BB2          0.0000
    38 H20       25.9883    35.6337    38.3312 H          2 BB2          0.0000
    39 H21       26.9634    36.9690    37.6649 H          2 BB2          0.0000
@<TRIPOS>BOND
     1      1      2 1
     2      1     19 1
     3      2      3 1
     4      2      5 1
     5      2     10 1
     6      3      4 3
     7      4     11 1
     8      5      6 1
     9      5      9 1
    10      5     12 1
    11      6      7 1
    12      6     13 1
    13      6     14 1
    14      7      8 1
    15      7     15 1
    16      7     16 1
    17      8      9 1
    18      9     17 1
    19      9     18 1
    20     20     21 1
    21     20     30 1
    22     20     31 1
    23     20     32 1
    24     21     22 1
    25     21     26 1
    26     21     33 1
    27     22     23 1
    28     22     34 1
    29     22     35 1
    30     23     24 1
    31     24     25 1
    32     24     36 1
    33     24     37 1
    34     25     26 1
    35     25     38 1
    36     25     39 1
    37     26     27 1
    38     27     28 2
    39     27     29 2
    40      1     27 1
@<TRIPOS>SUBSTRUCTURE
     1 BB1           1
     2 BB2          27
@<TRIPOS>MOLECULE
EN300-153879_i004_EN300-81521_i001_20_5_10
  35   36   2   0   0
SMALL
USER_CHARGES
@<TRIPOS>ATOM
     1 N1        30.5390    35.8328    39.4366 N.pl3      1 BB1          0.0000
     2 C2        31.6107    35.5170    38.4828 C.3        1 BB1          0.0000
     3 C3        31.7127    34.0571    38.3251 C.1        1 BB1          0.0000
     4 C4        31.7941    32.8927    38.1991 C.1        1 BB1          0.0000
     5 C5        31.2930    36.1553    37.1290 C.3        1 BB1          0.0000
     6 C6        31.1548    37.6876    37.2720 C.3        1 BB1          0.0000
     7 C7        32.2722    38.2514    36.3667 C.3        1 BB1          0.0000
     8 O8        32.5283    37.2070    35.4026 O.3        1 BB1          0.0000
     9 C9        32.4777    35.9747    36.1542 C.3        1 BB1          0.0000
    10 H10       32.5567    35.9092    38.8563 H          1 BB1          0.0000
    11 H11       31.8669    31.8513    38.0865 H          1 BB1          0.0000
    12 H12       30.3824    35.7271    36.7102 H          1 BB1          0.0000
    13 H13       30.1766    38.0171    36.9217 H          1 BB1          0.0000
    14 H14       31.3126    37.9904    38.3072 H          1 BB1          0.0000
    15 H15       31.9326    39.1569    35.8639 H          1 BB1          0.0000
    16 H16       33.1686    38.4552    36.9525 H          1 BB1          0.0000
    17 H17       33.4055    35.8293    36.7074 H          1 BB1          0.0000
    18 H18       32.2959    35.1313    35.4882 H          1 BB1          0.0000
    19 H20       30.8380    35.6641    40.3853 H          1 BB1          0.0000
    20 C1        28.7703    36.2182    41.7836 C.3        2 BB2          0.0000
    21 N2        28.0493    36.2782    40.5097 N.pl3      2 BB2          0.0000
    22 C3        26.5901    36.1496    40.4871 C.3        2 BB2          0.0000
    23 C4        25.7874    37.0423    41.4356 C.3        2 BB2          0.0000
    24 C5        25.7857    37.3269    39.9322 C.3        2 BB2          0.0000
    25 S6        28.8837    36.4914    39.0953 S.o2       2 BB2          0.0000
    26 O7        27.9214    36.4444    38.0507 O.2        2 BB2          0.0000
    27 O8        29.7510    37.5976    39.3038 O.2        2 BB2          0.0000
    28 H10       29.0405    35.1845    41.9998 H          2 BB2          0.0000
    29 H11       29.6742    36.8239    41.7184 H          2 BB2          0.0000
    30 H12       28.1328    36.6013    42.5803 H          2 BB2          0.0000
    31 H13       26.2095    35.1459    40.2978 H          2 BB2          0.0000
    32 H14       24.8785    36.6260    41.8699 H          2 BB2          0.0000
    33 H15       26.3449    37.7253    42.0764 H          2 BB2          0.0000
    34 H16       26.3421    38.1971    39.5841 H          2 BB2          0.0000
    35 H17       24.8757    37.0978    39.3776 H          2 BB2          0.0000
@<TRIPOS>BOND
     1      1      2 1
     2      1     19 1
     3      2      3 1
     4      2      5 1
     5      2     10 1
     6      3      4 3
     7      4     11 1
     8      5      6 1
     9      5      9 1
    10      5     12 1
    11      6      7 1
    12      6     13 1
    13      6     14 1
    14      7      8 1
    15      7     15 1
    16      7     16 1
    17      8      9 1
    18      9     17 1
    19      9     18 1
    20     20     21 1
    21     20     28 1
    22     20     29 1
    23     20     30 1
    24     21     22 1
    25     21     25 1
    26     22     23 1
    27     22     24 1
    28     22     31 1
    29     23     24 1
    30     23     32 1
    31     23     33 1
    32     24     34 1
    33     24     35 1
    34     25     26 2
    35     25     27 2
    36      1     25 1
@<TRIPOS>SUBSTRUCTURE
     1 BB1           1
     2 BB2          25
@<TRIPOS>MOLECULE
EN300-69205_i002_EN300-81521_i001_1_6_10
  42   43   2   0   0
SMALL
USER_CHARGES
@<TRIPOS>ATOM
     1 C1        27.5100    35.3726    41.9447 C.3        1 BB1          0.0000
     2 C2        26.8046    35.9327    40.7079 C.3        1 BB1          0.0000
     3 C3        25.6605    36.8497    41.1448 C.3        1 BB1          0.0000
     4 O4        24.6452    36.0732    41.7838 O.3        1 BB1          0.0000
     5 N5        27.7646    36.6978    39.9011 N.4        1 BB1          1.0000
     6 C6        27.1547    37.0405    38.6095 C.3        1 BB1          0.0000
     7 C7        28.1476    37.8537    37.7762 C.3        1 BB1          0.0000
     8 N8        29.3692    37.0638    37.5664 N.pl3      1 BB1          0.0000
     9 C9        29.9775    36.6920    38.8517 C.3        1 BB1          0.0000
    10 C10       28.9694    35.8883    39.6761 C.3        1 BB1          0.0000
    11 H11       28.3251    34.7193    41.6334 H          1 BB1          0.0000
    12 H12       27.9097    36.1947    42.5384 H          1 BB1          0.0000
    13 H13       26.7978    34.8049    42.5434 H          1 BB1          0.0000
    14 H14       26.4049    35.1106    40.1142 H          1 BB1          0.0000
    15 H15       26.0397    37.5966    41.8423 H          1 BB1          0.0000
    16 H16       25.2407    37.3484    40.2712 H          1 BB1          0.0000
    17 H17       26.8958    36.1260    38.0759 H          1 BB1          0.0000
    18 H18       26.2536    37.6301    38.7784 H          1 BB1          0.0000
    19 H19       27.7007    38.0955    36.8118 H          1 BB1          0.0000
    20 H20       28.3962    38.7748    38.3033 H          1 BB1          0.0000
    21 H21       30.8655    36.0862    38.6719 H          1 BB1          0.0000
    22 H22       30.2562    37.5939    39.3965 H          1 BB1          0.0000
    23 H23       29.4138    35.6237    40.6357 H          1 BB1          0.0000
    24 H24       28.7013    34.9798    39.1371 H          1 BB1          0.0000
    25 H25       24.0214    35.6606    41.1709 H          1 BB1          0.0000
    26 H27       28.0150    37.5443    40.3898 H          1 BB1          0.0000
    27 C1        32.5096    36.1058    37.8709 C.3        2 BB2          0.0000
    28 N2        31.7215    36.7036    36.7903 N.pl3      2 BB2          0.0000
    29 C3        32.1227    36.5058    35.3952 C.3        2 BB2          0.0000
    30 C4        32.5729    37.7381    34.6080 C.3        2 BB2          0.0000
    31 C5        33.6015    36.6960    35.0518 C.3        2 BB2          0.0000
    32 S6        30.3772    37.6029    37.1455 S.o2       2 BB2          0.0000
    33 O7        29.3299    37.0996    36.3274 O.2        2 BB2          0.0000
    34 O8        30.2964    37.6611    38.5631 O.2        2 BB2          0.0000
    35 H10       33.2843    36.8052    38.1853 H          2 BB2          0.0000
    36 H11       31.8575    35.8823    38.7153 H          2 BB2          0.0000
    37 H12       32.9733    35.1854    37.5163 H          2 BB2          0.0000
    38 H13       31.5751    35.7348    34.8533 H          2 BB2          0.0000
    39 H14       32.3217    37.7777    33.5482 H          2 BB2          0.0000
    40 H15       32.5705    38.6961    35.1281 H          2 BB2          0.0000
    41 H16       34.2758    36.9684    35.8637 H          2 BB2          0.0000
    42 H17       34.0271    36.0501    34.2838 H          2 BB2          0.0000
@<TRIPOS>BOND
     1      1      2 1
     2      1     11 1
     3      1     12 1
     4      1     13 1
     5      2      3 1
     6      2      5 1
     7      2     14 1
     8      3      4 1
     9      3     15 1
    10      3     16 1
    11      4     25 1
    12      5      6 1
    13      5     10 1
    14      5     26 1
    15      6      7 1
    16      6     17 1
    17      6     18 1
    18      7      8 1
    19      7     19 1
    20      7     20 1
    21      8      9 1
    22      9     10 1
    23      9     21 1
    24      9     22 1
    25     10     23 1
    26     10     24 1
    27     27     28 1
    28     27     35 1
    29     27     36 1
    30     27     37 1
    31     28     29 1
    32     28     32 1
    33     29     30 1
    34     29     31 1
    35     29     38 1
    36     30     31 1
    37     30     39 1
    38     30     40 1
    39     31     41 1
    40     31     42 1
    41     32     33 2
    42     32     34 2
    43      8     32 1
@<TRIPOS>SUBSTRUCTURE
     1 BB1           8
     2 BB2          32
@<TRIPOS>MOLECULE
EN300-69205_i002_EN300-23873_i001_1_12_10
  44   44   2   0   0
SMALL
USER_CHARGES
@<TRIPOS>ATOM
     1 C1        27.5100    35.3726    41.9447 C.3        1 BB1          0.0000
     2 C2        26.8046    35.9327    40.7079 C.3        1 BB1          0.0000
     3 C3        25.6605    36.8497    41.1448 C.3        1 BB1          0.0000
     4 O4        24.6452    36.0732    41.7838 O.3        1 BB1          0.0000
     5 N5        27.7646    36.6978    39.9011 N.4        1 BB1          1.0000
     6 C6        27.1547    37.0405    38.6095 C.3        1 BB1          0.0000
     7 C7        28.1476    37.8537    37.7762 C.3        1 BB1          0.0000
     8 N8        29.3692    37.0638    37.5664 N.pl3      1 BB1          0.0000
     9 C9        29.9775    36.6920    38.8517 C.3        1 BB1          0.0000
    10 C10       28.9694    35.8883    39.6761 C.3        1 BB1          0.0000
    11 H11       28.3251    34.7193    41.6334 H          1 BB1          0.0000
    12 H12       27.9097    36.1947    42.5384 H          1 BB1          0.0000
    13 H13       26.7978    34.8049    42.5434 H          1 BB1          0.0000
    14 H14       26.4049    35.1106    40.1142 H          1 BB1          0.0000
    15 H15       26.0397    37.5966    41.8423 H          1 BB1          0.0000
    16 H16       25.2407    37.3484    40.2712 H          1 BB1          0.0000
    17 H17       26.8958    36.1260    38.0759 H          1 BB1          0.0000
    18 H18       26.2536    37.6301    38.7784 H          1 BB1          0.0000
    19 H19       27.7007    38.0955    36.8118 H          1 BB1          0.0000
    20 H20       28.3962    38.7748    38.3033 H          1 BB1          0.0000
    21 H21       30.8655    36.0862    38.6719 H          1 BB1          0.0000
    22 H22       30.2562    37.5939    39.3965 H          1 BB1          0.0000
    23 H23       29.4138    35.6237    40.6357 H          1 BB1          0.0000
    24 H24       28.7013    34.9798    39.1371 H          1 BB1          0.0000
    25 H25       24.0214    35.6606    41.1709 H          1 BB1          0.0000
    26 H27       28.0150    37.5443    40.3898 H          1 BB1          0.0000
    27 C1        32.1237    34.4707    37.6796 C.3        2 BB2          0.0000
    28 C2        32.3911    35.9674    37.8497 C.3        2 BB2          0.0000
    29 N3        32.1314    36.6569    36.5835 N.pl3      2 BB2          0.0000
    30 C4        32.9757    36.3884    35.4167 C.3        2 BB2          0.0000
    31 C5        32.6994    37.4352    34.3356 C.3        2 BB2          0.0000
    32 S6        30.8836    37.7399    36.4710 S.o2       2 BB2          0.0000
    33 O7        31.4766    39.0294    36.4021 O.2        2 BB2          0.0000
    34 O8        30.0028    37.2353    35.4767 O.2        2 BB2          0.0000
    35 H10       31.0842    34.3179    37.3893 H          2 BB2          0.0000
    36 H11       32.7795    34.0699    36.9066 H          2 BB2          0.0000
    37 H12       32.3169    33.9577    38.6218 H          2 BB2          0.0000
    38 H13       31.7352    36.3681    38.6227 H          2 BB2          0.0000
    39 H14       33.4304    36.1202    38.1401 H          2 BB2          0.0000
    40 H15       34.0248    36.4357    35.7087 H          2 BB2          0.0000
    41 H16       32.7515    35.3955    35.0268 H          2 BB2          0.0000
    42 H17       33.3277    37.2355    33.4674 H          2 BB2          0.0000
    43 H18       31.6504    37.3878    34.0435 H          2 BB2          0.0000
    44 H19       32.9237    38.4281    34.7255 H          2 BB2          0.0000
@<TRIPOS>BOND
     1      1      2 1
     2      1     11 1
     3      1     12 1
     4      1     13 1
     5      2      3 1
     6      2      5 1
     7      2     14 1
     8      3      4 1
     9      3     15 1
    10      3     16 1
    11      4     25 1
    12      5      6 1
    13      5     10 1
    14      5     26 1
    15      6      7 1
    16      6     17 1
    17      6     18 1
    18      7      8 1
    19      7     19 1
    20      7     20 1
    21      8      9 1
    22      9     10 1
    23      9     21 1
    24      9     22 1
    25     10     23 1
    26     10     24 1
    27     27     28 1
    28     27     35 1
    29     27     36 1
    30     27     37 1
    31     28     29 1
    32     28     38 1
    33     28     39 1
    34     29     30 1
    35     29     32 1
    36     30     31 1
    37     30     40 1
    38     30     41 1
    39     31     42 1
    40     31     43 1
    41     31     44 1
    42     32     33 2
    43     32     34 2
    44      8     32 1
@<TRIPOS>SUBSTRUCTURE
     1 BB1           8
     2 BB2          32
@<TRIPOS>MOLECULE
EN300-69205_i002_EN300-81521_i001_14_5_10
  42   43   2   0   0
SMALL
USER_CHARGES
@<TRIPOS>ATOM
     1 C1        31.5064    38.4944    35.6392 C.3        1 BB1          0.0000
     2 C2        31.8452    37.0095    35.7864 C.3        1 BB1          0.0000
     3 C3        33.2882    36.7688    35.3386 C.3        1 BB1          0.0000
     4 O4        33.3396    36.7033    33.9120 O.3        1 BB1          0.0000
     5 N5        31.6956    36.6102    37.1920 N.4        1 BB1          1.0000
     6 C6        31.9492    35.1691    37.3209 C.3        1 BB1          0.0000
     7 C7        31.8119    34.7560    38.7880 C.3        1 BB1          0.0000
     8 N8        30.4573    35.0766    39.2595 N.pl3      1 BB1          0.0000
     9 C9        30.1799    36.5125    39.1134 C.3        1 BB1          0.0000
    10 C10       30.3306    36.9111    37.6436 C.3        1 BB1          0.0000
    11 H11       30.4784    38.6658    35.9582 H          1 BB1          0.0000
    12 H12       32.1822    39.0842    36.2584 H          1 BB1          0.0000
    13 H13       31.6175    38.7907    34.5962 H          1 BB1          0.0000
    14 H14       31.1694    36.4197    35.1671 H          1 BB1          0.0000
    15 H15       33.9182    37.5870    35.6877 H          1 BB1          0.0000
    16 H16       33.6471    35.8292    35.7587 H          1 BB1          0.0000
    17 H17       31.2268    34.6178    36.7191 H          1 BB1          0.0000
    18 H18       32.9578    34.9452    36.9733 H          1 BB1          0.0000
    19 H19       31.9855    33.6840    38.8817 H          1 BB1          0.0000
    20 H20       32.5435    35.2971    39.3881 H          1 BB1          0.0000
    21 H21       29.1628    36.7220    39.4445 H          1 BB1          0.0000
    22 H22       30.8846    37.0825    39.7189 H          1 BB1          0.0000
    23 H23       30.1392    37.9787    37.5353 H          1 BB1          0.0000
    24 H24       29.6165    36.3508    37.0402 H          1 BB1          0.0000
    25 H25       34.1327    37.1018    33.5283 H          1 BB1          0.0000
    26 H27       32.3569    37.1199    37.7585 H          1 BB1          0.0000
    27 C1        28.7703    36.2182    41.7836 C.3        2 BB2          0.0000
    28 N2        28.0493    36.2782    40.5097 N.pl3      2 BB2          0.0000
    29 C3        26.5901    36.1496    40.4871 C.3        2 BB2          0.0000
    30 C4        25.7874    37.0423    41.4356 C.3        2 BB2          0.0000
    31 C5        25.7857    37.3269    39.9322 C.3        2 BB2          0.0000
    32 S6        28.8837    36.4914    39.0953 S.o2       2 BB2          0.0000
    33 O7        27.9214    36.4444    38.0507 O.2        2 BB2          0.0000
    34 O8        29.7510    37.5976    39.3038 O.2        2 BB2          0.0000
    35 H10       29.0405    35.1845    41.9998 H          2 BB2          0.0000
    36 H11       29.6742    36.8239    41.7184 H          2 BB2          0.0000
    37 H12       28.1328    36.6013    42.5803 H          2 BB2          0.0000
    38 H13       26.2095    35.1459    40.2978 H          2 BB2          0.0000
    39 H14       24.8785    36.6260    41.8699 H          2 BB2          0.0000
    40 H15       26.3449    37.7253    42.0764 H          2 BB2          0.0000
    41 H16       26.3421    38.1971    39.5841 H          2 BB2          0.0000
    42 H17       24.8757    37.0978    39.3776 H          2 BB2          0.0000
@<TRIPOS>BOND
     1      1      2 1
     2      1     11 1
     3      1     12 1
     4      1     13 1
     5      2      3 1
     6      2      5 1
     7      2     14 1
     8      3      4 1
     9      3     15 1
    10      3     16 1
    11      4     25 1
    12      5      6 1
    13      5     10 1
    14      5     26 1
    15      6      7 1
    16      6     17 1
    17      6     18 1
    18      7      8 1
    19      7     19 1
    20      7     20 1
    21      8      9 1
    22      9     10 1
    23      9     21 1
    24      9     22 1
    25     10     23 1
    26     10     24 1
    27     27     28 1
    28     27     35 1
    29     27     36 1
    30     27     37 1
    31     28     29 1
    32     28     32 1
    33     29     30 1
    34     29     31 1
    35     29     38 1
    36     30     31 1
    37     30     39 1
    38     30     40 1
    39     31     41 1
    40     31     42 1
    41     32     33 2
    42     32     34 2
    43      8     32 1
@<TRIPOS>SUBSTRUCTURE
     1 BB1           8
     2 BB2          32
@<TRIPOS>MOLECULE
EN300-189362_i001_EN300-125264_i004_7_3_10
  43   44   2   0   0
SMALL
USER_CHARGES
@<TRIPOS>ATOM
     1 C1        25.8522    37.5202    38.3518 C.3        1 BB1          0.0000
     2 C2        26.8058    37.0328    39.4121 C.ar       1 BB1          0.0000
     3 C3        28.0790    36.6244    39.0600 C.ar       1 BB1          0.0000
     4 C4        28.9575    36.1756    40.0344 C.ar       1 BB1          0.0000
     5 N5        30.2480    35.7616    39.6791 N.pl3      1 BB1          0.0000
     6 C6        28.5547    36.1378    41.3676 C.ar       1 BB1          0.0000
     7 O7        29.4132    35.6988    42.3268 O.3        1 BB1          0.0000
     8 C8        27.2785    36.5485    41.7143 C.ar       1 BB1          0.0000
     9 C9        26.4072    37.0002    40.7371 C.ar       1 BB1          0.0000
    10 F10       25.1623    37.4006    41.0766 F          1 BB1          0.0000
    11 H11       25.2782    36.6784    37.9646 H          1 BB1          0.0000
    12 H12       25.1730    38.2550    38.7840 H          1 BB1          0.0000
    13 H13       26.4159    37.9798    37.5399 H          1 BB1          0.0000
    14 H14       28.3892    36.6545    38.0260 H          1 BB1          0.0000
    15 H15       26.9638    36.5198    42.7470 H          1 BB1          0.0000
    16 H17       30.8618    35.4478    40.3615 H          1 BB1          0.0000
    17 H18       30.2942    35.4781    41.9949 H          1 BB1          0.0000
    18 C1        29.8470    40.1769    37.0204 C.3        2 BB2          0.0000
    19 O2        29.5265    38.8404    36.5520 O.3        2 BB2          0.0000
    20 C3        30.4062    37.8675    36.8373 C.2        2 BB2          0.0000
    21 O4        31.0770    37.9344    37.8400 O.2        2 BB2          0.0000
    22 C5        30.5572    36.6916    35.9068 C.3        2 BB2          0.0000
    23 C6        30.8471    37.1951    34.4915 C.3        2 BB2          0.0000
    24 C7        32.1411    38.0115    34.4956 C.3        2 BB2          0.0000
    25 C8        33.2984    37.1307    34.9707 C.3        2 BB2          0.0000
    26 C9        33.0085    36.6272    36.3861 C.3        2 BB2          0.0000
    27 C10       31.7145    35.8108    36.3819 C.3        2 BB2          0.0000
    28 S11       31.3707    35.2138    38.0600 S.o2       2 BB2          0.0000
    29 O12       32.4263    35.5702    38.9421 O.2        2 BB2          0.0000
    30 O13       30.0138    35.4543    38.4067 O.2        2 BB2          0.0000
    31 H15       29.0558    40.8653    36.7236 H          2 BB2          0.0000
    32 H16       29.9339    40.1700    38.1069 H          2 BB2          0.0000
    33 H17       30.7918    40.4987    36.5823 H          2 BB2          0.0000
    34 H18       29.6353    36.1099    35.9039 H          2 BB2          0.0000
    35 H19       30.9563    36.3446    33.8186 H          2 BB2          0.0000
    36 H20       30.0227    37.8226    34.1531 H          2 BB2          0.0000
    37 H21       32.3477    38.3703    33.4873 H          2 BB2          0.0000
    38 H22       32.0318    38.8620    35.1686 H          2 BB2          0.0000
    39 H23       33.4075    36.2802    34.2978 H          2 BB2          0.0000
    40 H24       34.2202    37.7124    34.9737 H          2 BB2          0.0000
    41 H25       33.8329    35.9996    36.7245 H          2 BB2          0.0000
    42 H26       32.8992    37.4777    37.0591 H          2 BB2          0.0000
    43 H27       31.8237    34.9602    35.7091 H          2 BB2          0.0000
@<TRIPOS>BOND
     1      1      2 1
     2      1     11 1
     3      1     12 1
     4      1     13 1
     5      2      3 ar
     6      2      9 ar
     7      3      4 ar
     8      3     14 1
     9      4      5 1
    10      4      6 ar
    11      5     16 1
    12      6      7 1
    13      6      8 ar
    14      7     17 1
    15      8      9 ar
    16      8     15 1
    17      9     10 1
    18     18     19 1
    19     18     31 1
    20     18     32 1
    21     18     33 1
    22     19     20 1
    23     20     21 2
    24     20     22 1
    25     22     23 1
    26     22     27 1
    27     22     34 1
    28     23     24 1
    29     23     35 1
    30     23     36 1
    31     24     25 1
    32     24     37 1
    33     24     38 1
    34     25     26 1
    35     25     39 1
    36     25     40 1
    37     26     27 1
    38     26     41 1
    39     26     42 1
    40     27     28 1
    41     27     43 1
    42     28     29 2
    43     28     30 2
    44      5     28 1
@<TRIPOS>SUBSTRUCTURE
     1 BB1           5
     2 BB2          28
@<TRIPOS>MOLECULE
EN300-153159_i001_EN300-23873_i001_19_12_10
  44   44   2   0   0
SMALL
USER_CHARGES
@<TRIPOS>ATOM
     1 C1        27.4400    34.7495    40.7395 C.3        1 BB1          0.0000
     2 C2        27.3294    36.2713    40.8537 C.3        1 BB1          0.0000
     3 C3        25.8737    36.6580    41.1232 C.3        1 BB1          0.0000
     4 C4        28.2089    36.7616    42.0056 C.3        1 BB1          0.0000
     5 C5        27.7877    36.9063    39.5662 C.ar       1 BB1          0.0000
     6 C6        26.8886    37.6069    38.7824 C.ar       1 BB1          0.0000
     7 C7        27.3048    38.1912    37.6011 C.ar       1 BB1          0.0000
     8 C8        28.6222    38.0784    37.1967 C.ar       1 BB1          0.0000
     9 C9        29.5291    37.3774    37.9773 C.ar       1 BB1          0.0000
    10 N10       30.8632    37.2617    37.5699 N.pl3      1 BB1          0.0000
    11 C11       29.1098    36.7930    39.1709 C.ar       1 BB1          0.0000
    12 O12       29.9949    36.1044    39.9406 O.3        1 BB1          0.0000
    13 H13       26.8133    34.4002    39.9189 H          1 BB1          0.0000
    14 H14       28.4769    34.4740    40.5476 H          1 BB1          0.0000
    15 H15       27.1084    34.2903    41.6708 H          1 BB1          0.0000
    16 H16       25.5422    36.1987    42.0544 H          1 BB1          0.0000
    17 H17       25.7949    37.7421    41.2044 H          1 BB1          0.0000
    18 H18       25.2471    36.3087    40.3026 H          1 BB1          0.0000
    19 H19       29.2459    36.4861    41.8137 H          1 BB1          0.0000
    20 H20       28.1301    37.8457    42.0870 H          1 BB1          0.0000
    21 H21       27.8774    36.3022    42.9369 H          1 BB1          0.0000
    22 H22       25.8586    37.6973    39.0944 H          1 BB1          0.0000
    23 H23       26.5993    38.7370    36.9922 H          1 BB1          0.0000
    24 H24       28.9446    38.5356    36.2728 H          1 BB1          0.0000
    25 H26       31.4964    36.7711    38.1170 H          1 BB1          0.0000
    26 H27       30.0770    36.4418    40.8431 H          1 BB1          0.0000
    27 C1        32.1237    34.4707    37.6796 C.3        2 BB2          0.0000
    28 C2        32.3911    35.9674    37.8497 C.3        2 BB2          0.0000
    29 N3        32.1314    36.6569    36.5835 N.pl3      2 BB2          0.0000
    30 C4        32.9757    36.3884    35.4167 C.3        2 BB2          0.0000
    31 C5        32.6994    37.4352    34.3356 C.3        2 BB2          0.0000
    32 S6        30.8836    37.7399    36.4710 S.o2       2 BB2          0.0000
    33 O7        31.4766    39.0294    36.4021 O.2        2 BB2          0.0000
    34 O8        30.0028    37.2353    35.4767 O.2        2 BB2          0.0000
    35 H10       31.0842    34.3179    37.3893 H          2 BB2          0.0000
    36 H11       32.7795    34.0699    36.9066 H          2 BB2          0.0000
    37 H12       32.3169    33.9577    38.6218 H          2 BB2          0.0000
    38 H13       31.7352    36.3681    38.6227 H          2 BB2          0.0000
    39 H14       33.4304    36.1202    38.1401 H          2 BB2          0.0000
    40 H15       34.0248    36.4357    35.7087 H          2 BB2          0.0000
    41 H16       32.7515    35.3955    35.0268 H          2 BB2          0.0000
    42 H17       33.3277    37.2355    33.4674 H          2 BB2          0.0000
    43 H18       31.6504    37.3878    34.0435 H          2 BB2          0.0000
    44 H19       32.9237    38.4281    34.7255 H          2 BB2          0.0000
@<TRIPOS>BOND
     1      1      2 1
     2      1     13 1
     3      1     14 1
     4      1     15 1
     5      2      3 1
     6      2      4 1
     7      2      5 1
     8      3     16 1
     9      3     17 1
    10      3     18 1
    11      4     19 1
    12      4     20 1
    13      4     21 1
    14      5      6 ar
    15      5     11 ar
    16      6      7 ar
    17      6     22 1
    18      7      8 ar
    19      7     23 1
    20      8      9 ar
    21      8     24 1
    22      9     10 1
    23      9     11 ar
    24     10     25 1
    25     11     12 1
    26     12     26 1
    27     27     28 1
    28     27     35 1
    29     27     36 1
    30     27     37 1
    31     28     29 1
    32     28     38 1
    33     28     39 1
    34     29     30 1
    35     29     32 1
    36     30     31 1
    37     30     40 1
    38     30     41 1
    39     31     42 1
    40     31     43 1
    41     31     44 1
    42     32     33 2
    43     32     34 2
    44     10     32 1
@<TRIPOS>SUBSTRUCTURE
     1 BB1          10
     2 BB2          32
@<TRIPOS>MOLECULE
EN300-153159_i001_EN300-93482_i002_5_15_10
  46   47   2   0   0
SMALL
USER_CHARGES
@<TRIPOS>ATOM
     1 C1        32.0726    38.2405    34.3987 C.3        1 BB1          0.0000
     2 C2        31.0197    38.2022    35.5082 C.3        1 BB1          0.0000
     3 C3        30.9221    39.5800    36.1664 C.3        1 BB1          0.0000
     4 C4        29.6626    37.8252    34.9106 C.3        1 BB1          0.0000
     5 C5        31.4154    37.1790    36.5412 C.ar       1 BB1          0.0000
     6 C6        32.5238    36.3782    36.3320 C.ar       1 BB1          0.0000
     7 C7        32.8905    35.4387    37.2770 C.ar       1 BB1          0.0000
     8 C8        32.1512    35.2944    38.4365 C.ar       1 BB1          0.0000
     9 C9        31.0388    36.0937    38.6531 C.ar       1 BB1          0.0000
    10 N10       30.2888    35.9495    39.8260 N.pl3      1 BB1          0.0000
    11 C11       30.6728    37.0444    37.7021 C.ar       1 BB1          0.0000
    12 O12       29.5828    37.8311    37.9091 O.3        1 BB1          0.0000
    13 H13       33.0394    38.5092    34.8245 H          1 BB1          0.0000
    14 H14       32.1421    37.2591    33.9298 H          1 BB1          0.0000
    15 H15       31.7863    38.9807    33.6516 H          1 BB1          0.0000
    16 H16       30.6359    40.3202    35.4193 H          1 BB1          0.0000
    17 H17       30.1720    39.5527    36.9569 H          1 BB1          0.0000
    18 H18       31.8888    39.8486    36.5921 H          1 BB1          0.0000
    19 H19       29.7321    36.8438    34.4417 H          1 BB1          0.0000
    20 H20       28.9125    37.7980    35.7010 H          1 BB1          0.0000
    21 H21       29.3764    38.5655    34.1634 H          1 BB1          0.0000
    22 H22       33.1040    36.4872    35.4276 H          1 BB1          0.0000
    23 H23       33.7564    34.8154    37.1093 H          1 BB1          0.0000
    24 H24       32.4398    34.5592    39.1732 H          1 BB1          0.0000
    25 H25       30.5467    35.2899    40.4887 H          1 BB1          0.0000
    26 H27       29.0754    37.6001    38.6993 H          1 BB1          0.0000
    27 C1        28.5011    35.7928    41.7715 C.3        2 BB2          0.0000
    28 C2        27.2496    35.8422    40.8927 C.3        2 BB2          0.0000
    29 C3        26.2755    36.8917    41.4401 C.3        2 BB2          0.0000
    30 O4        25.1995    37.0631    40.5145 O.3        2 BB2          0.0000
    31 C5        25.6014    37.5568    39.2345 C.3        2 BB2          0.0000
    32 C6        26.5410    36.5412    38.5742 C.3        2 BB2          0.0000
    33 N7        27.6218    36.2248    39.5214 N.pl3      2 BB2          0.0000
    34 S8        29.2099    36.2975    39.0579 S.o2       2 BB2          0.0000
    35 O9        29.8196    37.2920    39.8694 O.2        2 BB2          0.0000
    36 O10       29.6715    34.9550    38.9954 O.2        2 BB2          0.0000
    37 H12       28.2406    35.3959    42.7527 H          2 BB2          0.0000
    38 H13       29.2471    35.1490    41.3055 H          2 BB2          0.0000
    39 H14       28.9071    36.7982    41.8825 H          2 BB2          0.0000
    40 H15       26.7685    34.8641    40.8838 H          2 BB2          0.0000
    41 H16       25.8808    36.5570    42.3993 H          2 BB2          0.0000
    42 H17       26.7976    37.8396    41.5710 H          2 BB2          0.0000
    43 H18       24.7217    37.7004    38.6070 H          2 BB2          0.0000
    44 H19       26.1210    38.5070    39.3575 H          2 BB2          0.0000
    45 H20       25.9883    35.6337    38.3312 H          2 BB2          0.0000
    46 H21       26.9634    36.9690    37.6649 H          2 BB2          0.0000
@<TRIPOS>BOND
     1      1      2 1
     2      1     13 1
     3      1     14 1
     4      1     15 1
     5      2      3 1
     6      2      4 1
     7      2      5 1
     8      3     16 1
     9      3     17 1
    10      3     18 1
    11      4     19 1
    12      4     20 1
    13      4     21 1
    14      5      6 ar
    15      5     11 ar
    16      6      7 ar
    17      6     22 1
    18      7      8 ar
    19      7     23 1
    20      8      9 ar
    21      8     24 1
    22      9     10 1
    23      9     11 ar
    24     10     25 1
    25     11     12 1
    26     12     26 1
    27     27     28 1
    28     27     37 1
    29     27     38 1
    30     27     39 1
    31     28     29 1
    32     28     33 1
    33     28     40 1
    34     29     30 1
    35     29     41 1
    36     29     42 1
    37     30     31 1
    38     31     32 1
    39     31     43 1
    40     31     44 1
    41     32     33 1
    42     32     45 1
    43     32     46 1
    44     33     34 1
    45     34     35 2
    46     34     36 2
    47     10     34 1
@<TRIPOS>SUBSTRUCTURE
     1 BB1          10
     2 BB2          34
@<TRIPOS>MOLECULE
EN300-153159_i001_EN300-81521_i001_5_5_10
  42   43   2   0   0
SMALL
USER_CHARGES
@<TRIPOS>ATOM
     1 C1        32.0726    38.2405    34.3987 C.3        1 BB1          0.0000
     2 C2        31.0197    38.2022    35.5082 C.3        1 BB1          0.0000
     3 C3        30.9221    39.5800    36.1664 C.3        1 BB1          0.0000
     4 C4        29.6626    37.8252    34.9106 C.3        1 BB1          0.0000
     5 C5        31.4154    37.1790    36.5412 C.ar       1 BB1          0.0000
     6 C6        32.5238    36.3782    36.3320 C.ar       1 BB1          0.0000
     7 C7        32.8905    35.4387    37.2770 C.ar       1 BB1          0.0000
     8 C8        32.1512    35.2944    38.4365 C.ar       1 BB1          0.0000
     9 C9        31.0388    36.0937    38.6531 C.ar       1 BB1          0.0000
    10 N10       30.2888    35.9495    39.8260 N.pl3      1 BB1          0.0000
    11 C11       30.6728    37.0444    37.7021 C.ar       1 BB1          0.0000
    12 O12       29.5828    37.8311    37.9091 O.3        1 BB1          0.0000
    13 H13       33.0394    38.5092    34.8245 H          1 BB1          0.0000
    14 H14       32.1421    37.2591    33.9298 H          1 BB1          0.0000
    15 H15       31.7863    38.9807    33.6516 H          1 BB1          0.0000
    16 H16       30.6359    40.3202    35.4193 H          1 BB1          0.0000
    17 H17       30.1720    39.5527    36.9569 H          1 BB1          0.0000
    18 H18       31.8888    39.8486    36.5921 H          1 BB1          0.0000
    19 H19       29.7321    36.8438    34.4417 H          1 BB1          0.0000
    20 H20       28.9125    37.7980    35.7010 H          1 BB1          0.0000
    21 H21       29.3764    38.5655    34.1634 H          1 BB1          0.0000
    22 H22       33.1040    36.4872    35.4276 H          1 BB1          0.0000
    23 H23       33.7564    34.8154    37.1093 H          1 BB1          0.0000
    24 H24       32.4398    34.5592    39.1732 H          1 BB1          0.0000
    25 H25       30.5467    35.2899    40.4887 H          1 BB1          0.0000
    26 H27       29.0754    37.6001    38.6993 H          1 BB1          0.0000
    27 C1        28.7703    36.2182    41.7836 C.3        2 BB2          0.0000
    28 N2        28.0493    36.2782    40.5097 N.pl3      2 BB2          0.0000
    29 C3        26.5901    36.1496    40.4871 C.3        2 BB2          0.0000
    30 C4        25.7874    37.0423    41.4356 C.3        2 BB2          0.0000
    31 C5        25.7857    37.3269    39.9322 C.3        2 BB2          0.0000
    32 S6        28.8837    36.4914    39.0953 S.o2       2 BB2          0.0000
    33 O7        27.9214    36.4444    38.0507 O.2        2 BB2          0.0000
    34 O8        29.7510    37.5976    39.3038 O.2        2 BB2          0.0000
    35 H10       29.0405    35.1845    41.9998 H          2 BB2          0.0000
    36 H11       29.6742    36.8239    41.7184 H          2 BB2          0.0000
    37 H12       28.1328    36.6013    42.5803 H          2 BB2          0.0000
    38 H13       26.2095    35.1459    40.2978 H          2 BB2          0.0000
    39 H14       24.8785    36.6260    41.8699 H          2 BB2          0.0000
    40 H15       26.3449    37.7253    42.0764 H          2 BB2          0.0000
    41 H16       26.3421    38.1971    39.5841 H          2 BB2          0.0000
    42 H17       24.8757    37.0978    39.3776 H          2 BB2          0.0000
@<TRIPOS>BOND
     1      1      2 1
     2      1     13 1
     3      1     14 1
     4      1     15 1
     5      2      3 1
     6      2      4 1
     7      2      5 1
     8      3     16 1
     9      3     17 1
    10      3     18 1
    11      4     19 1
    12      4     20 1
    13      4     21 1
    14      5      6 ar
    15      5     11 ar
    16      6      7 ar
    17      6     22 1
    18      7      8 ar
    19      7     23 1
    20      8      9 ar
    21      8     24 1
    22      9     10 1
    23      9     11 ar
    24     10     25 1
    25     11     12 1
    26     12     26 1
    27     27     28 1
    28     27     35 1
    29     27     36 1
    30     27     37 1
    31     28     29 1
    32     28     32 1
    33     29     30 1
    34     29     31 1
    35     29     38 1
    36     30     31 1
    37     30     39 1
    38     30     40 1
    39     31     41 1
    40     31     42 1
    41     32     33 2
    42     32     34 2
    43     10     32 1
@<TRIPOS>SUBSTRUCTURE
     1 BB1          10
     2 BB2          32
@<TRIPOS>MOLECULE
EN300-153159_i001_EN300-81521_i001_7_5_10
  42   43   2   0   0
SMALL
USER_CHARGES
@<TRIPOS>ATOM
     1 C1        30.6703    37.4248    35.0510 C.3        1 BB1          0.0000
     2 C2        31.9598    37.1934    35.8413 C.3        1 BB1          0.0000
     3 C3        33.0503    36.6798    34.8989 C.3        1 BB1          0.0000
     4 C4        32.4126    38.5101    36.4756 C.3        1 BB1          0.0000
     5 C5        31.7100    36.1745    36.9231 C.ar       1 BB1          0.0000
     6 C6        32.3534    34.9506    36.8821 C.ar       1 BB1          0.0000
     7 C7        32.1276    34.0133    37.8724 C.ar       1 BB1          0.0000
     8 C8        31.2572    34.2943    38.9093 C.ar       1 BB1          0.0000
     9 C9        30.6085    35.5192    38.9570 C.ar       1 BB1          0.0000
    10 N10       29.7269    35.8059    40.0056 N.pl3      1 BB1          0.0000
    11 C11       30.8409    36.4657    37.9608 C.ar       1 BB1          0.0000
    12 O12       30.2076    37.6686    38.0025 O.3        1 BB1          0.0000
    13 H13       30.3478    36.4868    34.5991 H          1 BB1          0.0000
    14 H14       29.8935    37.7908    35.7223 H          1 BB1          0.0000
    15 H15       30.8511    38.1618    34.2685 H          1 BB1          0.0000
    16 H16       33.2310    37.4167    34.1164 H          1 BB1          0.0000
    17 H17       33.9690    36.5148    35.4620 H          1 BB1          0.0000
    18 H18       32.7278    35.7418    34.4471 H          1 BB1          0.0000
    19 H19       31.6357    38.8760    37.1469 H          1 BB1          0.0000
    20 H20       33.3312    38.3452    37.0386 H          1 BB1          0.0000
    21 H21       32.5932    39.2471    35.6930 H          1 BB1          0.0000
    22 H22       33.0339    34.7267    36.0738 H          1 BB1          0.0000
    23 H23       32.6318    33.0590    37.8361 H          1 BB1          0.0000
    24 H24       31.0821    33.5599    39.6817 H          1 BB1          0.0000
    25 H25       29.5688    35.1476    40.7001 H          1 BB1          0.0000
    26 H27       30.5445    38.3127    37.3647 H          1 BB1          0.0000
    27 C1        28.7703    36.2182    41.7836 C.3        2 BB2          0.0000
    28 N2        28.0493    36.2782    40.5097 N.pl3      2 BB2          0.0000
    29 C3        26.5901    36.1496    40.4871 C.3        2 BB2          0.0000
    30 C4        25.7874    37.0423    41.4356 C.3        2 BB2          0.0000
    31 C5        25.7857    37.3269    39.9322 C.3        2 BB2          0.0000
    32 S6        28.8837    36.4914    39.0953 S.o2       2 BB2          0.0000
    33 O7        27.9214    36.4444    38.0507 O.2        2 BB2          0.0000
    34 O8        29.7510    37.5976    39.3038 O.2        2 BB2          0.0000
    35 H10       29.0405    35.1845    41.9998 H          2 BB2          0.0000
    36 H11       29.6742    36.8239    41.7184 H          2 BB2          0.0000
    37 H12       28.1328    36.6013    42.5803 H          2 BB2          0.0000
    38 H13       26.2095    35.1459    40.2978 H          2 BB2          0.0000
    39 H14       24.8785    36.6260    41.8699 H          2 BB2          0.0000
    40 H15       26.3449    37.7253    42.0764 H          2 BB2          0.0000
    41 H16       26.3421    38.1971    39.5841 H          2 BB2          0.0000
    42 H17       24.8757    37.0978    39.3776 H          2 BB2          0.0000
@<TRIPOS>BOND
     1      1      2 1
     2      1     13 1
     3      1     14 1
     4      1     15 1
     5      2      3 1
     6      2      4 1
     7      2      5 1
     8      3     16 1
     9      3     17 1
    10      3     18 1
    11      4     19 1
    12      4     20 1
    13      4     21 1
    14      5      6 ar
    15      5     11 ar
    16      6      7 ar
    17      6     22 1
    18      7      8 ar
    19      7     23 1
    20      8      9 ar
    21      8     24 1
    22      9     10 1
    23      9     11 ar
    24     10     25 1
    25     11     12 1
    26     12     26 1
    27     27     28 1
    28     27     35 1
    29     27     36 1
    30     27     37 1
    31     28     29 1
    32     28     32 1
    33     29     30 1
    34     29     31 1
    35     29     38 1
    36     30     31 1
    37     30     39 1
    38     30     40 1
    39     31     41 1
    40     31     42 1
    41     32     33 2
    42     32     34 2
    43     10     32 1
@<TRIPOS>SUBSTRUCTURE
     1 BB1          10
     2 BB2          32
@<TRIPOS>MOLECULE
EN300-658808_i001_EN300-81521_i001_10_6_10
  36   37   2   0   0
SMALL
USER_CHARGES
@<TRIPOS>ATOM
     1 C1        25.5015    37.5443    41.1393 C.3        1 BB1          0.0000
     2 C2        26.2661    36.2364    40.9249 C.3        1 BB1          0.0000
     3 C3        27.3258    36.4407    39.8730 C.ar       1 BB1          0.0000
     4 C4        26.9939    37.0168    38.6600 C.ar       1 BB1          0.0000
     5 C5        27.9627    37.2064    37.6927 C.ar       1 BB1          0.0000
     6 C6        29.2687    36.8211    37.9326 C.ar       1 BB1          0.0000
     7 C7        29.6088    36.2428    39.1464 C.ar       1 BB1          0.0000
     8 N8        30.9301    35.8519    39.3917 N.pl3      1 BB1          0.0000
     9 C9        28.6324    36.0568    40.1232 C.ar       1 BB1          0.0000
    10 O10       28.9600    35.4903    41.3155 O.3        1 BB1          0.0000
    11 H11       24.7351    37.3966    41.9002 H          1 BB1          0.0000
    12 H12       26.1936    38.3202    41.4666 H          1 BB1          0.0000
    13 H13       25.0312    37.8478    40.2040 H          1 BB1          0.0000
    14 H14       26.7363    35.9329    41.8602 H          1 BB1          0.0000
    15 H15       25.5741    35.4605    40.5977 H          1 BB1          0.0000
    16 H16       25.9750    37.3190    38.4681 H          1 BB1          0.0000
    17 H17       27.6989    37.6563    36.7469 H          1 BB1          0.0000
    18 H18       30.0237    36.9701    37.1749 H          1 BB1          0.0000
    19 H20       31.1665    35.4474    40.2411 H          1 BB1          0.0000
    20 H21       29.9085    35.3441    41.4342 H          1 BB1          0.0000
    21 C1        32.5096    36.1058    37.8709 C.3        2 BB2          0.0000
    22 N2        31.7215    36.7036    36.7903 N.pl3      2 BB2          0.0000
    23 C3        32.1227    36.5058    35.3952 C.3        2 BB2          0.0000
    24 C4        32.5729    37.7381    34.6080 C.3        2 BB2          0.0000
    25 C5        33.6015    36.6960    35.0518 C.3        2 BB2          0.0000
    26 S6        30.3772    37.6029    37.1455 S.o2       2 BB2          0.0000
    27 O7        29.3299    37.0996    36.3274 O.2        2 BB2          0.0000
    28 O8        30.2964    37.6611    38.5631 O.2        2 BB2          0.0000
    29 H10       33.2843    36.8052    38.1853 H          2 BB2          0.0000
    30 H11       31.8575    35.8823    38.7153 H          2 BB2          0.0000
    31 H12       32.9733    35.1854    37.5163 H          2 BB2          0.0000
    32 H13       31.5751    35.7348    34.8533 H          2 BB2          0.0000
    33 H14       32.3217    37.7777    33.5482 H          2 BB2          0.0000
    34 H15       32.5705    38.6961    35.1281 H          2 BB2          0.0000
    35 H16       34.2758    36.9684    35.8637 H          2 BB2          0.0000
    36 H17       34.0271    36.0501    34.2838 H          2 BB2          0.0000
@<TRIPOS>BOND
     1      1      2 1
     2      1     11 1
     3      1     12 1
     4      1     13 1
     5      2      3 1
     6      2     14 1
     7      2     15 1
     8      3      4 ar
     9      3      9 ar
    10      4      5 ar
    11      4     16 1
    12      5      6 ar
    13      5     17 1
    14      6      7 ar
    15      6     18 1
    16      7      8 1
    17      7      9 ar
    18      8     19 1
    19      9     10 1
    20     10     20 1
    21     21     22 1
    22     21     29 1
    23     21     30 1
    24     21     31 1
    25     22     23 1
    26     22     26 1
    27     23     24 1
    28     23     25 1
    29     23     32 1
    30     24     25 1
    31     24     33 1
    32     24     34 1
    33     25     35 1
    34     25     36 1
    35     26     27 2
    36     26     28 2
    37      8     26 1
@<TRIPOS>SUBSTRUCTURE
     1 BB1           8
     2 BB2          26
@<TRIPOS>MOLECULE
EN300-658808_i001_EN300-23873_i001_10_13_10
  38   38   2   0   0
SMALL
USER_CHARGES
@<TRIPOS>ATOM
     1 C1        25.5015    37.5443    41.1393 C.3        1 BB1          0.0000
     2 C2        26.2661    36.2364    40.9249 C.3        1 BB1          0.0000
     3 C3        27.3258    36.4407    39.8730 C.ar       1 BB1          0.0000
     4 C4        26.9939    37.0168    38.6600 C.ar       1 BB1          0.0000
     5 C5        27.9627    37.2064    37.6927 C.ar       1 BB1          0.0000
     6 C6        29.2687    36.8211    37.9326 C.ar       1 BB1          0.0000
     7 C7        29.6088    36.2428    39.1464 C.ar       1 BB1          0.0000
     8 N8        30.9301    35.8519    39.3917 N.pl3      1 BB1          0.0000
     9 C9        28.6324    36.0568    40.1232 C.ar       1 BB1          0.0000
    10 O10       28.9600    35.4903    41.3155 O.3        1 BB1          0.0000
    11 H11       24.7351    37.3966    41.9002 H          1 BB1          0.0000
    12 H12       26.1936    38.3202    41.4666 H          1 BB1          0.0000
    13 H13       25.0312    37.8478    40.2040 H          1 BB1          0.0000
    14 H14       26.7363    35.9329    41.8602 H          1 BB1          0.0000
    15 H15       25.5741    35.4605    40.5977 H          1 BB1          0.0000
    16 H16       25.9750    37.3190    38.4681 H          1 BB1          0.0000
    17 H17       27.6989    37.6563    36.7469 H          1 BB1          0.0000
    18 H18       30.0237    36.9701    37.1749 H          1 BB1          0.0000
    19 H20       31.1665    35.4474    40.2411 H          1 BB1          0.0000
    20 H21       29.9085    35.3441    41.4342 H          1 BB1          0.0000
    21 C1        32.3602    37.9758    34.4967 C.3        2 BB2          0.0000
    22 C2        31.3846    37.0194    35.1852 C.3        2 BB2          0.0000
    23 N3        31.4105    37.2527    36.6313 N.pl3      2 BB2          0.0000
    24 C4        32.6336    36.9905    37.3938 C.3        2 BB2          0.0000
    25 C5        33.0145    35.5152    37.2554 C.3        2 BB2          0.0000
    26 S6        30.0571    37.8127    37.4040 S.o2       2 BB2          0.0000
    27 O7        28.9437    37.2823    36.6980 O.2        2 BB2          0.0000
    28 O8        30.2705    37.5989    38.7925 O.2        2 BB2          0.0000
    29 H10       32.0672    39.0051    34.7039 H          2 BB2          0.0000
    30 H11       33.3676    37.8017    34.8748 H          2 BB2          0.0000
    31 H12       32.3409    37.8022    33.4208 H          2 BB2          0.0000
    32 H13       30.3772    37.1936    34.8071 H          2 BB2          0.0000
    33 H14       31.6775    35.9902    34.9779 H          2 BB2          0.0000
    34 H15       33.4420    37.6121    37.0088 H          2 BB2          0.0000
    35 H16       32.4639    37.2249    38.4446 H          2 BB2          0.0000
    36 H17       33.9246    35.3201    37.8227 H          2 BB2          0.0000
    37 H18       32.2061    34.8936    37.6404 H          2 BB2          0.0000
    38 H19       33.1842    35.2808    36.2044 H          2 BB2          0.0000
@<TRIPOS>BOND
     1      1      2 1
     2      1     11 1
     3      1     12 1
     4      1     13 1
     5      2      3 1
     6      2     14 1
     7      2     15 1
     8      3      4 ar
     9      3      9 ar
    10      4      5 ar
    11      4     16 1
    12      5      6 ar
    13      5     17 1
    14      6      7 ar
    15      6     18 1
    16      7      8 1
    17      7      9 ar
    18      8     19 1
    19      9     10 1
    20     10     20 1
    21     21     22 1
    22     21     29 1
    23     21     30 1
    24     21     31 1
    25     22     23 1
    26     22     32 1
    27     22     33 1
    28     23     24 1
    29     23     26 1
    30     24     25 1
    31     24     34 1
    32     24     35 1
    33     25     36 1
    34     25     37 1
    35     25     38 1
    36     26     27 2
    37     26     28 2
    38      8     26 1
@<TRIPOS>SUBSTRUCTURE
     1 BB1           8
     2 BB2          26
@<TRIPOS>MOLECULE
EN300-78391_i001_EN300-93482_i002_10_7_10
  37   38   2   0   0
SMALL
USER_CHARGES
@<TRIPOS>ATOM
     1 C1        25.7124    37.5103    38.8091 C.3        1 BB1          0.0000
     2 C2        26.6958    36.9978    39.8296 C.ar       1 BB1          0.0000
     3 C3        26.3242    36.8979    41.1583 C.ar       1 BB1          0.0000
     4 C4        27.2228    36.4280    42.0975 C.ar       1 BB1          0.0000
     5 C5        28.4977    36.0552    41.7136 C.ar       1 BB1          0.0000
     6 C6        28.8772    36.1526    40.3833 C.ar       1 BB1          0.0000
     7 N7        30.1672    35.7760    39.9922 N.pl3      1 BB1          0.0000
     8 C8        27.9689    36.6216    39.4361 C.ar       1 BB1          0.0000
     9 O9        28.3354    36.7193    38.1300 O.3        1 BB1          0.0000
    10 H10       25.8050    38.5933    38.7273 H          1 BB1          0.0000
    11 H11       25.9217    37.0537    37.8417 H          1 BB1          0.0000
    12 H12       24.6996    37.2547    39.1201 H          1 BB1          0.0000
    13 H13       25.3295    37.1883    41.4627 H          1 BB1          0.0000
    14 H14       26.9284    36.3520    43.1338 H          1 BB1          0.0000
    15 H15       29.1979    35.6886    42.4496 H          1 BB1          0.0000
    16 H16       30.7971    35.4462    40.6519 H          1 BB1          0.0000
    17 H18       29.2562    36.4772    37.9607 H          1 BB1          0.0000
    18 C1        30.2769    37.9114    35.0229 C.3        2 BB2          0.0000
    19 C2        31.1039    36.7679    35.6139 C.3        2 BB2          0.0000
    20 C3        32.5961    37.0445    35.3974 C.3        2 BB2          0.0000
    21 O4        33.3634    36.0720    36.1111 O.3        2 BB2          0.0000
    22 C5        33.1781    36.1052    37.5282 C.3        2 BB2          0.0000
    23 C6        31.7157    35.7805    37.8537 C.3        2 BB2          0.0000
    24 N7        30.8547    36.6724    37.0610 N.pl3      2 BB2          0.0000
    25 S8        29.6415    37.5433    37.7763 S.o2       2 BB2          0.0000
    26 O9        29.9961    38.9126    37.6397 O.2        2 BB2          0.0000
    27 O10       28.4200    37.0045    37.2895 O.2        2 BB2          0.0000
    28 H12       30.3713    37.9047    33.9370 H          2 BB2          0.0000
    29 H13       29.2299    37.7821    35.2972 H          2 BB2          0.0000
    30 H14       30.6401    38.8621    35.4133 H          2 BB2          0.0000
    31 H15       30.8307    35.8295    35.1311 H          2 BB2          0.0000
    32 H16       32.8275    36.9821    34.3342 H          2 BB2          0.0000
    33 H17       32.8387    38.0413    35.7657 H          2 BB2          0.0000
    34 H18       33.8282    35.3670    37.9978 H          2 BB2          0.0000
    35 H19       33.4228    37.0987    37.9042 H          2 BB2          0.0000
    36 H20       31.5043    34.7425    37.5970 H          2 BB2          0.0000
    37 H21       31.5316    35.9413    38.9160 H          2 BB2          0.0000
@<TRIPOS>BOND
     1      1      2 1
     2      1     10 1
     3      1     11 1
     4      1     12 1
     5      2      3 ar
     6      2      8 ar
     7      3      4 ar
     8      3     13 1
     9      4      5 ar
    10      4     14 1
    11      5      6 ar
    12      5     15 1
    13      6      7 1
    14      6      8 ar
    15      7     16 1
    16      8      9 1
    17      9     17 1
    18     18     19 1
    19     18     28 1
    20     18     29 1
    21     18     30 1
    22     19     20 1
    23     19     24 1
    24     19     31 1
    25     20     21 1
    26     20     32 1
    27     20     33 1
    28     21     22 1
    29     22     23 1
    30     22     34 1
    31     22     35 1
    32     23     24 1
    33     23     36 1
    34     23     37 1
    35     24     25 1
    36     25     26 2
    37     25     27 2
    38      7     25 1
@<TRIPOS>SUBSTRUCTURE
     1 BB1           7
     2 BB2          25
@<TRIPOS>MOLECULE
EN300-78391_i001_EN300-125264_i004_10_3_10
  43   44   2   0   0
SMALL
USER_CHARGES
@<TRIPOS>ATOM
     1 C1        25.7124    37.5103    38.8091 C.3        1 BB1          0.0000
     2 C2        26.6958    36.9978    39.8296 C.ar       1 BB1          0.0000
     3 C3        26.3242    36.8979    41.1583 C.ar       1 BB1          0.0000
     4 C4        27.2228    36.4280    42.0975 C.ar       1 BB1          0.0000
     5 C5        28.4977    36.0552    41.7136 C.ar       1 BB1          0.0000
     6 C6        28.8772    36.1526    40.3833 C.ar       1 BB1          0.0000
     7 N7        30.1672    35.7760    39.9922 N.pl3      1 BB1          0.0000
     8 C8        27.9689    36.6216    39.4361 C.ar       1 BB1          0.0000
     9 O9        28.3354    36.7193    38.1300 O.3        1 BB1          0.0000
    10 H10       25.8050    38.5933    38.7273 H          1 BB1          0.0000
    11 H11       25.9217    37.0537    37.8417 H          1 BB1          0.0000
    12 H12       24.6996    37.2547    39.1201 H          1 BB1          0.0000
    13 H13       25.3295    37.1883    41.4627 H          1 BB1          0.0000
    14 H14       26.9284    36.3520    43.1338 H          1 BB1          0.0000
    15 H15       29.1979    35.6886    42.4496 H          1 BB1          0.0000
    16 H16       30.7971    35.4462    40.6519 H          1 BB1          0.0000
    17 H18       29.2562    36.4772    37.9607 H          1 BB1          0.0000
    18 C1        29.8470    40.1769    37.0204 C.3        2 BB2          0.0000
    19 O2        29.5265    38.8404    36.5520 O.3        2 BB2          0.0000
    20 C3        30.4062    37.8675    36.8373 C.2        2 BB2          0.0000
    21 O4        31.0770    37.9344    37.8400 O.2        2 BB2          0.0000
    22 C5        30.5572    36.6916    35.9068 C.3        2 BB2          0.0000
    23 C6        30.8471    37.1951    34.4915 C.3        2 BB2          0.0000
    24 C7        32.1411    38.0115    34.4956 C.3        2 BB2          0.0000
    25 C8        33.2984    37.1307    34.9707 C.3        2 BB2          0.0000
    26 C9        33.0085    36.6272    36.3861 C.3        2 BB2          0.0000
    27 C10       31.7145    35.8108    36.3819 C.3        2 BB2          0.0000
    28 S11       31.3707    35.2138    38.0600 S.o2       2 BB2          0.0000
    29 O12       32.4263    35.5702    38.9421 O.2        2 BB2          0.0000
    30 O13       30.0138    35.4543    38.4067 O.2        2 BB2          0.0000
    31 H15       29.0558    40.8653    36.7236 H          2 BB2          0.0000
    32 H16       29.9339    40.1700    38.1069 H          2 BB2          0.0000
    33 H17       30.7918    40.4987    36.5823 H          2 BB2          0.0000
    34 H18       29.6353    36.1099    35.9039 H          2 BB2          0.0000
    35 H19       30.9563    36.3446    33.8186 H          2 BB2          0.0000
    36 H20       30.0227    37.8226    34.1531 H          2 BB2          0.0000
    37 H21       32.3477    38.3703    33.4873 H          2 BB2          0.0000
    38 H22       32.0318    38.8620    35.1686 H          2 BB2          0.0000
    39 H23       33.4075    36.2802    34.2978 H          2 BB2          0.0000
    40 H24       34.2202    37.7124    34.9737 H          2 BB2          0.0000
    41 H25       33.8329    35.9996    36.7245 H          2 BB2          0.0000
    42 H26       32.8992    37.4777    37.0591 H          2 BB2          0.0000
    43 H27       31.8237    34.9602    35.7091 H          2 BB2          0.0000
@<TRIPOS>BOND
     1      1      2 1
     2      1     10 1
     3      1     11 1
     4      1     12 1
     5      2      3 ar
     6      2      8 ar
     7      3      4 ar
     8      3     13 1
     9      4      5 ar
    10      4     14 1
    11      5      6 ar
    12      5     15 1
    13      6      7 1
    14      6      8 ar
    15      7     16 1
    16      8      9 1
    17      9     17 1
    18     18     19 1
    19     18     31 1
    20     18     32 1
    21     18     33 1
    22     19     20 1
    23     20     21 2
    24     20     22 1
    25     22     23 1
    26     22     27 1
    27     22     34 1
    28     23     24 1
    29     23     35 1
    30     23     36 1
    31     24     25 1
    32     24     37 1
    33     24     38 1
    34     25     26 1
    35     25     39 1
    36     25     40 1
    37     26     27 1
    38     26     41 1
    39     26     42 1
    40     27     28 1
    41     27     43 1
    42     28     29 2
    43     28     30 2
    44      7     28 1
@<TRIPOS>SUBSTRUCTURE
     1 BB1           7
     2 BB2          28
@<TRIPOS>MOLECULE
EN300-78391_i001_EN300-81521_i001_11_6_10
  33   34   2   0   0
SMALL
USER_CHARGES
@<TRIPOS>ATOM
     1 C1        25.9886    36.5443    40.9489 C.3        1 BB1          0.0000
     2 C2        27.0594    36.6716    39.8961 C.ar       1 BB1          0.0000
     3 C3        26.7496    37.1986    38.6552 C.ar       1 BB1          0.0000
     4 C4        27.7287    37.3175    37.6868 C.ar       1 BB1          0.0000
     5 C5        29.0228    36.9103    37.9537 C.ar       1 BB1          0.0000
     6 C6        29.3406    36.3811    39.1955 C.ar       1 BB1          0.0000
     7 N7        30.6499    35.9681    39.4681 N.pl3      1 BB1          0.0000
     8 C8        28.3540    36.2664    40.1731 C.ar       1 BB1          0.0000
     9 O9        28.6598    35.7481    41.3928 O.3        1 BB1          0.0000
    10 H10       25.5046    35.5718    40.8591 H          1 BB1          0.0000
    11 H11       26.4384    36.6365    41.9375 H          1 BB1          0.0000
    12 H12       25.2484    37.3325    40.8115 H          1 BB1          0.0000
    13 H13       25.7400    37.5176    38.4422 H          1 BB1          0.0000
    14 H14       27.4822    37.7292    36.7193 H          1 BB1          0.0000
    15 H15       29.7858    37.0041    37.1952 H          1 BB1          0.0000
    16 H17       30.8707    35.5981    40.3372 H          1 BB1          0.0000
    17 H18       29.5944    35.5254    41.5024 H          1 BB1          0.0000
    18 C1        32.5096    36.1058    37.8709 C.3        2 BB2          0.0000
    19 N2        31.7215    36.7036    36.7903 N.pl3      2 BB2          0.0000
    20 C3        32.1227    36.5058    35.3952 C.3        2 BB2          0.0000
    21 C4        32.5729    37.7381    34.6080 C.3        2 BB2          0.0000
    22 C5        33.6015    36.6960    35.0518 C.3        2 BB2          0.0000
    23 S6        30.3772    37.6029    37.1455 S.o2       2 BB2          0.0000
    24 O7        29.3299    37.0996    36.3274 O.2        2 BB2          0.0000
    25 O8        30.2964    37.6611    38.5631 O.2        2 BB2          0.0000
    26 H10       33.2843    36.8052    38.1853 H          2 BB2          0.0000
    27 H11       31.8575    35.8823    38.7153 H          2 BB2          0.0000
    28 H12       32.9733    35.1854    37.5163 H          2 BB2          0.0000
    29 H13       31.5751    35.7348    34.8533 H          2 BB2          0.0000
    30 H14       32.3217    37.7777    33.5482 H          2 BB2          0.0000
    31 H15       32.5705    38.6961    35.1281 H          2 BB2          0.0000
    32 H16       34.2758    36.9684    35.8637 H          2 BB2          0.0000
    33 H17       34.0271    36.0501    34.2838 H          2 BB2          0.0000
@<TRIPOS>BOND
     1      1      2 1
     2      1     10 1
     3      1     11 1
     4      1     12 1
     5      2      3 ar
     6      2      8 ar
     7      3      4 ar
     8      3     13 1
     9      4      5 ar
    10      4     14 1
    11      5      6 ar
    12      5     15 1
    13      6      7 1
    14      6      8 ar
    15      7     16 1
    16      8      9 1
    17      9     17 1
    18     18     19 1
    19     18     26 1
    20     18     27 1
    21     18     28 1
    22     19     20 1
    23     19     23 1
    24     20     21 1
    25     20     22 1
    26     20     29 1
    27     21     22 1
    28     21     30 1
    29     21     31 1
    30     22     32 1
    31     22     33 1
    32     23     24 2
    33     23     25 2
    34      7     23 1
@<TRIPOS>SUBSTRUCTURE
     1 BB1           7
     2 BB2          23
@<TRIPOS>MOLECULE
EN300-78391_i001_EN300-81521_i001_15_6_10
  33   34   2   0   0
SMALL
USER_CHARGES
@<TRIPOS>ATOM
     1 C1        28.5098    35.9664    42.0995 C.3        1 BB1          0.0000
     2 C2        28.0339    36.3432    40.7201 C.ar       1 BB1          0.0000
     3 C3        26.6880    36.5642    40.4895 C.ar       1 BB1          0.0000
     4 C4        26.2472    36.9104    39.2260 C.ar       1 BB1          0.0000
     5 C5        27.1496    37.0377    38.1862 C.ar       1 BB1          0.0000
     6 C6        28.5004    36.8177    38.4100 C.ar       1 BB1          0.0000
     7 N7        29.4158    36.9459    37.3590 N.pl3      1 BB1          0.0000
     8 C8        28.9446    36.4738    39.6853 C.ar       1 BB1          0.0000
     9 O9        30.2681    36.2569    39.9108 O.3        1 BB1          0.0000
    10 H10       28.5006    34.8815    42.2031 H          1 BB1          0.0000
    11 H11       29.5241    36.3370    42.2476 H          1 BB1          0.0000
    12 H12       27.8489    36.4083    42.8451 H          1 BB1          0.0000
    13 H13       25.9795    36.4655    41.2987 H          1 BB1          0.0000
    14 H14       25.1954    37.0816    39.0506 H          1 BB1          0.0000
    15 H15       26.8024    37.3079    37.1998 H          1 BB1          0.0000
    16 H16       29.1056    37.1889    36.4726 H          1 BB1          0.0000
    17 H18       30.4509    35.7194    40.6936 H          1 BB1          0.0000
    18 C1        32.5096    36.1058    37.8709 C.3        2 BB2          0.0000
    19 N2        31.7215    36.7036    36.7903 N.pl3      2 BB2          0.0000
    20 C3        32.1227    36.5058    35.3952 C.3        2 BB2          0.0000
    21 C4        32.5729    37.7381    34.6080 C.3        2 BB2          0.0000
    22 C5        33.6015    36.6960    35.0518 C.3        2 BB2          0.0000
    23 S6        30.3772    37.6029    37.1455 S.o2       2 BB2          0.0000
    24 O7        29.3299    37.0996    36.3274 O.2        2 BB2          0.0000
    25 O8        30.2964    37.6611    38.5631 O.2        2 BB2          0.0000
    26 H10       33.2843    36.8052    38.1853 H          2 BB2          0.0000
    27 H11       31.8575    35.8823    38.7153 H          2 BB2          0.0000
    28 H12       32.9733    35.1854    37.5163 H          2 BB2          0.0000
    29 H13       31.5751    35.7348    34.8533 H          2 BB2          0.0000
    30 H14       32.3217    37.7777    33.5482 H          2 BB2          0.0000
    31 H15       32.5705    38.6961    35.1281 H          2 BB2          0.0000
    32 H16       34.2758    36.9684    35.8637 H          2 BB2          0.0000
    33 H17       34.0271    36.0501    34.2838 H          2 BB2          0.0000
@<TRIPOS>BOND
     1      1      2 1
     2      1     10 1
     3      1     11 1
     4      1     12 1
     5      2      3 ar
     6      2      8 ar
     7      3      4 ar
     8      3     13 1
     9      4      5 ar
    10      4     14 1
    11      5      6 ar
    12      5     15 1
    13      6      7 1
    14      6      8 ar
    15      7     16 1
    16      8      9 1
    17      9     17 1
    18     18     19 1
    19     18     26 1
    20     18     27 1
    21     18     28 1
    22     19     20 1
    23     19     23 1
    24     20     21 1
    25     20     22 1
    26     20     29 1
    27     21     22 1
    28     21     30 1
    29     21     31 1
    30     22     32 1
    31     22     33 1
    32     23     24 2
    33     23     25 2
    34      7     23 1
@<TRIPOS>SUBSTRUCTURE
     1 BB1           7
     2 BB2          23
@<TRIPOS>MOLECULE
EN300-78391_i001_EN300-23873_i001_15_12_10
  35   35   2   0   0
SMALL
USER_CHARGES
@<TRIPOS>ATOM
     1 C1        28.5098    35.9664    42.0995 C.3        1 BB1          0.0000
     2 C2        28.0339    36.3432    40.7201 C.ar       1 BB1          0.0000
     3 C3        26.6880    36.5642    40.4895 C.ar       1 BB1          0.0000
     4 C4        26.2472    36.9104    39.2260 C.ar       1 BB1          0.0000
     5 C5        27.1496    37.0377    38.1862 C.ar       1 BB1          0.0000
     6 C6        28.5004    36.8177    38.4100 C.ar       1 BB1          0.0000
     7 N7        29.4158    36.9459    37.3590 N.pl3      1 BB1          0.0000
     8 C8        28.9446    36.4738    39.6853 C.ar       1 BB1          0.0000
     9 O9        30.2681    36.2569    39.9108 O.3        1 BB1          0.0000
    10 H10       28.5006    34.8815    42.2031 H          1 BB1          0.0000
    11 H11       29.5241    36.3370    42.2476 H          1 BB1          0.0000
    12 H12       27.8489    36.4083    42.8451 H          1 BB1          0.0000
    13 H13       25.9795    36.4655    41.2987 H          1 BB1          0.0000
    14 H14       25.1954    37.0816    39.0506 H          1 BB1          0.0000
    15 H15       26.8024    37.3079    37.1998 H          1 BB1          0.0000
    16 H16       29.1056    37.1889    36.4726 H          1 BB1          0.0000
    17 H18       30.4509    35.7194    40.6936 H          1 BB1          0.0000
    18 C1        32.1237    34.4707    37.6796 C.3        2 BB2          0.0000
    19 C2        32.3911    35.9674    37.8497 C.3        2 BB2          0.0000
    20 N3        32.1314    36.6569    36.5835 N.pl3      2 BB2          0.0000
    21 C4        32.9757    36.3884    35.4167 C.3        2 BB2          0.0000
    22 C5        32.6994    37.4352    34.3356 C.3        2 BB2          0.0000
    23 S6        30.8836    37.7399    36.4710 S.o2       2 BB2          0.0000
    24 O7        31.4766    39.0294    36.4021 O.2        2 BB2          0.0000
    25 O8        30.0028    37.2353    35.4767 O.2        2 BB2          0.0000
    26 H10       31.0842    34.3179    37.3893 H          2 BB2          0.0000
    27 H11       32.7795    34.0699    36.9066 H          2 BB2          0.0000
    28 H12       32.3169    33.9577    38.6218 H          2 BB2          0.0000
    29 H13       31.7352    36.3681    38.6227 H          2 BB2          0.0000
    30 H14       33.4304    36.1202    38.1401 H          2 BB2          0.0000
    31 H15       34.0248    36.4357    35.7087 H          2 BB2          0.0000
    32 H16       32.7515    35.3955    35.0268 H          2 BB2          0.0000
    33 H17       33.3277    37.2355    33.4674 H          2 BB2          0.0000
    34 H18       31.6504    37.3878    34.0435 H          2 BB2          0.0000
    35 H19       32.9237    38.4281    34.7255 H          2 BB2          0.0000
@<TRIPOS>BOND
     1      1      2 1
     2      1     10 1
     3      1     11 1
     4      1     12 1
     5      2      3 ar
     6      2      8 ar
     7      3      4 ar
     8      3     13 1
     9      4      5 ar
    10      4     14 1
    11      5      6 ar
    12      5     15 1
    13      6      7 1
    14      6      8 ar
    15      7     16 1
    16      8      9 1
    17      9     17 1
    18     18     19 1
    19     18     26 1
    20     18     27 1
    21     18     28 1
    22     19     20 1
    23     19     29 1
    24     19     30 1
    25     20     21 1
    26     20     23 1
    27     21     22 1
    28     21     31 1
    29     21     32 1
    30     22     33 1
    31     22     34 1
    32     22     35 1
    33     23     24 2
    34     23     25 2
    35      7     23 1
@<TRIPOS>SUBSTRUCTURE
     1 BB1           7
     2 BB2          23
@<TRIPOS>MOLECULE
EN300-78391_i001_EN300-96185_i001_17_7_10
  34   35   2   0   0
SMALL
USER_CHARGES
@<TRIPOS>ATOM
     1 C1        25.2941    36.9966    41.5142 C.3        1 BB1          0.0000
     2 C2        26.6104    36.8150    40.8031 C.ar       1 BB1          0.0000
     3 C3        27.7070    36.3288    41.4920 C.ar       1 BB1          0.0000
     4 C4        28.9160    36.1603    40.8437 C.ar       1 BB1          0.0000
     5 C5        29.0353    36.4766    39.5030 C.ar       1 BB1          0.0000
     6 C6        27.9401    36.9644    38.8059 C.ar       1 BB1          0.0000
     7 N7        28.0584    37.2855    37.4488 N.pl3      1 BB1          0.0000
     8 C8        26.7202    37.1292    39.4591 C.ar       1 BB1          0.0000
     9 O9        25.6427    37.6072    38.7806 O.3        1 BB1          0.0000
    10 H10       25.2448    38.0003    41.9363 H          1 BB1          0.0000
    11 H11       24.4768    36.8596    40.8062 H          1 BB1          0.0000
    12 H12       25.2089    36.2614    42.3143 H          1 BB1          0.0000
    13 H13       27.6184    36.0808    42.5394 H          1 BB1          0.0000
    14 H14       29.7695    35.7808    41.3857 H          1 BB1          0.0000
    15 H15       29.9812    36.3443    38.9989 H          1 BB1          0.0000
    16 H17       27.2915    37.6266    36.9624 H          1 BB1          0.0000
    17 H18       25.7721    37.6597    37.8238 H          1 BB1          0.0000
    18 S2        29.6389    36.4931    38.6247 S.o2       2 BB2          0.0000
    19 O3        30.2908    35.2313    38.5779 O.2        2 BB2          0.0000
    20 O4        28.3744    36.6879    38.0065 O.2        2 BB2          0.0000
    21 C5        30.7857    37.8196    38.1599 C.3        2 BB2          0.0000
    22 C6        31.7457    37.3108    37.1156 C.ar       2 BB2          0.0000
    23 C7        32.6088    36.2737    37.4166 C.ar       2 BB2          0.0000
    24 C8        33.4889    35.8067    36.4587 C.ar       2 BB2          0.0000
    25 C9        33.5069    36.3767    35.1991 C.ar       2 BB2          0.0000
    26 C10       32.6445    37.4134    34.8973 C.ar       2 BB2          0.0000
    27 C11       31.7593    37.8775    35.8540 C.ar       2 BB2          0.0000
    28 Br12      30.5789    39.2960    35.4416 Br         2 BB2          0.0000
    29 H13       30.2231    38.6617    37.7568 H          2 BB2          0.0000
    30 H14       31.3431    38.1427    39.0391 H          2 BB2          0.0000
    31 H15       32.5956    35.8286    38.4006 H          2 BB2          0.0000
    32 H16       34.1632    34.9964    36.6943 H          2 BB2          0.0000
    33 H17       34.1953    36.0119    34.4512 H          2 BB2          0.0000
    34 H18       32.6588    37.8588    33.9136 H          2 BB2          0.0000
@<TRIPOS>BOND
     1      1      2 1
     2      1     10 1
     3      1     11 1
     4      1     12 1
     5      2      3 ar
     6      2      8 ar
     7      3      4 ar
     8      3     13 1
     9      4      5 ar
    10      4     14 1
    11      5      6 ar
    12      5     15 1
    13      6      7 1
    14      6      8 ar
    15      7     16 1
    16      8      9 1
    17      9     17 1
    18     18     19 2
    19     18     20 2
    20     18     21 1
    21     21     22 1
    22     21     29 1
    23     21     30 1
    24     22     23 ar
    25     22     27 ar
    26     23     24 ar
    27     23     31 1
    28     24     25 ar
    29     24     32 1
    30     25     26 ar
    31     25     33 1
    32     26     27 ar
    33     26     34 1
    34     27     28 1
    35      7     18 1
@<TRIPOS>SUBSTRUCTURE
     1 BB1           7
     2 BB2          18
@<TRIPOS>MOLECULE
EN300-78391_i001_EN300-93482_i002_17_11_10
  37   38   2   0   0
SMALL
USER_CHARGES
@<TRIPOS>ATOM
     1 C1        25.2941    36.9966    41.5142 C.3        1 BB1          0.0000
     2 C2        26.6104    36.8150    40.8031 C.ar       1 BB1          0.0000
     3 C3        27.7070    36.3288    41.4920 C.ar       1 BB1          0.0000
     4 C4        28.9160    36.1603    40.8437 C.ar       1 BB1          0.0000
     5 C5        29.0353    36.4766    39.5030 C.ar       1 BB1          0.0000
     6 C6        27.9401    36.9644    38.8059 C.ar       1 BB1          0.0000
     7 N7        28.0584    37.2855    37.4488 N.pl3      1 BB1          0.0000
     8 C8        26.7202    37.1292    39.4591 C.ar       1 BB1          0.0000
     9 O9        25.6427    37.6072    38.7806 O.3        1 BB1          0.0000
    10 H10       25.2448    38.0003    41.9363 H          1 BB1          0.0000
    11 H11       24.4768    36.8596    40.8062 H          1 BB1          0.0000
    12 H12       25.2089    36.2614    42.3143 H          1 BB1          0.0000
    13 H13       27.6184    36.0808    42.5394 H          1 BB1          0.0000
    14 H14       29.7695    35.7808    41.3857 H          1 BB1          0.0000
    15 H15       29.9812    36.3443    38.9989 H          1 BB1          0.0000
    16 H17       27.2915    37.6266    36.9624 H          1 BB1          0.0000
    17 H18       25.7721    37.6597    37.8238 H          1 BB1          0.0000
    18 C1        31.1529    35.2755    38.5577 C.3        2 BB2          0.0000
    19 C2        32.2013    36.0944    37.8020 C.3        2 BB2          0.0000
    20 C3        32.7621    35.2679    36.6391 C.3        2 BB2          0.0000
    21 O4        33.5985    36.0995    35.8311 O.3        2 BB2          0.0000
    22 C5        32.9161    37.1954    35.2168 C.3        2 BB2          0.0000
    23 C6        32.3632    38.1205    36.3070 C.3        2 BB2          0.0000
    24 N7        31.5788    37.3086    37.2508 N.pl3      2 BB2          0.0000
    25 S8        30.0409    37.7479    37.6797 S.o2       2 BB2          0.0000
    26 O9        29.1634    36.9965    36.8522 O.2        2 BB2          0.0000
    27 O10       29.9938    37.7095    39.0994 O.2        2 BB2          0.0000
    28 H12       31.6389    34.4410    39.0633 H          2 BB2          0.0000
    29 H13       30.6590    35.9088    39.2946 H          2 BB2          0.0000
    30 H14       30.4139    34.8930    37.8536 H          2 BB2          0.0000
    31 H15       33.0095    36.3706    38.4793 H          2 BB2          0.0000
    32 H16       33.3465    34.4361    37.0321 H          2 BB2          0.0000
    33 H17       31.9396    34.8833    36.0360 H          2 BB2          0.0000
    34 H18       33.6114    37.7500    34.5867 H          2 BB2          0.0000
    35 H19       32.0942    36.8176    34.6086 H          2 BB2          0.0000
    36 H20       33.1878    38.6012    36.8334 H          2 BB2          0.0000
    37 H21       31.7235    38.8787    35.8553 H          2 BB2          0.0000
@<TRIPOS>BOND
     1      1      2 1
     2      1     10 1
     3      1     11 1
     4      1     12 1
     5      2      3 ar
     6      2      8 ar
     7      3      4 ar
     8      3     13 1
     9      4      5 ar
    10      4     14 1
    11      5      6 ar
    12      5     15 1
    13      6      7 1
    14      6      8 ar
    15      7     16 1
    16      8      9 1
    17      9     17 1
    18     18     19 1
    19     18     28 1
    20     18     29 1
    21     18     30 1
    22     19     20 1
    23     19     24 1
    24     19     31 1
    25     20     21 1
    26     20     32 1
    27     20     33 1
    28     21     22 1
    29     22     23 1
    30     22     34 1
    31     22     35 1
    32     23     24 1
    33     23     36 1
    34     23     37 1
    35     24     25 1
    36     25     26 2
    37     25     27 2
    38      7     25 1
@<TRIPOS>SUBSTRUCTURE
     1 BB1           7
     2 BB2          25
@<TRIPOS>MOLECULE
EN300-78391_i001_EN300-93482_i002_17_7_10
  37   38   2   0   0
SMALL
USER_CHARGES
@<TRIPOS>ATOM
     1 C1        25.2941    36.9966    41.5142 C.3        1 BB1          0.0000
     2 C2        26.6104    36.8150    40.8031 C.ar       1 BB1          0.0000
     3 C3        27.7070    36.3288    41.4920 C.ar       1 BB1          0.0000
     4 C4        28.9160    36.1603    40.8437 C.ar       1 BB1          0.0000
     5 C5        29.0353    36.4766    39.5030 C.ar       1 BB1          0.0000
     6 C6        27.9401    36.9644    38.8059 C.ar       1 BB1          0.0000
     7 N7        28.0584    37.2855    37.4488 N.pl3      1 BB1          0.0000
     8 C8        26.7202    37.1292    39.4591 C.ar       1 BB1          0.0000
     9 O9        25.6427    37.6072    38.7806 O.3        1 BB1          0.0000
    10 H10       25.2448    38.0003    41.9363 H          1 BB1          0.0000
    11 H11       24.4768    36.8596    40.8062 H          1 BB1          0.0000
    12 H12       25.2089    36.2614    42.3143 H          1 BB1          0.0000
    13 H13       27.6184    36.0808    42.5394 H          1 BB1          0.0000
    14 H14       29.7695    35.7808    41.3857 H          1 BB1          0.0000
    15 H15       29.9812    36.3443    38.9989 H          1 BB1          0.0000
    16 H17       27.2915    37.6266    36.9624 H          1 BB1          0.0000
    17 H18       25.7721    37.6597    37.8238 H          1 BB1          0.0000
    18 C1        30.2769    37.9114    35.0229 C.3        2 BB2          0.0000
    19 C2        31.1039    36.7679    35.6139 C.3        2 BB2          0.0000
    20 C3        32.5961    37.0445    35.3974 C.3        2 BB2          0.0000
    21 O4        33.3634    36.0720    36.1111 O.3        2 BB2          0.0000
    22 C5        33.1781    36.1052    37.5282 C.3        2 BB2          0.0000
    23 C6        31.7157    35.7805    37.8537 C.3        2 BB2          0.0000
    24 N7        30.8547    36.6724    37.0610 N.pl3      2 BB2          0.0000
    25 S8        29.6415    37.5433    37.7763 S.o2       2 BB2          0.0000
    26 O9        29.9961    38.9126    37.6397 O.2        2 BB2          0.0000
    27 O10       28.4200    37.0045    37.2895 O.2        2 BB2          0.0000
    28 H12       30.3713    37.9047    33.9370 H          2 BB2          0.0000
    29 H13       29.2299    37.7821    35.2972 H          2 BB2          0.0000
    30 H14       30.6401    38.8621    35.4133 H          2 BB2          0.0000
    31 H15       30.8307    35.8295    35.1311 H          2 BB2          0.0000
    32 H16       32.8275    36.9821    34.3342 H          2 BB2          0.0000
    33 H17       32.8387    38.0413    35.7657 H          2 BB2          0.0000
    34 H18       33.8282    35.3670    37.9978 H          2 BB2          0.0000
    35 H19       33.4228    37.0987    37.9042 H          2 BB2          0.0000
    36 H20       31.5043    34.7425    37.5970 H          2 BB2          0.0000
    37 H21       31.5316    35.9413    38.9160 H          2 BB2          0.0000
@<TRIPOS>BOND
     1      1      2 1
     2      1     10 1
     3      1     11 1
     4      1     12 1
     5      2      3 ar
     6      2      8 ar
     7      3      4 ar
     8      3     13 1
     9      4      5 ar
    10      4     14 1
    11      5      6 ar
    12      5     15 1
    13      6      7 1
    14      6      8 ar
    15      7     16 1
    16      8      9 1
    17      9     17 1
    18     18     19 1
    19     18     28 1
    20     18     29 1
    21     18     30 1
    22     19     20 1
    23     19     24 1
    24     19     31 1
    25     20     21 1
    26     20     32 1
    27     20     33 1
    28     21     22 1
    29     22     23 1
    30     22     34 1
    31     22     35 1
    32     23     24 1
    33     23     36 1
    34     23     37 1
    35     24     25 1
    36     25     26 2
    37     25     27 2
    38      7     25 1
@<TRIPOS>SUBSTRUCTURE
     1 BB1           7
     2 BB2          25
@<TRIPOS>MOLECULE
EN300-78391_i001_EN300-81521_i001_17_6_10
  33   34   2   0   0
SMALL
USER_CHARGES
@<TRIPOS>ATOM
     1 C1        25.2941    36.9966    41.5142 C.3        1 BB1          0.0000
     2 C2        26.6104    36.8150    40.8031 C.ar       1 BB1          0.0000
     3 C3        27.7070    36.3288    41.4920 C.ar       1 BB1          0.0000
     4 C4        28.9160    36.1603    40.8437 C.ar       1 BB1          0.0000
     5 C5        29.0353    36.4766    39.5030 C.ar       1 BB1          0.0000
     6 C6        27.9401    36.9644    38.8059 C.ar       1 BB1          0.0000
     7 N7        28.0584    37.2855    37.4488 N.pl3      1 BB1          0.0000
     8 C8        26.7202    37.1292    39.4591 C.ar       1 BB1          0.0000
     9 O9        25.6427    37.6072    38.7806 O.3        1 BB1          0.0000
    10 H10       25.2448    38.0003    41.9363 H          1 BB1          0.0000
    11 H11       24.4768    36.8596    40.8062 H          1 BB1          0.0000
    12 H12       25.2089    36.2614    42.3143 H          1 BB1          0.0000
    13 H13       27.6184    36.0808    42.5394 H          1 BB1          0.0000
    14 H14       29.7695    35.7808    41.3857 H          1 BB1          0.0000
    15 H15       29.9812    36.3443    38.9989 H          1 BB1          0.0000
    16 H17       27.2915    37.6266    36.9624 H          1 BB1          0.0000
    17 H18       25.7721    37.6597    37.8238 H          1 BB1          0.0000
    18 C1        32.5096    36.1058    37.8709 C.3        2 BB2          0.0000
    19 N2        31.7215    36.7036    36.7903 N.pl3      2 BB2          0.0000
    20 C3        32.1227    36.5058    35.3952 C.3        2 BB2          0.0000
    21 C4        32.5729    37.7381    34.6080 C.3        2 BB2          0.0000
    22 C5        33.6015    36.6960    35.0518 C.3        2 BB2          0.0000
    23 S6        30.3772    37.6029    37.1455 S.o2       2 BB2          0.0000
    24 O7        29.3299    37.0996    36.3274 O.2        2 BB2          0.0000
    25 O8        30.2964    37.6611    38.5631 O.2        2 BB2          0.0000
    26 H10       33.2843    36.8052    38.1853 H          2 BB2          0.0000
    27 H11       31.8575    35.8823    38.7153 H          2 BB2          0.0000
    28 H12       32.9733    35.1854    37.5163 H          2 BB2          0.0000
    29 H13       31.5751    35.7348    34.8533 H          2 BB2          0.0000
    30 H14       32.3217    37.7777    33.5482 H          2 BB2          0.0000
    31 H15       32.5705    38.6961    35.1281 H          2 BB2          0.0000
    32 H16       34.2758    36.9684    35.8637 H          2 BB2          0.0000
    33 H17       34.0271    36.0501    34.2838 H          2 BB2          0.0000
@<TRIPOS>BOND
     1      1      2 1
     2      1     10 1
     3      1     11 1
     4      1     12 1
     5      2      3 ar
     6      2      8 ar
     7      3      4 ar
     8      3     13 1
     9      4      5 ar
    10      4     14 1
    11      5      6 ar
    12      5     15 1
    13      6      7 1
    14      6      8 ar
    15      7     16 1
    16      8      9 1
    17      9     17 1
    18     18     19 1
    19     18     26 1
    20     18     27 1
    21     18     28 1
    22     19     20 1
    23     19     23 1
    24     20     21 1
    25     20     22 1
    26     20     29 1
    27     21     22 1
    28     21     30 1
    29     21     31 1
    30     22     32 1
    31     22     33 1
    32     23     24 2
    33     23     25 2
    34      7     23 1
@<TRIPOS>SUBSTRUCTURE
     1 BB1           7
     2 BB2          23
@<TRIPOS>MOLECULE
EN300-78391_i001_EN300-23873_i001_17_13_10
  35   35   2   0   0
SMALL
USER_CHARGES
@<TRIPOS>ATOM
     1 C1        25.2941    36.9966    41.5142 C.3        1 BB1          0.0000
     2 C2        26.6104    36.8150    40.8031 C.ar       1 BB1          0.0000
     3 C3        27.7070    36.3288    41.4920 C.ar       1 BB1          0.0000
     4 C4        28.9160    36.1603    40.8437 C.ar       1 BB1          0.0000
     5 C5        29.0353    36.4766    39.5030 C.ar       1 BB1          0.0000
     6 C6        27.9401    36.9644    38.8059 C.ar       1 BB1          0.0000
     7 N7        28.0584    37.2855    37.4488 N.pl3      1 BB1          0.0000
     8 C8        26.7202    37.1292    39.4591 C.ar       1 BB1          0.0000
     9 O9        25.6427    37.6072    38.7806 O.3        1 BB1          0.0000
    10 H10       25.2448    38.0003    41.9363 H          1 BB1          0.0000
    11 H11       24.4768    36.8596    40.8062 H          1 BB1          0.0000
    12 H12       25.2089    36.2614    42.3143 H          1 BB1          0.0000
    13 H13       27.6184    36.0808    42.5394 H          1 BB1          0.0000
    14 H14       29.7695    35.7808    41.3857 H          1 BB1          0.0000
    15 H15       29.9812    36.3443    38.9989 H          1 BB1          0.0000
    16 H17       27.2915    37.6266    36.9624 H          1 BB1          0.0000
    17 H18       25.7721    37.6597    37.8238 H          1 BB1          0.0000
    18 C1        32.3602    37.9758    34.4967 C.3        2 BB2          0.0000
    19 C2        31.3846    37.0194    35.1852 C.3        2 BB2          0.0000
    20 N3        31.4105    37.2527    36.6313 N.pl3      2 BB2          0.0000
    21 C4        32.6336    36.9905    37.3938 C.3        2 BB2          0.0000
    22 C5        33.0145    35.5152    37.2554 C.3        2 BB2          0.0000
    23 S6        30.0571    37.8127    37.4040 S.o2       2 BB2          0.0000
    24 O7        28.9437    37.2823    36.6980 O.2        2 BB2          0.0000
    25 O8        30.2705    37.5989    38.7925 O.2        2 BB2          0.0000
    26 H10       32.0672    39.0051    34.7039 H          2 BB2          0.0000
    27 H11       33.3676    37.8017    34.8748 H          2 BB2          0.0000
    28 H12       32.3409    37.8022    33.4208 H          2 BB2          0.0000
    29 H13       30.3772    37.1936    34.8071 H          2 BB2          0.0000
    30 H14       31.6775    35.9902    34.9779 H          2 BB2          0.0000
    31 H15       33.4420    37.6121    37.0088 H          2 BB2          0.0000
    32 H16       32.4639    37.2249    38.4446 H          2 BB2          0.0000
    33 H17       33.9246    35.3201    37.8227 H          2 BB2          0.0000
    34 H18       32.2061    34.8936    37.6404 H          2 BB2          0.0000
    35 H19       33.1842    35.2808    36.2044 H          2 BB2          0.0000
@<TRIPOS>BOND
     1      1      2 1
     2      1     10 1
     3      1     11 1
     4      1     12 1
     5      2      3 ar
     6      2      8 ar
     7      3      4 ar
     8      3     13 1
     9      4      5 ar
    10      4     14 1
    11      5      6 ar
    12      5     15 1
    13      6      7 1
    14      6      8 ar
    15      7     16 1
    16      8      9 1
    17      9     17 1
    18     18     19 1
    19     18     26 1
    20     18     27 1
    21     18     28 1
    22     19     20 1
    23     19     29 1
    24     19     30 1
    25     20     21 1
    26     20     23 1
    27     21     22 1
    28     21     31 1
    29     21     32 1
    30     22     33 1
    31     22     34 1
    32     22     35 1
    33     23     24 2
    34     23     25 2
    35      7     23 1
@<TRIPOS>SUBSTRUCTURE
     1 BB1           7
     2 BB2          23
@<TRIPOS>MOLECULE
EN300-78391_i001_EN300-125264_i004_17_11_10
  43   44   2   0   0
SMALL
USER_CHARGES
@<TRIPOS>ATOM
     1 C1        25.2941    36.9966    41.5142 C.3        1 BB1          0.0000
     2 C2        26.6104    36.8150    40.8031 C.ar       1 BB1          0.0000
     3 C3        27.7070    36.3288    41.4920 C.ar       1 BB1          0.0000
     4 C4        28.9160    36.1603    40.8437 C.ar       1 BB1          0.0000
     5 C5        29.0353    36.4766    39.5030 C.ar       1 BB1          0.0000
     6 C6        27.9401    36.9644    38.8059 C.ar       1 BB1          0.0000
     7 N7        28.0584    37.2855    37.4488 N.pl3      1 BB1          0.0000
     8 C8        26.7202    37.1292    39.4591 C.ar       1 BB1          0.0000
     9 O9        25.6427    37.6072    38.7806 O.3        1 BB1          0.0000
    10 H10       25.2448    38.0003    41.9363 H          1 BB1          0.0000
    11 H11       24.4768    36.8596    40.8062 H          1 BB1          0.0000
    12 H12       25.2089    36.2614    42.3143 H          1 BB1          0.0000
    13 H13       27.6184    36.0808    42.5394 H          1 BB1          0.0000
    14 H14       29.7695    35.7808    41.3857 H          1 BB1          0.0000
    15 H15       29.9812    36.3443    38.9989 H          1 BB1          0.0000
    16 H17       27.2915    37.6266    36.9624 H          1 BB1          0.0000
    17 H18       25.7721    37.6597    37.8238 H          1 BB1          0.0000
    18 C1        30.5001    34.2599    38.5373 C.3        2 BB2          0.0000
    19 O2        30.8333    35.6140    38.1329 O.3        2 BB2          0.0000
    20 C3        32.0043    35.7905    37.5008 C.2        2 BB2          0.0000
    21 O4        32.6334    34.8334    37.1160 O.2        2 BB2          0.0000
    22 C5        32.5343    37.1825    37.2711 C.3        2 BB2          0.0000
    23 C6        33.8795    37.1029    36.5467 C.3        2 BB2          0.0000
    24 C7        33.6932    36.3996    35.2007 C.3        2 BB2          0.0000
    25 C8        32.6996    37.1891    34.3460 C.3        2 BB2          0.0000
    26 C9        31.3543    37.2687    35.0705 C.3        2 BB2          0.0000
    27 C10       31.5407    37.9720    36.4165 C.3        2 BB2          0.0000
    28 S11       29.9458    38.0663    37.2754 S.o2       2 BB2          0.0000
    29 O12       28.9675    37.2902    36.5973 O.2        2 BB2          0.0000
    30 O13       30.1281    37.9505    38.6799 O.2        2 BB2          0.0000
    31 H15       29.5308    34.2578    39.0357 H          2 BB2          0.0000
    32 H16       30.4577    33.6180    37.6574 H          2 BB2          0.0000
    33 H17       31.2618    33.8875    39.2224 H          2 BB2          0.0000
    34 H18       32.6671    37.6835    38.2300 H          2 BB2          0.0000
    35 H19       34.2629    38.1096    36.3806 H          2 BB2          0.0000
    36 H20       34.5874    36.5404    37.1555 H          2 BB2          0.0000
    37 H21       34.6515    36.3428    34.6846 H          2 BB2          0.0000
    38 H22       33.3097    35.3928    35.3668 H          2 BB2          0.0000
    39 H23       33.0829    38.1959    34.1800 H          2 BB2          0.0000
    40 H24       32.5668    36.6881    33.3872 H          2 BB2          0.0000
    41 H25       30.6465    37.8312    34.4617 H          2 BB2          0.0000
    42 H26       30.9709    36.2619    35.2366 H          2 BB2          0.0000
    43 H27       31.9240    38.9787    36.2504 H          2 BB2          0.0000
@<TRIPOS>BOND
     1      1      2 1
     2      1     10 1
     3      1     11 1
     4      1     12 1
     5      2      3 ar
     6      2      8 ar
     7      3      4 ar
     8      3     13 1
     9      4      5 ar
    10      4     14 1
    11      5      6 ar
    12      5     15 1
    13      6      7 1
    14      6      8 ar
    15      7     16 1
    16      8      9 1
    17      9     17 1
    18     18     19 1
    19     18     31 1
    20     18     32 1
    21     18     33 1
    22     19     20 1
    23     20     21 2
    24     20     22 1
    25     22     23 1
    26     22     27 1
    27     22     34 1
    28     23     24 1
    29     23     35 1
    30     23     36 1
    31     24     25 1
    32     24     37 1
    33     24     38 1
    34     25     26 1
    35     25     39 1
    36     25     40 1
    37     26     27 1
    38     26     41 1
    39     26     42 1
    40     27     28 1
    41     27     43 1
    42     28     29 2
    43     28     30 2
    44      7     28 1
@<TRIPOS>SUBSTRUCTURE
     1 BB1           7
     2 BB2          28
@<TRIPOS>MOLECULE
EN300-78391_i001_EN300-125264_i004_17_13_10
  43   44   2   0   0
SMALL
USER_CHARGES
@<TRIPOS>ATOM
     1 C1        25.2941    36.9966    41.5142 C.3        1 BB1          0.0000
     2 C2        26.6104    36.8150    40.8031 C.ar       1 BB1          0.0000
     3 C3        27.7070    36.3288    41.4920 C.ar       1 BB1          0.0000
     4 C4        28.9160    36.1603    40.8437 C.ar       1 BB1          0.0000
     5 C5        29.0353    36.4766    39.5030 C.ar       1 BB1          0.0000
     6 C6        27.9401    36.9644    38.8059 C.ar       1 BB1          0.0000
     7 N7        28.0584    37.2855    37.4488 N.pl3      1 BB1          0.0000
     8 C8        26.7202    37.1292    39.4591 C.ar       1 BB1          0.0000
     9 O9        25.6427    37.6072    38.7806 O.3        1 BB1          0.0000
    10 H10       25.2448    38.0003    41.9363 H          1 BB1          0.0000
    11 H11       24.4768    36.8596    40.8062 H          1 BB1          0.0000
    12 H12       25.2089    36.2614    42.3143 H          1 BB1          0.0000
    13 H13       27.6184    36.0808    42.5394 H          1 BB1          0.0000
    14 H14       29.7695    35.7808    41.3857 H          1 BB1          0.0000
    15 H15       29.9812    36.3443    38.9989 H          1 BB1          0.0000
    16 H17       27.2915    37.6266    36.9624 H          1 BB1          0.0000
    17 H18       25.7721    37.6597    37.8238 H          1 BB1          0.0000
    18 C1        31.4939    33.5108    38.2003 C.3        2 BB2          0.0000
    19 O2        32.1002    34.7987    38.4867 O.3        2 BB2          0.0000
    20 C3        31.6343    35.8567    37.8047 C.2        2 BB2          0.0000
    21 O4        30.5225    35.8291    37.3323 O.2        2 BB2          0.0000
    22 C5        32.4978    37.0792    37.6282 C.3        2 BB2          0.0000
    23 C6        33.8392    36.6719    37.0155 C.3        2 BB2          0.0000
    24 C7        33.5999    36.0157    35.6542 C.3        2 BB2          0.0000
    25 C8        32.8957    37.0079    34.7265 C.3        2 BB2          0.0000
    26 C9        31.5543    37.4152    35.3392 C.3        2 BB2          0.0000
    27 C10       31.7936    38.0714    36.7005 C.3        2 BB2          0.0000
    28 S11       30.2031    38.5543    37.4270 S.o2       2 BB2          0.0000
    29 O12       30.0026    37.8963    38.6704 O.2        2 BB2          0.0000
    30 O13       30.0008    39.9549    37.2983 O.2        2 BB2          0.0000
    31 H15       31.9612    32.7439    38.8180 H          2 BB2          0.0000
    32 H16       30.4272    33.5544    38.4202 H          2 BB2          0.0000
    33 H17       31.6382    33.2674    37.1476 H          2 BB2          0.0000
    34 H18       32.6683    37.5467    38.5980 H          2 BB2          0.0000
    35 H19       34.4637    37.5560    36.8878 H          2 BB2          0.0000
    36 H20       34.3409    35.9651    37.6763 H          2 BB2          0.0000
    37 H21       34.5556    35.7255    35.2176 H          2 BB2          0.0000
    38 H22       32.9753    35.1315    35.7819 H          2 BB2          0.0000
    39 H23       33.5202    37.8921    34.5989 H          2 BB2          0.0000
    40 H24       32.7252    36.5404    33.7567 H          2 BB2          0.0000
    41 H25       31.0526    38.1221    34.6784 H          2 BB2          0.0000
    42 H26       30.9297    36.5310    35.4669 H          2 BB2          0.0000
    43 H27       32.4180    38.9555    36.5729 H          2 BB2          0.0000
@<TRIPOS>BOND
     1      1      2 1
     2      1     10 1
     3      1     11 1
     4      1     12 1
     5      2      3 ar
     6      2      8 ar
     7      3      4 ar
     8      3     13 1
     9      4      5 ar
    10      4     14 1
    11      5      6 ar
    12      5     15 1
    13      6      7 1
    14      6      8 ar
    15      7     16 1
    16      8      9 1
    17      9     17 1
    18     18     19 1
    19     18     31 1
    20     18     32 1
    21     18     33 1
    22     19     20 1
    23     20     21 2
    24     20     22 1
    25     22     23 1
    26     22     27 1
    27     22     34 1
    28     23     24 1
    29     23     35 1
    30     23     36 1
    31     24     25 1
    32     24     37 1
    33     24     38 1
    34     25     26 1
    35     25     39 1
    36     25     40 1
    37     26     27 1
    38     26     41 1
    39     26     42 1
    40     27     28 1
    41     27     43 1
    42     28     29 2
    43     28     30 2
    44      7     28 1
@<TRIPOS>SUBSTRUCTURE
     1 BB1           7
     2 BB2          28
@<TRIPOS>MOLECULE
EN300-78391_i001_EN300-125264_i004_17_6_10
  43   44   2   0   0
SMALL
USER_CHARGES
@<TRIPOS>ATOM
     1 C1        25.2941    36.9966    41.5142 C.3        1 BB1          0.0000
     2 C2        26.6104    36.8150    40.8031 C.ar       1 BB1          0.0000
     3 C3        27.7070    36.3288    41.4920 C.ar       1 BB1          0.0000
     4 C4        28.9160    36.1603    40.8437 C.ar       1 BB1          0.0000
     5 C5        29.0353    36.4766    39.5030 C.ar       1 BB1          0.0000
     6 C6        27.9401    36.9644    38.8059 C.ar       1 BB1          0.0000
     7 N7        28.0584    37.2855    37.4488 N.pl3      1 BB1          0.0000
     8 C8        26.7202    37.1292    39.4591 C.ar       1 BB1          0.0000
     9 O9        25.6427    37.6072    38.7806 O.3        1 BB1          0.0000
    10 H10       25.2448    38.0003    41.9363 H          1 BB1          0.0000
    11 H11       24.4768    36.8596    40.8062 H          1 BB1          0.0000
    12 H12       25.2089    36.2614    42.3143 H          1 BB1          0.0000
    13 H13       27.6184    36.0808    42.5394 H          1 BB1          0.0000
    14 H14       29.7695    35.7808    41.3857 H          1 BB1          0.0000
    15 H15       29.9812    36.3443    38.9989 H          1 BB1          0.0000
    16 H17       27.2915    37.6266    36.9624 H          1 BB1          0.0000
    17 H18       25.7721    37.6597    37.8238 H          1 BB1          0.0000
    18 C1        31.3088    33.5520    38.4987 C.3        2 BB2          0.0000
    19 O2        32.0474    34.7994    38.5809 O.3        2 BB2          0.0000
    20 C3        31.6525    35.7957    37.7727 C.2        2 BB2          0.0000
    21 O4        30.6075    35.7086    37.1724 O.2        2 BB2          0.0000
    22 C5        32.5126    37.0231    37.6140 C.3        2 BB2          0.0000
    23 C6        33.9304    36.6048    37.2194 C.3        2 BB2          0.0000
    24 C7        33.8864    35.8383    35.8960 C.3        2 BB2          0.0000
    25 C8        33.2975    36.7361    34.8059 C.3        2 BB2          0.0000
    26 C9        31.8797    37.1544    35.2005 C.3        2 BB2          0.0000
    27 C10       31.9238    37.9209    36.5239 C.3        2 BB2          0.0000
    28 S11       30.2428    38.4168    36.9917 S.o2       2 BB2          0.0000
    29 O12       29.3222    38.0954    35.9580 O.2        2 BB2          0.0000
    30 O13       29.9777    38.0675    38.3434 O.2        2 BB2          0.0000
    31 H15       31.7296    32.8337    39.2023 H          2 BB2          0.0000
    32 H16       30.2626    33.7323    38.7456 H          2 BB2          0.0000
    33 H17       31.3799    33.1537    37.4866 H          2 BB2          0.0000
    34 H18       32.5440    37.5691    38.5568 H          2 BB2          0.0000
    35 H19       34.5524    37.4924    37.1046 H          2 BB2          0.0000
    36 H20       34.3498    35.9651    37.9959 H          2 BB2          0.0000
    37 H21       34.8964    35.5402    35.6149 H          2 BB2          0.0000
    38 H22       33.2642    34.9506    36.0108 H          2 BB2          0.0000
    39 H23       33.9196    37.6238    34.6912 H          2 BB2          0.0000
    40 H24       33.2662    36.1900    33.8631 H          2 BB2          0.0000
    41 H25       31.4602    37.7941    34.4240 H          2 BB2          0.0000
    42 H26       31.2576    36.2667    35.3153 H          2 BB2          0.0000
    43 H27       32.5457    38.8086    36.4092 H          2 BB2          0.0000
@<TRIPOS>BOND
     1      1      2 1
     2      1     10 1
     3      1     11 1
     4      1     12 1
     5      2      3 ar
     6      2      8 ar
     7      3      4 ar
     8      3     13 1
     9      4      5 ar
    10      4     14 1
    11      5      6 ar
    12      5     15 1
    13      6      7 1
    14      6      8 ar
    15      7     16 1
    16      8      9 1
    17      9     17 1
    18     18     19 1
    19     18     31 1
    20     18     32 1
    21     18     33 1
    22     19     20 1
    23     20     21 2
    24     20     22 1
    25     22     23 1
    26     22     27 1
    27     22     34 1
    28     23     24 1
    29     23     35 1
    30     23     36 1
    31     24     25 1
    32     24     37 1
    33     24     38 1
    34     25     26 1
    35     25     39 1
    36     25     40 1
    37     26     27 1
    38     26     41 1
    39     26     42 1
    40     27     28 1
    41     27     43 1
    42     28     29 2
    43     28     30 2
    44      7     28 1
@<TRIPOS>SUBSTRUCTURE
     1 BB1           7
     2 BB2          28
@<TRIPOS>MOLECULE
EN300-78391_i001_EN300-125264_i004_17_8_10
  43   44   2   0   0
SMALL
USER_CHARGES
@<TRIPOS>ATOM
     1 C1        25.2941    36.9966    41.5142 C.3        1 BB1          0.0000
     2 C2        26.6104    36.8150    40.8031 C.ar       1 BB1          0.0000
     3 C3        27.7070    36.3288    41.4920 C.ar       1 BB1          0.0000
     4 C4        28.9160    36.1603    40.8437 C.ar       1 BB1          0.0000
     5 C5        29.0353    36.4766    39.5030 C.ar       1 BB1          0.0000
     6 C6        27.9401    36.9644    38.8059 C.ar       1 BB1          0.0000
     7 N7        28.0584    37.2855    37.4488 N.pl3      1 BB1          0.0000
     8 C8        26.7202    37.1292    39.4591 C.ar       1 BB1          0.0000
     9 O9        25.6427    37.6072    38.7806 O.3        1 BB1          0.0000
    10 H10       25.2448    38.0003    41.9363 H          1 BB1          0.0000
    11 H11       24.4768    36.8596    40.8062 H          1 BB1          0.0000
    12 H12       25.2089    36.2614    42.3143 H          1 BB1          0.0000
    13 H13       27.6184    36.0808    42.5394 H          1 BB1          0.0000
    14 H14       29.7695    35.7808    41.3857 H          1 BB1          0.0000
    15 H15       29.9812    36.3443    38.9989 H          1 BB1          0.0000
    16 H17       27.2915    37.6266    36.9624 H          1 BB1          0.0000
    17 H18       25.7721    37.6597    37.8238 H          1 BB1          0.0000
    18 C1        31.4119    32.8810    38.1996 C.3        2 BB2          0.0000
    19 O2        32.1447    34.1228    38.0287 O.3        2 BB2          0.0000
    20 C3        31.4678    35.2633    38.2354 C.2        2 BB2          0.0000
    21 O4        30.3038    35.2251    38.5575 O.2        2 BB2          0.0000
    22 C5        32.1595    36.5914    38.0659 C.3        2 BB2          0.0000
    23 C6        33.5823    36.3635    37.5515 C.3        2 BB2          0.0000
    24 C7        33.5278    35.6412    36.2038 C.3        2 BB2          0.0000
    25 C8        32.7526    36.4953    35.1985 C.3        2 BB2          0.0000
    26 C9        31.3299    36.7232    35.7129 C.3        2 BB2          0.0000
    27 C10       31.3844    37.4455    37.0606 C.3        2 BB2          0.0000
    28 S11       29.6975    37.7157    37.6705 S.o2       2 BB2          0.0000
    29 O12       28.7823    36.8584    37.0021 O.2        2 BB2          0.0000
    30 O13       29.6919    37.8317    39.0867 O.2        2 BB2          0.0000
    31 H15       32.0745    32.0381    38.0031 H          2 BB2          0.0000
    32 H16       31.0370    32.8180    39.2212 H          2 BB2          0.0000
    33 H17       30.5740    32.8547    37.5028 H          2 BB2          0.0000
    34 H18       32.1983    37.1060    39.0260 H          2 BB2          0.0000
    35 H19       34.0825    37.3241    37.4289 H          2 BB2          0.0000
    36 H20       34.1345    35.7551    38.2677 H          2 BB2          0.0000
    37 H21       34.5414    35.4788    35.8373 H          2 BB2          0.0000
    38 H22       33.0274    34.6806    36.3264 H          2 BB2          0.0000
    39 H23       33.2529    37.4559    35.0760 H          2 BB2          0.0000
    40 H24       32.7138    35.9807    34.2383 H          2 BB2          0.0000
    41 H25       30.7776    37.3317    34.9967 H          2 BB2          0.0000
    42 H26       30.8295    35.7625    35.8355 H          2 BB2          0.0000
    43 H27       31.8846    38.4061    36.9380 H          2 BB2          0.0000
@<TRIPOS>BOND
     1      1      2 1
     2      1     10 1
     3      1     11 1
     4      1     12 1
     5      2      3 ar
     6      2      8 ar
     7      3      4 ar
     8      3     13 1
     9      4      5 ar
    10      4     14 1
    11      5      6 ar
    12      5     15 1
    13      6      7 1
    14      6      8 ar
    15      7     16 1
    16      8      9 1
    17      9     17 1
    18     18     19 1
    19     18     31 1
    20     18     32 1
    21     18     33 1
    22     19     20 1
    23     20     21 2
    24     20     22 1
    25     22     23 1
    26     22     27 1
    27     22     34 1
    28     23     24 1
    29     23     35 1
    30     23     36 1
    31     24     25 1
    32     24     37 1
    33     24     38 1
    34     25     26 1
    35     25     39 1
    36     25     40 1
    37     26     27 1
    38     26     41 1
    39     26     42 1
    40     27     28 1
    41     27     43 1
    42     28     29 2
    43     28     30 2
    44      7     28 1
@<TRIPOS>SUBSTRUCTURE
     1 BB1           7
     2 BB2          28
@<TRIPOS>MOLECULE
EN300-78391_i001_EN300-93482_i002_5_11_10
  37   38   2   0   0
SMALL
USER_CHARGES
@<TRIPOS>ATOM
     1 C1        26.2911    36.9429    42.1979 C.3        1 BB1          0.0000
     2 C2        27.0108    36.6921    40.8978 C.ar       1 BB1          0.0000
     3 C3        26.3612    36.9065    39.6955 C.ar       1 BB1          0.0000
     4 C4        27.0176    36.6782    38.5008 C.ar       1 BB1          0.0000
     5 C5        28.3271    36.2344    38.5014 C.ar       1 BB1          0.0000
     6 C6        28.9847    36.0173    39.7029 C.ar       1 BB1          0.0000
     7 N7        30.3102    35.5681    39.7062 N.pl3      1 BB1          0.0000
     8 C8        28.3238    36.2528    40.9071 C.ar       1 BB1          0.0000
     9 O9        28.9636    36.0417    42.0885 O.3        1 BB1          0.0000
    10 H10       25.7875    36.0302    42.5163 H          1 BB1          0.0000
    11 H11       27.0105    37.2453    42.9589 H          1 BB1          0.0000
    12 H12       25.5549    37.7345    42.0589 H          1 BB1          0.0000
    13 H13       25.3382    37.2527    39.6903 H          1 BB1          0.0000
    14 H14       26.5063    36.8466    37.5645 H          1 BB1          0.0000
    15 H15       28.8376    36.0565    37.5665 H          1 BB1          0.0000
    16 H17       30.7690    35.4167    40.5474 H          1 BB1          0.0000
    17 H18       29.8874    35.7724    41.9928 H          1 BB1          0.0000
    18 C1        31.1529    35.2755    38.5577 C.3        2 BB2          0.0000
    19 C2        32.2013    36.0944    37.8020 C.3        2 BB2          0.0000
    20 C3        32.7621    35.2679    36.6391 C.3        2 BB2          0.0000
    21 O4        33.5985    36.0995    35.8311 O.3        2 BB2          0.0000
    22 C5        32.9161    37.1954    35.2168 C.3        2 BB2          0.0000
    23 C6        32.3632    38.1205    36.3070 C.3        2 BB2          0.0000
    24 N7        31.5788    37.3086    37.2508 N.pl3      2 BB2          0.0000
    25 S8        30.0409    37.7479    37.6797 S.o2       2 BB2          0.0000
    26 O9        29.1634    36.9965    36.8522 O.2        2 BB2          0.0000
    27 O10       29.9938    37.7095    39.0994 O.2        2 BB2          0.0000
    28 H12       31.6389    34.4410    39.0633 H          2 BB2          0.0000
    29 H13       30.6590    35.9088    39.2946 H          2 BB2          0.0000
    30 H14       30.4139    34.8930    37.8536 H          2 BB2          0.0000
    31 H15       33.0095    36.3706    38.4793 H          2 BB2          0.0000
    32 H16       33.3465    34.4361    37.0321 H          2 BB2          0.0000
    33 H17       31.9396    34.8833    36.0360 H          2 BB2          0.0000
    34 H18       33.6114    37.7500    34.5867 H          2 BB2          0.0000
    35 H19       32.0942    36.8176    34.6086 H          2 BB2          0.0000
    36 H20       33.1878    38.6012    36.8334 H          2 BB2          0.0000
    37 H21       31.7235    38.8787    35.8553 H          2 BB2          0.0000
@<TRIPOS>BOND
     1      1      2 1
     2      1     10 1
     3      1     11 1
     4      1     12 1
     5      2      3 ar
     6      2      8 ar
     7      3      4 ar
     8      3     13 1
     9      4      5 ar
    10      4     14 1
    11      5      6 ar
    12      5     15 1
    13      6      7 1
    14      6      8 ar
    15      7     16 1
    16      8      9 1
    17      9     17 1
    18     18     19 1
    19     18     28 1
    20     18     29 1
    21     18     30 1
    22     19     20 1
    23     19     24 1
    24     19     31 1
    25     20     21 1
    26     20     32 1
    27     20     33 1
    28     21     22 1
    29     22     23 1
    30     22     34 1
    31     22     35 1
    32     23     24 1
    33     23     36 1
    34     23     37 1
    35     24     25 1
    36     25     26 2
    37     25     27 2
    38      7     25 1
@<TRIPOS>SUBSTRUCTURE
     1 BB1           7
     2 BB2          25
@<TRIPOS>MOLECULE
EN300-78391_i001_EN300-93482_i002_5_7_10
  37   38   2   0   0
SMALL
USER_CHARGES
@<TRIPOS>ATOM
     1 C1        26.2911    36.9429    42.1979 C.3        1 BB1          0.0000
     2 C2        27.0108    36.6921    40.8978 C.ar       1 BB1          0.0000
     3 C3        26.3612    36.9065    39.6955 C.ar       1 BB1          0.0000
     4 C4        27.0176    36.6782    38.5008 C.ar       1 BB1          0.0000
     5 C5        28.3271    36.2344    38.5014 C.ar       1 BB1          0.0000
     6 C6        28.9847    36.0173    39.7029 C.ar       1 BB1          0.0000
     7 N7        30.3102    35.5681    39.7062 N.pl3      1 BB1          0.0000
     8 C8        28.3238    36.2528    40.9071 C.ar       1 BB1          0.0000
     9 O9        28.9636    36.0417    42.0885 O.3        1 BB1          0.0000
    10 H10       25.7875    36.0302    42.5163 H          1 BB1          0.0000
    11 H11       27.0105    37.2453    42.9589 H          1 BB1          0.0000
    12 H12       25.5549    37.7345    42.0589 H          1 BB1          0.0000
    13 H13       25.3382    37.2527    39.6903 H          1 BB1          0.0000
    14 H14       26.5063    36.8466    37.5645 H          1 BB1          0.0000
    15 H15       28.8376    36.0565    37.5665 H          1 BB1          0.0000
    16 H17       30.7690    35.4167    40.5474 H          1 BB1          0.0000
    17 H18       29.8874    35.7724    41.9928 H          1 BB1          0.0000
    18 C1        30.2769    37.9114    35.0229 C.3        2 BB2          0.0000
    19 C2        31.1039    36.7679    35.6139 C.3        2 BB2          0.0000
    20 C3        32.5961    37.0445    35.3974 C.3        2 BB2          0.0000
    21 O4        33.3634    36.0720    36.1111 O.3        2 BB2          0.0000
    22 C5        33.1781    36.1052    37.5282 C.3        2 BB2          0.0000
    23 C6        31.7157    35.7805    37.8537 C.3        2 BB2          0.0000
    24 N7        30.8547    36.6724    37.0610 N.pl3      2 BB2          0.0000
    25 S8        29.6415    37.5433    37.7763 S.o2       2 BB2          0.0000
    26 O9        29.9961    38.9126    37.6397 O.2        2 BB2          0.0000
    27 O10       28.4200    37.0045    37.2895 O.2        2 BB2          0.0000
    28 H12       30.3713    37.9047    33.9370 H          2 BB2          0.0000
    29 H13       29.2299    37.7821    35.2972 H          2 BB2          0.0000
    30 H14       30.6401    38.8621    35.4133 H          2 BB2          0.0000
    31 H15       30.8307    35.8295    35.1311 H          2 BB2          0.0000
    32 H16       32.8275    36.9821    34.3342 H          2 BB2          0.0000
    33 H17       32.8387    38.0413    35.7657 H          2 BB2          0.0000
    34 H18       33.8282    35.3670    37.9978 H          2 BB2          0.0000
    35 H19       33.4228    37.0987    37.9042 H          2 BB2          0.0000
    36 H20       31.5043    34.7425    37.5970 H          2 BB2          0.0000
    37 H21       31.5316    35.9413    38.9160 H          2 BB2          0.0000
@<TRIPOS>BOND
     1      1      2 1
     2      1     10 1
     3      1     11 1
     4      1     12 1
     5      2      3 ar
     6      2      8 ar
     7      3      4 ar
     8      3     13 1
     9      4      5 ar
    10      4     14 1
    11      5      6 ar
    12      5     15 1
    13      6      7 1
    14      6      8 ar
    15      7     16 1
    16      8      9 1
    17      9     17 1
    18     18     19 1
    19     18     28 1
    20     18     29 1
    21     18     30 1
    22     19     20 1
    23     19     24 1
    24     19     31 1
    25     20     21 1
    26     20     32 1
    27     20     33 1
    28     21     22 1
    29     22     23 1
    30     22     34 1
    31     22     35 1
    32     23     24 1
    33     23     36 1
    34     23     37 1
    35     24     25 1
    36     25     26 2
    37     25     27 2
    38      7     25 1
@<TRIPOS>SUBSTRUCTURE
     1 BB1           7
     2 BB2          25
@<TRIPOS>MOLECULE
EN300-78391_i001_EN300-125264_i004_5_3_10
  43   44   2   0   0
SMALL
USER_CHARGES
@<TRIPOS>ATOM
     1 C1        26.2911    36.9429    42.1979 C.3        1 BB1          0.0000
     2 C2        27.0108    36.6921    40.8978 C.ar       1 BB1          0.0000
     3 C3        26.3612    36.9065    39.6955 C.ar       1 BB1          0.0000
     4 C4        27.0176    36.6782    38.5008 C.ar       1 BB1          0.0000
     5 C5        28.3271    36.2344    38.5014 C.ar       1 BB1          0.0000
     6 C6        28.9847    36.0173    39.7029 C.ar       1 BB1          0.0000
     7 N7        30.3102    35.5681    39.7062 N.pl3      1 BB1          0.0000
     8 C8        28.3238    36.2528    40.9071 C.ar       1 BB1          0.0000
     9 O9        28.9636    36.0417    42.0885 O.3        1 BB1          0.0000
    10 H10       25.7875    36.0302    42.5163 H          1 BB1          0.0000
    11 H11       27.0105    37.2453    42.9589 H          1 BB1          0.0000
    12 H12       25.5549    37.7345    42.0589 H          1 BB1          0.0000
    13 H13       25.3382    37.2527    39.6903 H          1 BB1          0.0000
    14 H14       26.5063    36.8466    37.5645 H          1 BB1          0.0000
    15 H15       28.8376    36.0565    37.5665 H          1 BB1          0.0000
    16 H17       30.7690    35.4167    40.5474 H          1 BB1          0.0000
    17 H18       29.8874    35.7724    41.9928 H          1 BB1          0.0000
    18 C1        29.8470    40.1769    37.0204 C.3        2 BB2          0.0000
    19 O2        29.5265    38.8404    36.5520 O.3        2 BB2          0.0000
    20 C3        30.4062    37.8675    36.8373 C.2        2 BB2          0.0000
    21 O4        31.0770    37.9344    37.8400 O.2        2 BB2          0.0000
    22 C5        30.5572    36.6916    35.9068 C.3        2 BB2          0.0000
    23 C6        30.8471    37.1951    34.4915 C.3        2 BB2          0.0000
    24 C7        32.1411    38.0115    34.4956 C.3        2 BB2          0.0000
    25 C8        33.2984    37.1307    34.9707 C.3        2 BB2          0.0000
    26 C9        33.0085    36.6272    36.3861 C.3        2 BB2          0.0000
    27 C10       31.7145    35.8108    36.3819 C.3        2 BB2          0.0000
    28 S11       31.3707    35.2138    38.0600 S.o2       2 BB2          0.0000
    29 O12       32.4263    35.5702    38.9421 O.2        2 BB2          0.0000
    30 O13       30.0138    35.4543    38.4067 O.2        2 BB2          0.0000
    31 H15       29.0558    40.8653    36.7236 H          2 BB2          0.0000
    32 H16       29.9339    40.1700    38.1069 H          2 BB2          0.0000
    33 H17       30.7918    40.4987    36.5823 H          2 BB2          0.0000
    34 H18       29.6353    36.1099    35.9039 H          2 BB2          0.0000
    35 H19       30.9563    36.3446    33.8186 H          2 BB2          0.0000
    36 H20       30.0227    37.8226    34.1531 H          2 BB2          0.0000
    37 H21       32.3477    38.3703    33.4873 H          2 BB2          0.0000
    38 H22       32.0318    38.8620    35.1686 H          2 BB2          0.0000
    39 H23       33.4075    36.2802    34.2978 H          2 BB2          0.0000
    40 H24       34.2202    37.7124    34.9737 H          2 BB2          0.0000
    41 H25       33.8329    35.9996    36.7245 H          2 BB2          0.0000
    42 H26       32.8992    37.4777    37.0591 H          2 BB2          0.0000
    43 H27       31.8237    34.9602    35.7091 H          2 BB2          0.0000
@<TRIPOS>BOND
     1      1      2 1
     2      1     10 1
     3      1     11 1
     4      1     12 1
     5      2      3 ar
     6      2      8 ar
     7      3      4 ar
     8      3     13 1
     9      4      5 ar
    10      4     14 1
    11      5      6 ar
    12      5     15 1
    13      6      7 1
    14      6      8 ar
    15      7     16 1
    16      8      9 1
    17      9     17 1
    18     18     19 1
    19     18     31 1
    20     18     32 1
    21     18     33 1
    22     19     20 1
    23     20     21 2
    24     20     22 1
    25     22     23 1
    26     22     27 1
    27     22     34 1
    28     23     24 1
    29     23     35 1
    30     23     36 1
    31     24     25 1
    32     24     37 1
    33     24     38 1
    34     25     26 1
    35     25     39 1
    36     25     40 1
    37     26     27 1
    38     26     41 1
    39     26     42 1
    40     27     28 1
    41     27     43 1
    42     28     29 2
    43     28     30 2
    44      7     28 1
@<TRIPOS>SUBSTRUCTURE
     1 BB1           7
     2 BB2          28
@<TRIPOS>MOLECULE
EN300-78391_i001_EN300-96185_i001_6_7_10
  34   35   2   0   0
SMALL
USER_CHARGES
@<TRIPOS>ATOM
     1 C1        25.0603    36.8652    41.3554 C.3        1 BB1          0.0000
     2 C2        26.2154    36.9148    40.3888 C.ar       1 BB1          0.0000
     3 C3        26.0174    37.3703    39.0978 C.ar       1 BB1          0.0000
     4 C4        27.0741    37.4179    38.2081 C.ar       1 BB1          0.0000
     5 C5        28.3346    37.0105    38.6043 C.ar       1 BB1          0.0000
     6 C6        28.5406    36.5527    39.8970 C.ar       1 BB1          0.0000
     7 N7        29.8156    36.1396    40.3004 N.pl3      1 BB1          0.0000
     8 C8        27.4757    36.5099    40.7950 C.ar       1 BB1          0.0000
     9 O9        27.6717    36.0619    42.0640 O.3        1 BB1          0.0000
    10 H10       24.5678    35.8955    41.2835 H          1 BB1          0.0000
    11 H11       25.4296    37.0107    42.3706 H          1 BB1          0.0000
    12 H12       24.3482    37.6534    41.1114 H          1 BB1          0.0000
    13 H13       25.0345    37.6892    38.7839 H          1 BB1          0.0000
    14 H14       26.9148    37.7739    37.2010 H          1 BB1          0.0000
    15 H15       29.1585    37.0484    37.9069 H          1 BB1          0.0000
    16 H17       29.9582    35.8196    41.2049 H          1 BB1          0.0000
    17 H18       26.9917    35.4481    42.3739 H          1 BB1          0.0000
    18 S2        29.6389    36.4931    38.6247 S.o2       2 BB2          0.0000
    19 O3        30.2908    35.2313    38.5779 O.2        2 BB2          0.0000
    20 O4        28.3744    36.6879    38.0065 O.2        2 BB2          0.0000
    21 C5        30.7857    37.8196    38.1599 C.3        2 BB2          0.0000
    22 C6        31.7457    37.3108    37.1156 C.ar       2 BB2          0.0000
    23 C7        32.6088    36.2737    37.4166 C.ar       2 BB2          0.0000
    24 C8        33.4889    35.8067    36.4587 C.ar       2 BB2          0.0000
    25 C9        33.5069    36.3767    35.1991 C.ar       2 BB2          0.0000
    26 C10       32.6445    37.4134    34.8973 C.ar       2 BB2          0.0000
    27 C11       31.7593    37.8775    35.8540 C.ar       2 BB2          0.0000
    28 Br12      30.5789    39.2960    35.4416 Br         2 BB2          0.0000
    29 H13       30.2231    38.6617    37.7568 H          2 BB2          0.0000
    30 H14       31.3431    38.1427    39.0391 H          2 BB2          0.0000
    31 H15       32.5956    35.8286    38.4006 H          2 BB2          0.0000
    32 H16       34.1632    34.9964    36.6943 H          2 BB2          0.0000
    33 H17       34.1953    36.0119    34.4512 H          2 BB2          0.0000
    34 H18       32.6588    37.8588    33.9136 H          2 BB2          0.0000
@<TRIPOS>BOND
     1      1      2 1
     2      1     10 1
     3      1     11 1
     4      1     12 1
     5      2      3 ar
     6      2      8 ar
     7      3      4 ar
     8      3     13 1
     9      4      5 ar
    10      4     14 1
    11      5      6 ar
    12      5     15 1
    13      6      7 1
    14      6      8 ar
    15      7     16 1
    16      8      9 1
    17      9     17 1
    18     18     19 2
    19     18     20 2
    20     18     21 1
    21     21     22 1
    22     21     29 1
    23     21     30 1
    24     22     23 ar
    25     22     27 ar
    26     23     24 ar
    27     23     31 1
    28     24     25 ar
    29     24     32 1
    30     25     26 ar
    31     25     33 1
    32     26     27 ar
    33     26     34 1
    34     27     28 1
    35      7     18 1
@<TRIPOS>SUBSTRUCTURE
     1 BB1           7
     2 BB2          18
@<TRIPOS>MOLECULE
EN300-78391_i001_EN300-93482_i002_6_7_10
  37   38   2   0   0
SMALL
USER_CHARGES
@<TRIPOS>ATOM
     1 C1        25.0603    36.8652    41.3554 C.3        1 BB1          0.0000
     2 C2        26.2154    36.9148    40.3888 C.ar       1 BB1          0.0000
     3 C3        26.0174    37.3703    39.0978 C.ar       1 BB1          0.0000
     4 C4        27.0741    37.4179    38.2081 C.ar       1 BB1          0.0000
     5 C5        28.3346    37.0105    38.6043 C.ar       1 BB1          0.0000
     6 C6        28.5406    36.5527    39.8970 C.ar       1 BB1          0.0000
     7 N7        29.8156    36.1396    40.3004 N.pl3      1 BB1          0.0000
     8 C8        27.4757    36.5099    40.7950 C.ar       1 BB1          0.0000
     9 O9        27.6717    36.0619    42.0640 O.3        1 BB1          0.0000
    10 H10       24.5678    35.8955    41.2835 H          1 BB1          0.0000
    11 H11       25.4296    37.0107    42.3706 H          1 BB1          0.0000
    12 H12       24.3482    37.6534    41.1114 H          1 BB1          0.0000
    13 H13       25.0345    37.6892    38.7839 H          1 BB1          0.0000
    14 H14       26.9148    37.7739    37.2010 H          1 BB1          0.0000
    15 H15       29.1585    37.0484    37.9069 H          1 BB1          0.0000
    16 H17       29.9582    35.8196    41.2049 H          1 BB1          0.0000
    17 H18       26.9917    35.4481    42.3739 H          1 BB1          0.0000
    18 C1        30.2769    37.9114    35.0229 C.3        2 BB2          0.0000
    19 C2        31.1039    36.7679    35.6139 C.3        2 BB2          0.0000
    20 C3        32.5961    37.0445    35.3974 C.3        2 BB2          0.0000
    21 O4        33.3634    36.0720    36.1111 O.3        2 BB2          0.0000
    22 C5        33.1781    36.1052    37.5282 C.3        2 BB2          0.0000
    23 C6        31.7157    35.7805    37.8537 C.3        2 BB2          0.0000
    24 N7        30.8547    36.6724    37.0610 N.pl3      2 BB2          0.0000
    25 S8        29.6415    37.5433    37.7763 S.o2       2 BB2          0.0000
    26 O9        29.9961    38.9126    37.6397 O.2        2 BB2          0.0000
    27 O10       28.4200    37.0045    37.2895 O.2        2 BB2          0.0000
    28 H12       30.3713    37.9047    33.9370 H          2 BB2          0.0000
    29 H13       29.2299    37.7821    35.2972 H          2 BB2          0.0000
    30 H14       30.6401    38.8621    35.4133 H          2 BB2          0.0000
    31 H15       30.8307    35.8295    35.1311 H          2 BB2          0.0000
    32 H16       32.8275    36.9821    34.3342 H          2 BB2          0.0000
    33 H17       32.8387    38.0413    35.7657 H          2 BB2          0.0000
    34 H18       33.8282    35.3670    37.9978 H          2 BB2          0.0000
    35 H19       33.4228    37.0987    37.9042 H          2 BB2          0.0000
    36 H20       31.5043    34.7425    37.5970 H          2 BB2          0.0000
    37 H21       31.5316    35.9413    38.9160 H          2 BB2          0.0000
@<TRIPOS>BOND
     1      1      2 1
     2      1     10 1
     3      1     11 1
     4      1     12 1
     5      2      3 ar
     6      2      8 ar
     7      3      4 ar
     8      3     13 1
     9      4      5 ar
    10      4     14 1
    11      5      6 ar
    12      5     15 1
    13      6      7 1
    14      6      8 ar
    15      7     16 1
    16      8      9 1
    17      9     17 1
    18     18     19 1
    19     18     28 1
    20     18     29 1
    21     18     30 1
    22     19     20 1
    23     19     24 1
    24     19     31 1
    25     20     21 1
    26     20     32 1
    27     20     33 1
    28     21     22 1
    29     22     23 1
    30     22     34 1
    31     22     35 1
    32     23     24 1
    33     23     36 1
    34     23     37 1
    35     24     25 1
    36     25     26 2
    37     25     27 2
    38      7     25 1
@<TRIPOS>SUBSTRUCTURE
     1 BB1           7
     2 BB2          25
@<TRIPOS>MOLECULE
EN300-78391_i001_EN300-125264_i004_6_17_10
  43   44   2   0   0
SMALL
USER_CHARGES
@<TRIPOS>ATOM
     1 C1        25.0603    36.8652    41.3554 C.3        1 BB1          0.0000
     2 C2        26.2154    36.9148    40.3888 C.ar       1 BB1          0.0000
     3 C3        26.0174    37.3703    39.0978 C.ar       1 BB1          0.0000
     4 C4        27.0741    37.4179    38.2081 C.ar       1 BB1          0.0000
     5 C5        28.3346    37.0105    38.6043 C.ar       1 BB1          0.0000
     6 C6        28.5406    36.5527    39.8970 C.ar       1 BB1          0.0000
     7 N7        29.8156    36.1396    40.3004 N.pl3      1 BB1          0.0000
     8 C8        27.4757    36.5099    40.7950 C.ar       1 BB1          0.0000
     9 O9        27.6717    36.0619    42.0640 O.3        1 BB1          0.0000
    10 H10       24.5678    35.8955    41.2835 H          1 BB1          0.0000
    11 H11       25.4296    37.0107    42.3706 H          1 BB1          0.0000
    12 H12       24.3482    37.6534    41.1114 H          1 BB1          0.0000
    13 H13       25.0345    37.6892    38.7839 H          1 BB1          0.0000
    14 H14       26.9148    37.7739    37.2010 H          1 BB1          0.0000
    15 H15       29.1585    37.0484    37.9069 H          1 BB1          0.0000
    16 H17       29.9582    35.8196    41.2049 H          1 BB1          0.0000
    17 H18       26.9917    35.4481    42.3739 H          1 BB1          0.0000
    18 C1        31.8021    33.8060    38.5065 C.3        2 BB2          0.0000
    19 O2        31.5415    35.2334    38.5616 O.3        2 BB2          0.0000
    20 C3        32.1000    35.9922    37.6055 C.2        2 BB2          0.0000
    21 O4        32.8647    35.4976    36.8115 O.2        2 BB2          0.0000
    22 C5        31.7732    37.4610    37.5225 C.3        2 BB2          0.0000
    23 C6        32.6293    38.1133    36.4351 C.3        2 BB2          0.0000
    24 C7        32.3366    37.4487    35.0884 C.3        2 BB2          0.0000
    25 C8        30.8559    37.6231    34.7447 C.3        2 BB2          0.0000
    26 C9        29.9998    36.9709    35.8321 C.3        2 BB2          0.0000
    27 C10       30.2925    37.6354    37.1788 C.3        2 BB2          0.0000
    28 S11       29.2774    36.8621    38.4681 S.o2       2 BB2          0.0000
    29 O12       29.0813    35.4828    38.1880 O.2        2 BB2          0.0000
    30 O13       29.6914    37.2963    39.7562 O.2        2 BB2          0.0000
    31 H15       31.2934    33.3117    39.3341 H          2 BB2          0.0000
    32 H16       31.4335    33.4056    37.5621 H          2 BB2          0.0000
    33 H17       32.8751    33.6294    38.5820 H          2 BB2          0.0000
    34 H18       31.9817    37.9345    38.4819 H          2 BB2          0.0000
    35 H19       32.3930    39.1756    36.3750 H          2 BB2          0.0000
    36 H20       33.6842    37.9890    36.6799 H          2 BB2          0.0000
    37 H21       32.9466    37.9133    34.3136 H          2 BB2          0.0000
    38 H22       32.5729    36.3863    35.1485 H          2 BB2          0.0000
    39 H23       30.6196    38.6855    34.6847 H          2 BB2          0.0000
    40 H24       30.6474    37.1497    33.7853 H          2 BB2          0.0000
    41 H25       28.9449    37.0952    35.5874 H          2 BB2          0.0000
    42 H26       30.2361    35.9084    35.8922 H          2 BB2          0.0000
    43 H27       30.0561    38.6977    37.1188 H          2 BB2          0.0000
@<TRIPOS>BOND
     1      1      2 1
     2      1     10 1
     3      1     11 1
     4      1     12 1
     5      2      3 ar
     6      2      8 ar
     7      3      4 ar
     8      3     13 1
     9      4      5 ar
    10      4     14 1
    11      5      6 ar
    12      5     15 1
    13      6      7 1
    14      6      8 ar
    15      7     16 1
    16      8      9 1
    17      9     17 1
    18     18     19 1
    19     18     31 1
    20     18     32 1
    21     18     33 1
    22     19     20 1
    23     20     21 2
    24     20     22 1
    25     22     23 1
    26     22     27 1
    27     22     34 1
    28     23     24 1
    29     23     35 1
    30     23     36 1
    31     24     25 1
    32     24     37 1
    33     24     38 1
    34     25     26 1
    35     25     39 1
    36     25     40 1
    37     26     27 1
    38     26     41 1
    39     26     42 1
    40     27     28 1
    41     27     43 1
    42     28     29 2
    43     28     30 2
    44      7     28 1
@<TRIPOS>SUBSTRUCTURE
     1 BB1           7
     2 BB2          28
@<TRIPOS>MOLECULE
EN300-78391_i001_EN300-125264_i004_6_3_10
  43   44   2   0   0
SMALL
USER_CHARGES
@<TRIPOS>ATOM
     1 C1        25.0603    36.8652    41.3554 C.3        1 BB1          0.0000
     2 C2        26.2154    36.9148    40.3888 C.ar       1 BB1          0.0000
     3 C3        26.0174    37.3703    39.0978 C.ar       1 BB1          0.0000
     4 C4        27.0741    37.4179    38.2081 C.ar       1 BB1          0.0000
     5 C5        28.3346    37.0105    38.6043 C.ar       1 BB1          0.0000
     6 C6        28.5406    36.5527    39.8970 C.ar       1 BB1          0.0000
     7 N7        29.8156    36.1396    40.3004 N.pl3      1 BB1          0.0000
     8 C8        27.4757    36.5099    40.7950 C.ar       1 BB1          0.0000
     9 O9        27.6717    36.0619    42.0640 O.3        1 BB1          0.0000
    10 H10       24.5678    35.8955    41.2835 H          1 BB1          0.0000
    11 H11       25.4296    37.0107    42.3706 H          1 BB1          0.0000
    12 H12       24.3482    37.6534    41.1114 H          1 BB1          0.0000
    13 H13       25.0345    37.6892    38.7839 H          1 BB1          0.0000
    14 H14       26.9148    37.7739    37.2010 H          1 BB1          0.0000
    15 H15       29.1585    37.0484    37.9069 H          1 BB1          0.0000
    16 H17       29.9582    35.8196    41.2049 H          1 BB1          0.0000
    17 H18       26.9917    35.4481    42.3739 H          1 BB1          0.0000
    18 C1        29.8470    40.1769    37.0204 C.3        2 BB2          0.0000
    19 O2        29.5265    38.8404    36.5520 O.3        2 BB2          0.0000
    20 C3        30.4062    37.8675    36.8373 C.2        2 BB2          0.0000
    21 O4        31.0770    37.9344    37.8400 O.2        2 BB2          0.0000
    22 C5        30.5572    36.6916    35.9068 C.3        2 BB2          0.0000
    23 C6        30.8471    37.1951    34.4915 C.3        2 BB2          0.0000
    24 C7        32.1411    38.0115    34.4956 C.3        2 BB2          0.0000
    25 C8        33.2984    37.1307    34.9707 C.3        2 BB2          0.0000
    26 C9        33.0085    36.6272    36.3861 C.3        2 BB2          0.0000
    27 C10       31.7145    35.8108    36.3819 C.3        2 BB2          0.0000
    28 S11       31.3707    35.2138    38.0600 S.o2       2 BB2          0.0000
    29 O12       32.4263    35.5702    38.9421 O.2        2 BB2          0.0000
    30 O13       30.0138    35.4543    38.4067 O.2        2 BB2          0.0000
    31 H15       29.0558    40.8653    36.7236 H          2 BB2          0.0000
    32 H16       29.9339    40.1700    38.1069 H          2 BB2          0.0000
    33 H17       30.7918    40.4987    36.5823 H          2 BB2          0.0000
    34 H18       29.6353    36.1099    35.9039 H          2 BB2          0.0000
    35 H19       30.9563    36.3446    33.8186 H          2 BB2          0.0000
    36 H20       30.0227    37.8226    34.1531 H          2 BB2          0.0000
    37 H21       32.3477    38.3703    33.4873 H          2 BB2          0.0000
    38 H22       32.0318    38.8620    35.1686 H          2 BB2          0.0000
    39 H23       33.4075    36.2802    34.2978 H          2 BB2          0.0000
    40 H24       34.2202    37.7124    34.9737 H          2 BB2          0.0000
    41 H25       33.8329    35.9996    36.7245 H          2 BB2          0.0000
    42 H26       32.8992    37.4777    37.0591 H          2 BB2          0.0000
    43 H27       31.8237    34.9602    35.7091 H          2 BB2          0.0000
@<TRIPOS>BOND
     1      1      2 1
     2      1     10 1
     3      1     11 1
     4      1     12 1
     5      2      3 ar
     6      2      8 ar
     7      3      4 ar
     8      3     13 1
     9      4      5 ar
    10      4     14 1
    11      5      6 ar
    12      5     15 1
    13      6      7 1
    14      6      8 ar
    15      7     16 1
    16      8      9 1
    17      9     17 1
    18     18     19 1
    19     18     31 1
    20     18     32 1
    21     18     33 1
    22     19     20 1
    23     20     21 2
    24     20     22 1
    25     22     23 1
    26     22     27 1
    27     22     34 1
    28     23     24 1
    29     23     35 1
    30     23     36 1
    31     24     25 1
    32     24     37 1
    33     24     38 1
    34     25     26 1
    35     25     39 1
    36     25     40 1
    37     26     27 1
    38     26     41 1
    39     26     42 1
    40     27     28 1
    41     27     43 1
    42     28     29 2
    43     28     30 2
    44      7     28 1
@<TRIPOS>SUBSTRUCTURE
     1 BB1           7
     2 BB2          28
@<TRIPOS>MOLECULE
EN300-78391_i001_EN300-125264_i004_6_5_10
  43   44   2   0   0
SMALL
USER_CHARGES
@<TRIPOS>ATOM
     1 C1        25.0603    36.8652    41.3554 C.3        1 BB1          0.0000
     2 C2        26.2154    36.9148    40.3888 C.ar       1 BB1          0.0000
     3 C3        26.0174    37.3703    39.0978 C.ar       1 BB1          0.0000
     4 C4        27.0741    37.4179    38.2081 C.ar       1 BB1          0.0000
     5 C5        28.3346    37.0105    38.6043 C.ar       1 BB1          0.0000
     6 C6        28.5406    36.5527    39.8970 C.ar       1 BB1          0.0000
     7 N7        29.8156    36.1396    40.3004 N.pl3      1 BB1          0.0000
     8 C8        27.4757    36.5099    40.7950 C.ar       1 BB1          0.0000
     9 O9        27.6717    36.0619    42.0640 O.3        1 BB1          0.0000
    10 H10       24.5678    35.8955    41.2835 H          1 BB1          0.0000
    11 H11       25.4296    37.0107    42.3706 H          1 BB1          0.0000
    12 H12       24.3482    37.6534    41.1114 H          1 BB1          0.0000
    13 H13       25.0345    37.6892    38.7839 H          1 BB1          0.0000
    14 H14       26.9148    37.7739    37.2010 H          1 BB1          0.0000
    15 H15       29.1585    37.0484    37.9069 H          1 BB1          0.0000
    16 H17       29.9582    35.8196    41.2049 H          1 BB1          0.0000
    17 H18       26.9917    35.4481    42.3739 H          1 BB1          0.0000
    18 C1        30.4915    40.2170    36.6878 C.3        2 BB2          0.0000
    19 O2        30.6218    38.7856    36.8941 O.3        2 BB2          0.0000
    20 C3        30.6665    38.0134    35.7972 C.2        2 BB2          0.0000
    21 O4        30.6957    38.5216    34.7013 O.2        2 BB2          0.0000
    22 C5        30.6803    36.5125    35.9322 C.3        2 BB2          0.0000
    23 C6        31.8984    35.9457    35.2001 C.3        2 BB2          0.0000
    24 C7        33.1759    36.5245    35.8115 C.3        2 BB2          0.0000
    25 C8        33.2494    36.1465    37.2923 C.3        2 BB2          0.0000
    26 C9        32.0313    36.7132    38.0244 C.3        2 BB2          0.0000
    27 C10       30.7538    36.1344    37.4130 C.3        2 BB2          0.0000
    28 S11       29.3097    36.8064    38.2810 S.o2       2 BB2          0.0000
    29 O12       29.7169    37.5868    39.3965 O.2        2 BB2          0.0000
    30 O13       28.3541    37.2992    37.3519 O.2        2 BB2          0.0000
    31 H15       30.4675    40.7224    37.6532 H          2 BB2          0.0000
    32 H16       31.3409    40.5794    36.1089 H          2 BB2          0.0000
    33 H17       29.5682    40.4235    36.1465 H          2 BB2          0.0000
    34 H18       29.7702    36.1001    35.4966 H          2 BB2          0.0000
    35 H19       31.9084    34.8602    35.2978 H          2 BB2          0.0000
    36 H20       31.8461    36.2151    34.1453 H          2 BB2          0.0000
    37 H21       34.0437    36.1208    35.2900 H          2 BB2          0.0000
    38 H22       33.1659    37.6102    35.7139 H          2 BB2          0.0000
    39 H23       33.2592    35.0609    37.3899 H          2 BB2          0.0000
    40 H24       34.1595    36.5588    37.7279 H          2 BB2          0.0000
    41 H25       32.0836    36.4438    39.0793 H          2 BB2          0.0000
    42 H26       32.0213    37.7988    37.9267 H          2 BB2          0.0000
    43 H27       30.7637    35.0488    37.5107 H          2 BB2          0.0000
@<TRIPOS>BOND
     1      1      2 1
     2      1     10 1
     3      1     11 1
     4      1     12 1
     5      2      3 ar
     6      2      8 ar
     7      3      4 ar
     8      3     13 1
     9      4      5 ar
    10      4     14 1
    11      5      6 ar
    12      5     15 1
    13      6      7 1
    14      6      8 ar
    15      7     16 1
    16      8      9 1
    17      9     17 1
    18     18     19 1
    19     18     31 1
    20     18     32 1
    21     18     33 1
    22     19     20 1
    23     20     21 2
    24     20     22 1
    25     22     23 1
    26     22     27 1
    27     22     34 1
    28     23     24 1
    29     23     35 1
    30     23     36 1
    31     24     25 1
    32     24     37 1
    33     24     38 1
    34     25     26 1
    35     25     39 1
    36     25     40 1
    37     26     27 1
    38     26     41 1
    39     26     42 1
    40     27     28 1
    41     27     43 1
    42     28     29 2
    43     28     30 2
    44      7     28 1
@<TRIPOS>SUBSTRUCTURE
     1 BB1           7
     2 BB2          28
@<TRIPOS>MOLECULE
EN300-7549830_i001_EN300-81521_i001_11_6_10
  34   35   2   0   0
SMALL
USER_CHARGES
@<TRIPOS>ATOM
     1 C1        25.4984    37.3226    39.1002 C.3        1 BB1          0.0000
     2 C2        26.8257    36.7879    39.5731 C.ar       1 BB1          0.0000
     3 C3        26.9049    36.0832    40.7654 C.ar       1 BB1          0.0000
     4 O4        25.7842    35.8747    41.5070 O.3        1 BB1          0.0000
     5 C5        28.1254    35.5907    41.2015 C.ar       1 BB1          0.0000
     6 C6        29.2666    35.8006    40.4495 C.ar       1 BB1          0.0000
     7 C7        29.1924    36.5046    39.2575 C.ar       1 BB1          0.0000
     8 N8        30.3497    36.7175    38.4949 N.pl3      1 BB1          0.0000
     9 C9        27.9656    36.9948    38.8149 C.ar       1 BB1          0.0000
    10 O10       27.8898    37.6854    37.6457 O.3        1 BB1          0.0000
    11 H11       25.3513    38.3286    39.4931 H          1 BB1          0.0000
    12 H12       25.4863    37.3527    38.0107 H          1 BB1          0.0000
    13 H13       24.6980    36.6734    39.4548 H          1 BB1          0.0000
    14 H14       28.1849    35.0427    42.1301 H          1 BB1          0.0000
    15 H15       30.2164    35.4161    40.7910 H          1 BB1          0.0000
    16 H16       25.9446    35.4108    42.3401 H          1 BB1          0.0000
    17 H17       31.2028    36.3721    38.8012 H          1 BB1          0.0000
    18 H19       27.1790    38.3406    37.6213 H          1 BB1          0.0000
    19 C1        32.5096    36.1058    37.8709 C.3        2 BB2          0.0000
    20 N2        31.7215    36.7036    36.7903 N.pl3      2 BB2          0.0000
    21 C3        32.1227    36.5058    35.3952 C.3        2 BB2          0.0000
    22 C4        32.5729    37.7381    34.6080 C.3        2 BB2          0.0000
    23 C5        33.6015    36.6960    35.0518 C.3        2 BB2          0.0000
    24 S6        30.3772    37.6029    37.1455 S.o2       2 BB2          0.0000
    25 O7        29.3299    37.0996    36.3274 O.2        2 BB2          0.0000
    26 O8        30.2964    37.6611    38.5631 O.2        2 BB2          0.0000
    27 H10       33.2843    36.8052    38.1853 H          2 BB2          0.0000
    28 H11       31.8575    35.8823    38.7153 H          2 BB2          0.0000
    29 H12       32.9733    35.1854    37.5163 H          2 BB2          0.0000
    30 H13       31.5751    35.7348    34.8533 H          2 BB2          0.0000
    31 H14       32.3217    37.7777    33.5482 H          2 BB2          0.0000
    32 H15       32.5705    38.6961    35.1281 H          2 BB2          0.0000
    33 H16       34.2758    36.9684    35.8637 H          2 BB2          0.0000
    34 H17       34.0271    36.0501    34.2838 H          2 BB2          0.0000
@<TRIPOS>BOND
     1      1      2 1
     2      1     11 1
     3      1     12 1
     4      1     13 1
     5      2      3 ar
     6      2      9 ar
     7      3      4 1
     8      3      5 ar
     9      4     16 1
    10      5      6 ar
    11      5     14 1
    12      6      7 ar
    13      6     15 1
    14      7      8 1
    15      7      9 ar
    16      8     17 1
    17      9     10 1
    18     10     18 1
    19     19     20 1
    20     19     27 1
    21     19     28 1
    22     19     29 1
    23     20     21 1
    24     20     24 1
    25     21     22 1
    26     21     23 1
    27     21     30 1
    28     22     23 1
    29     22     31 1
    30     22     32 1
    31     23     33 1
    32     23     34 1
    33     24     25 2
    34     24     26 2
    35      8     24 1
@<TRIPOS>SUBSTRUCTURE
     1 BB1           8
     2 BB2          24
@<TRIPOS>MOLECULE
EN300-7549830_i001_EN300-23873_i001_11_12_10
  36   36   2   0   0
SMALL
USER_CHARGES
@<TRIPOS>ATOM
     1 C1        25.4984    37.3226    39.1002 C.3        1 BB1          0.0000
     2 C2        26.8257    36.7879    39.5731 C.ar       1 BB1          0.0000
     3 C3        26.9049    36.0832    40.7654 C.ar       1 BB1          0.0000
     4 O4        25.7842    35.8747    41.5070 O.3        1 BB1          0.0000
     5 C5        28.1254    35.5907    41.2015 C.ar       1 BB1          0.0000
     6 C6        29.2666    35.8006    40.4495 C.ar       1 BB1          0.0000
     7 C7        29.1924    36.5046    39.2575 C.ar       1 BB1          0.0000
     8 N8        30.3497    36.7175    38.4949 N.pl3      1 BB1          0.0000
     9 C9        27.9656    36.9948    38.8149 C.ar       1 BB1          0.0000
    10 O10       27.8898    37.6854    37.6457 O.3        1 BB1          0.0000
    11 H11       25.3513    38.3286    39.4931 H          1 BB1          0.0000
    12 H12       25.4863    37.3527    38.0107 H          1 BB1          0.0000
    13 H13       24.6980    36.6734    39.4548 H          1 BB1          0.0000
    14 H14       28.1849    35.0427    42.1301 H          1 BB1          0.0000
    15 H15       30.2164    35.4161    40.7910 H          1 BB1          0.0000
    16 H16       25.9446    35.4108    42.3401 H          1 BB1          0.0000
    17 H17       31.2028    36.3721    38.8012 H          1 BB1          0.0000
    18 H19       27.1790    38.3406    37.6213 H          1 BB1          0.0000
    19 C1        32.1237    34.4707    37.6796 C.3        2 BB2          0.0000
    20 C2        32.3911    35.9674    37.8497 C.3        2 BB2          0.0000
    21 N3        32.1314    36.6569    36.5835 N.pl3      2 BB2          0.0000
    22 C4        32.9757    36.3884    35.4167 C.3        2 BB2          0.0000
    23 C5        32.6994    37.4352    34.3356 C.3        2 BB2          0.0000
    24 S6        30.8836    37.7399    36.4710 S.o2       2 BB2          0.0000
    25 O7        31.4766    39.0294    36.4021 O.2        2 BB2          0.0000
    26 O8        30.0028    37.2353    35.4767 O.2        2 BB2          0.0000
    27 H10       31.0842    34.3179    37.3893 H          2 BB2          0.0000
    28 H11       32.7795    34.0699    36.9066 H          2 BB2          0.0000
    29 H12       32.3169    33.9577    38.6218 H          2 BB2          0.0000
    30 H13       31.7352    36.3681    38.6227 H          2 BB2          0.0000
    31 H14       33.4304    36.1202    38.1401 H          2 BB2          0.0000
    32 H15       34.0248    36.4357    35.7087 H          2 BB2          0.0000
    33 H16       32.7515    35.3955    35.0268 H          2 BB2          0.0000
    34 H17       33.3277    37.2355    33.4674 H          2 BB2          0.0000
    35 H18       31.6504    37.3878    34.0435 H          2 BB2          0.0000
    36 H19       32.9237    38.4281    34.7255 H          2 BB2          0.0000
@<TRIPOS>BOND
     1      1      2 1
     2      1     11 1
     3      1     12 1
     4      1     13 1
     5      2      3 ar
     6      2      9 ar
     7      3      4 1
     8      3      5 ar
     9      4     16 1
    10      5      6 ar
    11      5     14 1
    12      6      7 ar
    13      6     15 1
    14      7      8 1
    15      7      9 ar
    16      8     17 1
    17      9     10 1
    18     10     18 1
    19     19     20 1
    20     19     27 1
    21     19     28 1
    22     19     29 1
    23     20     21 1
    24     20     30 1
    25     20     31 1
    26     21     22 1
    27     21     24 1
    28     22     23 1
    29     22     32 1
    30     22     33 1
    31     23     34 1
    32     23     35 1
    33     23     36 1
    34     24     25 2
    35     24     26 2
    36      8     24 1
@<TRIPOS>SUBSTRUCTURE
     1 BB1           8
     2 BB2          24
@<TRIPOS>MOLECULE
EN300-7549830_i001_EN300-23873_i001_11_13_10
  36   36   2   0   0
SMALL
USER_CHARGES
@<TRIPOS>ATOM
     1 C1        25.4984    37.3226    39.1002 C.3        1 BB1          0.0000
     2 C2        26.8257    36.7879    39.5731 C.ar       1 BB1          0.0000
     3 C3        26.9049    36.0832    40.7654 C.ar       1 BB1          0.0000
     4 O4        25.7842    35.8747    41.5070 O.3        1 BB1          0.0000
     5 C5        28.1254    35.5907    41.2015 C.ar       1 BB1          0.0000
     6 C6        29.2666    35.8006    40.4495 C.ar       1 BB1          0.0000
     7 C7        29.1924    36.5046    39.2575 C.ar       1 BB1          0.0000
     8 N8        30.3497    36.7175    38.4949 N.pl3      1 BB1          0.0000
     9 C9        27.9656    36.9948    38.8149 C.ar       1 BB1          0.0000
    10 O10       27.8898    37.6854    37.6457 O.3        1 BB1          0.0000
    11 H11       25.3513    38.3286    39.4931 H          1 BB1          0.0000
    12 H12       25.4863    37.3527    38.0107 H          1 BB1          0.0000
    13 H13       24.6980    36.6734    39.4548 H          1 BB1          0.0000
    14 H14       28.1849    35.0427    42.1301 H          1 BB1          0.0000
    15 H15       30.2164    35.4161    40.7910 H          1 BB1          0.0000
    16 H16       25.9446    35.4108    42.3401 H          1 BB1          0.0000
    17 H17       31.2028    36.3721    38.8012 H          1 BB1          0.0000
    18 H19       27.1790    38.3406    37.6213 H          1 BB1          0.0000
    19 C1        32.3602    37.9758    34.4967 C.3        2 BB2          0.0000
    20 C2        31.3846    37.0194    35.1852 C.3        2 BB2          0.0000
    21 N3        31.4105    37.2527    36.6313 N.pl3      2 BB2          0.0000
    22 C4        32.6336    36.9905    37.3938 C.3        2 BB2          0.0000
    23 C5        33.0145    35.5152    37.2554 C.3        2 BB2          0.0000
    24 S6        30.0571    37.8127    37.4040 S.o2       2 BB2          0.0000
    25 O7        28.9437    37.2823    36.6980 O.2        2 BB2          0.0000
    26 O8        30.2705    37.5989    38.7925 O.2        2 BB2          0.0000
    27 H10       32.0672    39.0051    34.7039 H          2 BB2          0.0000
    28 H11       33.3676    37.8017    34.8748 H          2 BB2          0.0000
    29 H12       32.3409    37.8022    33.4208 H          2 BB2          0.0000
    30 H13       30.3772    37.1936    34.8071 H          2 BB2          0.0000
    31 H14       31.6775    35.9902    34.9779 H          2 BB2          0.0000
    32 H15       33.4420    37.6121    37.0088 H          2 BB2          0.0000
    33 H16       32.4639    37.2249    38.4446 H          2 BB2          0.0000
    34 H17       33.9246    35.3201    37.8227 H          2 BB2          0.0000
    35 H18       32.2061    34.8936    37.6404 H          2 BB2          0.0000
    36 H19       33.1842    35.2808    36.2044 H          2 BB2          0.0000
@<TRIPOS>BOND
     1      1      2 1
     2      1     11 1
     3      1     12 1
     4      1     13 1
     5      2      3 ar
     6      2      9 ar
     7      3      4 1
     8      3      5 ar
     9      4     16 1
    10      5      6 ar
    11      5     14 1
    12      6      7 ar
    13      6     15 1
    14      7      8 1
    15      7      9 ar
    16      8     17 1
    17      9     10 1
    18     10     18 1
    19     19     20 1
    20     19     27 1
    21     19     28 1
    22     19     29 1
    23     20     21 1
    24     20     30 1
    25     20     31 1
    26     21     22 1
    27     21     24 1
    28     22     23 1
    29     22     32 1
    30     22     33 1
    31     23     34 1
    32     23     35 1
    33     23     36 1
    34     24     25 2
    35     24     26 2
    36      8     24 1
@<TRIPOS>SUBSTRUCTURE
     1 BB1           8
     2 BB2          24
@<TRIPOS>MOLECULE
EN300-7549830_i001_EN300-125264_i004_11_13_10
  44   45   2   0   0
SMALL
USER_CHARGES
@<TRIPOS>ATOM
     1 C1        25.4984    37.3226    39.1002 C.3        1 BB1          0.0000
     2 C2        26.8257    36.7879    39.5731 C.ar       1 BB1          0.0000
     3 C3        26.9049    36.0832    40.7654 C.ar       1 BB1          0.0000
     4 O4        25.7842    35.8747    41.5070 O.3        1 BB1          0.0000
     5 C5        28.1254    35.5907    41.2015 C.ar       1 BB1          0.0000
     6 C6        29.2666    35.8006    40.4495 C.ar       1 BB1          0.0000
     7 C7        29.1924    36.5046    39.2575 C.ar       1 BB1          0.0000
     8 N8        30.3497    36.7175    38.4949 N.pl3      1 BB1          0.0000
     9 C9        27.9656    36.9948    38.8149 C.ar       1 BB1          0.0000
    10 O10       27.8898    37.6854    37.6457 O.3        1 BB1          0.0000
    11 H11       25.3513    38.3286    39.4931 H          1 BB1          0.0000
    12 H12       25.4863    37.3527    38.0107 H          1 BB1          0.0000
    13 H13       24.6980    36.6734    39.4548 H          1 BB1          0.0000
    14 H14       28.1849    35.0427    42.1301 H          1 BB1          0.0000
    15 H15       30.2164    35.4161    40.7910 H          1 BB1          0.0000
    16 H16       25.9446    35.4108    42.3401 H          1 BB1          0.0000
    17 H17       31.2028    36.3721    38.8012 H          1 BB1          0.0000
    18 H19       27.1790    38.3406    37.6213 H          1 BB1          0.0000
    19 C1        31.4939    33.5108    38.2003 C.3        2 BB2          0.0000
    20 O2        32.1002    34.7987    38.4867 O.3        2 BB2          0.0000
    21 C3        31.6343    35.8567    37.8047 C.2        2 BB2          0.0000
    22 O4        30.5225    35.8291    37.3323 O.2        2 BB2          0.0000
    23 C5        32.4978    37.0792    37.6282 C.3        2 BB2          0.0000
    24 C6        33.8392    36.6719    37.0155 C.3        2 BB2          0.0000
    25 C7        33.5999    36.0157    35.6542 C.3        2 BB2          0.0000
    26 C8        32.8957    37.0079    34.7265 C.3        2 BB2          0.0000
    27 C9        31.5543    37.4152    35.3392 C.3        2 BB2          0.0000
    28 C10       31.7936    38.0714    36.7005 C.3        2 BB2          0.0000
    29 S11       30.2031    38.5543    37.4270 S.o2       2 BB2          0.0000
    30 O12       30.0026    37.8963    38.6704 O.2        2 BB2          0.0000
    31 O13       30.0008    39.9549    37.2983 O.2        2 BB2          0.0000
    32 H15       31.9612    32.7439    38.8180 H          2 BB2          0.0000
    33 H16       30.4272    33.5544    38.4202 H          2 BB2          0.0000
    34 H17       31.6382    33.2674    37.1476 H          2 BB2          0.0000
    35 H18       32.6683    37.5467    38.5980 H          2 BB2          0.0000
    36 H19       34.4637    37.5560    36.8878 H          2 BB2          0.0000
    37 H20       34.3409    35.9651    37.6763 H          2 BB2          0.0000
    38 H21       34.5556    35.7255    35.2176 H          2 BB2          0.0000
    39 H22       32.9753    35.1315    35.7819 H          2 BB2          0.0000
    40 H23       33.5202    37.8921    34.5989 H          2 BB2          0.0000
    41 H24       32.7252    36.5404    33.7567 H          2 BB2          0.0000
    42 H25       31.0526    38.1221    34.6784 H          2 BB2          0.0000
    43 H26       30.9297    36.5310    35.4669 H          2 BB2          0.0000
    44 H27       32.4180    38.9555    36.5729 H          2 BB2          0.0000
@<TRIPOS>BOND
     1      1      2 1
     2      1     11 1
     3      1     12 1
     4      1     13 1
     5      2      3 ar
     6      2      9 ar
     7      3      4 1
     8      3      5 ar
     9      4     16 1
    10      5      6 ar
    11      5     14 1
    12      6      7 ar
    13      6     15 1
    14      7      8 1
    15      7      9 ar
    16      8     17 1
    17      9     10 1
    18     10     18 1
    19     19     20 1
    20     19     32 1
    21     19     33 1
    22     19     34 1
    23     20     21 1
    24     21     22 2
    25     21     23 1
    26     23     24 1
    27     23     28 1
    28     23     35 1
    29     24     25 1
    30     24     36 1
    31     24     37 1
    32     25     26 1
    33     25     38 1
    34     25     39 1
    35     26     27 1
    36     26     40 1
    37     26     41 1
    38     27     28 1
    39     27     42 1
    40     27     43 1
    41     28     29 1
    42     28     44 1
    43     29     30 2
    44     29     31 2
    45      8     29 1
@<TRIPOS>SUBSTRUCTURE
     1 BB1           8
     2 BB2          29
@<TRIPOS>MOLECULE
EN300-7549830_i001_EN300-125264_i004_11_3_10
  44   45   2   0   0
SMALL
USER_CHARGES
@<TRIPOS>ATOM
     1 C1        25.4984    37.3226    39.1002 C.3        1 BB1          0.0000
     2 C2        26.8257    36.7879    39.5731 C.ar       1 BB1          0.0000
     3 C3        26.9049    36.0832    40.7654 C.ar       1 BB1          0.0000
     4 O4        25.7842    35.8747    41.5070 O.3        1 BB1          0.0000
     5 C5        28.1254    35.5907    41.2015 C.ar       1 BB1          0.0000
     6 C6        29.2666    35.8006    40.4495 C.ar       1 BB1          0.0000
     7 C7        29.1924    36.5046    39.2575 C.ar       1 BB1          0.0000
     8 N8        30.3497    36.7175    38.4949 N.pl3      1 BB1          0.0000
     9 C9        27.9656    36.9948    38.8149 C.ar       1 BB1          0.0000
    10 O10       27.8898    37.6854    37.6457 O.3        1 BB1          0.0000
    11 H11       25.3513    38.3286    39.4931 H          1 BB1          0.0000
    12 H12       25.4863    37.3527    38.0107 H          1 BB1          0.0000
    13 H13       24.6980    36.6734    39.4548 H          1 BB1          0.0000
    14 H14       28.1849    35.0427    42.1301 H          1 BB1          0.0000
    15 H15       30.2164    35.4161    40.7910 H          1 BB1          0.0000
    16 H16       25.9446    35.4108    42.3401 H          1 BB1          0.0000
    17 H18       30.2972    37.2101    37.6609 H          1 BB1          0.0000
    18 H19       27.1790    38.3406    37.6213 H          1 BB1          0.0000
    19 C1        29.8470    40.1769    37.0204 C.3        2 BB2          0.0000
    20 O2        29.5265    38.8404    36.5520 O.3        2 BB2          0.0000
    21 C3        30.4062    37.8675    36.8373 C.2        2 BB2          0.0000
    22 O4        31.0770    37.9344    37.8400 O.2        2 BB2          0.0000
    23 C5        30.5572    36.6916    35.9068 C.3        2 BB2          0.0000
    24 C6        30.8471    37.1951    34.4915 C.3        2 BB2          0.0000
    25 C7        32.1411    38.0115    34.4956 C.3        2 BB2          0.0000
    26 C8        33.2984    37.1307    34.9707 C.3        2 BB2          0.0000
    27 C9        33.0085    36.6272    36.3861 C.3        2 BB2          0.0000
    28 C10       31.7145    35.8108    36.3819 C.3        2 BB2          0.0000
    29 S11       31.3707    35.2138    38.0600 S.o2       2 BB2          0.0000
    30 O12       32.4263    35.5702    38.9421 O.2        2 BB2          0.0000
    31 O13       30.0138    35.4543    38.4067 O.2        2 BB2          0.0000
    32 H15       29.0558    40.8653    36.7236 H          2 BB2          0.0000
    33 H16       29.9339    40.1700    38.1069 H          2 BB2          0.0000
    34 H17       30.7918    40.4987    36.5823 H          2 BB2          0.0000
    35 H18       29.6353    36.1099    35.9039 H          2 BB2          0.0000
    36 H19       30.9563    36.3446    33.8186 H          2 BB2          0.0000
    37 H20       30.0227    37.8226    34.1531 H          2 BB2          0.0000
    38 H21       32.3477    38.3703    33.4873 H          2 BB2          0.0000
    39 H22       32.0318    38.8620    35.1686 H          2 BB2          0.0000
    40 H23       33.4075    36.2802    34.2978 H          2 BB2          0.0000
    41 H24       34.2202    37.7124    34.9737 H          2 BB2          0.0000
    42 H25       33.8329    35.9996    36.7245 H          2 BB2          0.0000
    43 H26       32.8992    37.4777    37.0591 H          2 BB2          0.0000
    44 H27       31.8237    34.9602    35.7091 H          2 BB2          0.0000
@<TRIPOS>BOND
     1      1      2 1
     2      1     11 1
     3      1     12 1
     4      1     13 1
     5      2      3 ar
     6      2      9 ar
     7      3      4 1
     8      3      5 ar
     9      4     16 1
    10      5      6 ar
    11      5     14 1
    12      6      7 ar
    13      6     15 1
    14      7      8 1
    15      7      9 ar
    16      8     17 1
    17      9     10 1
    18     10     18 1
    19     19     20 1
    20     19     32 1
    21     19     33 1
    22     19     34 1
    23     20     21 1
    24     21     22 2
    25     21     23 1
    26     23     24 1
    27     23     28 1
    28     23     35 1
    29     24     25 1
    30     24     36 1
    31     24     37 1
    32     25     26 1
    33     25     38 1
    34     25     39 1
    35     26     27 1
    36     26     40 1
    37     26     41 1
    38     27     28 1
    39     27     42 1
    40     27     43 1
    41     28     29 1
    42     28     44 1
    43     29     30 2
    44     29     31 2
    45      8     29 1
@<TRIPOS>SUBSTRUCTURE
     1 BB1           8
     2 BB2          29
@<TRIPOS>MOLECULE
EN300-7549830_i001_EN300-125264_i004_11_6_10
  44   45   2   0   0
SMALL
USER_CHARGES
@<TRIPOS>ATOM
     1 C1        25.4984    37.3226    39.1002 C.3        1 BB1          0.0000
     2 C2        26.8257    36.7879    39.5731 C.ar       1 BB1          0.0000
     3 C3        26.9049    36.0832    40.7654 C.ar       1 BB1          0.0000
     4 O4        25.7842    35.8747    41.5070 O.3        1 BB1          0.0000
     5 C5        28.1254    35.5907    41.2015 C.ar       1 BB1          0.0000
     6 C6        29.2666    35.8006    40.4495 C.ar       1 BB1          0.0000
     7 C7        29.1924    36.5046    39.2575 C.ar       1 BB1          0.0000
     8 N8        30.3497    36.7175    38.4949 N.pl3      1 BB1          0.0000
     9 C9        27.9656    36.9948    38.8149 C.ar       1 BB1          0.0000
    10 O10       27.8898    37.6854    37.6457 O.3        1 BB1          0.0000
    11 H11       25.3513    38.3286    39.4931 H          1 BB1          0.0000
    12 H12       25.4863    37.3527    38.0107 H          1 BB1          0.0000
    13 H13       24.6980    36.6734    39.4548 H          1 BB1          0.0000
    14 H14       28.1849    35.0427    42.1301 H          1 BB1          0.0000
    15 H15       30.2164    35.4161    40.7910 H          1 BB1          0.0000
    16 H16       25.9446    35.4108    42.3401 H          1 BB1          0.0000
    17 H17       31.2028    36.3721    38.8012 H          1 BB1          0.0000
    18 H19       27.1790    38.3406    37.6213 H          1 BB1          0.0000
    19 C1        31.3088    33.5520    38.4987 C.3        2 BB2          0.0000
    20 O2        32.0474    34.7994    38.5809 O.3        2 BB2          0.0000
    21 C3        31.6525    35.7957    37.7727 C.2        2 BB2          0.0000
    22 O4        30.6075    35.7086    37.1724 O.2        2 BB2          0.0000
    23 C5        32.5126    37.0231    37.6140 C.3        2 BB2          0.0000
    24 C6        33.9304    36.6048    37.2194 C.3        2 BB2          0.0000
    25 C7        33.8864    35.8383    35.8960 C.3        2 BB2          0.0000
    26 C8        33.2975    36.7361    34.8059 C.3        2 BB2          0.0000
    27 C9        31.8797    37.1544    35.2005 C.3        2 BB2          0.0000
    28 C10       31.9238    37.9209    36.5239 C.3        2 BB2          0.0000
    29 S11       30.2428    38.4168    36.9917 S.o2       2 BB2          0.0000
    30 O12       29.3222    38.0954    35.9580 O.2        2 BB2          0.0000
    31 O13       29.9777    38.0675    38.3434 O.2        2 BB2          0.0000
    32 H15       31.7296    32.8337    39.2023 H          2 BB2          0.0000
    33 H16       30.2626    33.7323    38.7456 H          2 BB2          0.0000
    34 H17       31.3799    33.1537    37.4866 H          2 BB2          0.0000
    35 H18       32.5440    37.5691    38.5568 H          2 BB2          0.0000
    36 H19       34.5524    37.4924    37.1046 H          2 BB2          0.0000
    37 H20       34.3498    35.9651    37.9959 H          2 BB2          0.0000
    38 H21       34.8964    35.5402    35.6149 H          2 BB2          0.0000
    39 H22       33.2642    34.9506    36.0108 H          2 BB2          0.0000
    40 H23       33.9196    37.6238    34.6912 H          2 BB2          0.0000
    41 H24       33.2662    36.1900    33.8631 H          2 BB2          0.0000
    42 H25       31.4602    37.7941    34.4240 H          2 BB2          0.0000
    43 H26       31.2576    36.2667    35.3153 H          2 BB2          0.0000
    44 H27       32.5457    38.8086    36.4092 H          2 BB2          0.0000
@<TRIPOS>BOND
     1      1      2 1
     2      1     11 1
     3      1     12 1
     4      1     13 1
     5      2      3 ar
     6      2      9 ar
     7      3      4 1
     8      3      5 ar
     9      4     16 1
    10      5      6 ar
    11      5     14 1
    12      6      7 ar
    13      6     15 1
    14      7      8 1
    15      7      9 ar
    16      8     17 1
    17      9     10 1
    18     10     18 1
    19     19     20 1
    20     19     32 1
    21     19     33 1
    22     19     34 1
    23     20     21 1
    24     21     22 2
    25     21     23 1
    26     23     24 1
    27     23     28 1
    28     23     35 1
    29     24     25 1
    30     24     36 1
    31     24     37 1
    32     25     26 1
    33     25     38 1
    34     25     39 1
    35     26     27 1
    36     26     40 1
    37     26     41 1
    38     27     28 1
    39     27     42 1
    40     27     43 1
    41     28     29 1
    42     28     44 1
    43     29     30 2
    44     29     31 2
    45      8     29 1
@<TRIPOS>SUBSTRUCTURE
     1 BB1           8
     2 BB2          29
@<TRIPOS>MOLECULE
EN300-7549830_i001_EN300-93482_i002_12_15_10
  38   39   2   0   0
SMALL
USER_CHARGES
@<TRIPOS>ATOM
     1 C1        30.6837    37.9943    34.8610 C.3        1 BB1          0.0000
     2 C2        31.3747    37.0661    35.8264 C.ar       1 BB1          0.0000
     3 C3        32.5570    36.4392    35.4608 C.ar       1 BB1          0.0000
     4 O4        33.0924    36.6631    34.2309 O.3        1 BB1          0.0000
     5 C5        33.1937    35.5851    36.3482 C.ar       1 BB1          0.0000
     6 C6        32.6521    35.3558    37.5995 C.ar       1 BB1          0.0000
     7 C7        31.4706    35.9797    37.9693 C.ar       1 BB1          0.0000
     8 N8        30.9213    35.7471    39.2383 N.pl3      1 BB1          0.0000
     9 C9        30.8329    36.8430    37.0809 C.ar       1 BB1          0.0000
    10 O10       29.6739    37.4567    37.4411 O.3        1 BB1          0.0000
    11 H11       29.9809    37.4265    34.2512 H          1 BB1          0.0000
    12 H12       30.1450    38.7615    35.4171 H          1 BB1          0.0000
    13 H13       31.4254    38.4660    34.2165 H          1 BB1          0.0000
    14 H14       34.1138    35.0979    36.0614 H          1 BB1          0.0000
    15 H15       33.1497    34.6901    38.2893 H          1 BB1          0.0000
    16 H16       32.5477    36.3399    33.5001 H          1 BB1          0.0000
    17 H17       31.3680    35.1495    39.8581 H          1 BB1          0.0000
    18 H19       29.2193    37.0345    38.1829 H          1 BB1          0.0000
    19 C1        28.5011    35.7928    41.7715 C.3        2 BB2          0.0000
    20 C2        27.2496    35.8422    40.8927 C.3        2 BB2          0.0000
    21 C3        26.2755    36.8917    41.4401 C.3        2 BB2          0.0000
    22 O4        25.1995    37.0631    40.5145 O.3        2 BB2          0.0000
    23 C5        25.6014    37.5568    39.2345 C.3        2 BB2          0.0000
    24 C6        26.5410    36.5412    38.5742 C.3        2 BB2          0.0000
    25 N7        27.6218    36.2248    39.5214 N.pl3      2 BB2          0.0000
    26 S8        29.2099    36.2975    39.0579 S.o2       2 BB2          0.0000
    27 O9        29.8196    37.2920    39.8694 O.2        2 BB2          0.0000
    28 O10       29.6715    34.9550    38.9954 O.2        2 BB2          0.0000
    29 H12       28.2406    35.3959    42.7527 H          2 BB2          0.0000
    30 H13       29.2471    35.1490    41.3055 H          2 BB2          0.0000
    31 H14       28.9071    36.7982    41.8825 H          2 BB2          0.0000
    32 H15       26.7685    34.8641    40.8838 H          2 BB2          0.0000
    33 H16       25.8808    36.5570    42.3993 H          2 BB2          0.0000
    34 H17       26.7976    37.8396    41.5710 H          2 BB2          0.0000
    35 H18       24.7217    37.7004    38.6070 H          2 BB2          0.0000
    36 H19       26.1210    38.5070    39.3575 H          2 BB2          0.0000
    37 H20       25.9883    35.6337    38.3312 H          2 BB2          0.0000
    38 H21       26.9634    36.9690    37.6649 H          2 BB2          0.0000
@<TRIPOS>BOND
     1      1      2 1
     2      1     11 1
     3      1     12 1
     4      1     13 1
     5      2      3 ar
     6      2      9 ar
     7      3      4 1
     8      3      5 ar
     9      4     16 1
    10      5      6 ar
    11      5     14 1
    12      6      7 ar
    13      6     15 1
    14      7      8 1
    15      7      9 ar
    16      8     17 1
    17      9     10 1
    18     10     18 1
    19     19     20 1
    20     19     29 1
    21     19     30 1
    22     19     31 1
    23     20     21 1
    24     20     25 1
    25     20     32 1
    26     21     22 1
    27     21     33 1
    28     21     34 1
    29     22     23 1
    30     23     24 1
    31     23     35 1
    32     23     36 1
    33     24     25 1
    34     24     37 1
    35     24     38 1
    36     25     26 1
    37     26     27 2
    38     26     28 2
    39      8     26 1
@<TRIPOS>SUBSTRUCTURE
     1 BB1           8
     2 BB2          26
@<TRIPOS>MOLECULE
EN300-7549830_i001_EN300-81521_i001_12_5_10
  34   35   2   0   0
SMALL
USER_CHARGES
@<TRIPOS>ATOM
     1 C1        30.6837    37.9943    34.8610 C.3        1 BB1          0.0000
     2 C2        31.3747    37.0661    35.8264 C.ar       1 BB1          0.0000
     3 C3        32.5570    36.4392    35.4608 C.ar       1 BB1          0.0000
     4 O4        33.0924    36.6631    34.2309 O.3        1 BB1          0.0000
     5 C5        33.1937    35.5851    36.3482 C.ar       1 BB1          0.0000
     6 C6        32.6521    35.3558    37.5995 C.ar       1 BB1          0.0000
     7 C7        31.4706    35.9797    37.9693 C.ar       1 BB1          0.0000
     8 N8        30.9213    35.7471    39.2383 N.pl3      1 BB1          0.0000
     9 C9        30.8329    36.8430    37.0809 C.ar       1 BB1          0.0000
    10 O10       29.6739    37.4567    37.4411 O.3        1 BB1          0.0000
    11 H11       29.9809    37.4265    34.2512 H          1 BB1          0.0000
    12 H12       30.1450    38.7615    35.4171 H          1 BB1          0.0000
    13 H13       31.4254    38.4660    34.2165 H          1 BB1          0.0000
    14 H14       34.1138    35.0979    36.0614 H          1 BB1          0.0000
    15 H15       33.1497    34.6901    38.2893 H          1 BB1          0.0000
    16 H16       32.5477    36.3399    33.5001 H          1 BB1          0.0000
    17 H17       31.3680    35.1495    39.8581 H          1 BB1          0.0000
    18 H19       29.2193    37.0345    38.1829 H          1 BB1          0.0000
    19 C1        28.7703    36.2182    41.7836 C.3        2 BB2          0.0000
    20 N2        28.0493    36.2782    40.5097 N.pl3      2 BB2          0.0000
    21 C3        26.5901    36.1496    40.4871 C.3        2 BB2          0.0000
    22 C4        25.7874    37.0423    41.4356 C.3        2 BB2          0.0000
    23 C5        25.7857    37.3269    39.9322 C.3        2 BB2          0.0000
    24 S6        28.8837    36.4914    39.0953 S.o2       2 BB2          0.0000
    25 O7        27.9214    36.4444    38.0507 O.2        2 BB2          0.0000
    26 O8        29.7510    37.5976    39.3038 O.2        2 BB2          0.0000
    27 H10       29.0405    35.1845    41.9998 H          2 BB2          0.0000
    28 H11       29.6742    36.8239    41.7184 H          2 BB2          0.0000
    29 H12       28.1328    36.6013    42.5803 H          2 BB2          0.0000
    30 H13       26.2095    35.1459    40.2978 H          2 BB2          0.0000
    31 H14       24.8785    36.6260    41.8699 H          2 BB2          0.0000
    32 H15       26.3449    37.7253    42.0764 H          2 BB2          0.0000
    33 H16       26.3421    38.1971    39.5841 H          2 BB2          0.0000
    34 H17       24.8757    37.0978    39.3776 H          2 BB2          0.0000
@<TRIPOS>BOND
     1      1      2 1
     2      1     11 1
     3      1     12 1
     4      1     13 1
     5      2      3 ar
     6      2      9 ar
     7      3      4 1
     8      3      5 ar
     9      4     16 1
    10      5      6 ar
    11      5     14 1
    12      6      7 ar
    13      6     15 1
    14      7      8 1
    15      7      9 ar
    16      8     17 1
    17      9     10 1
    18     10     18 1
    19     19     20 1
    20     19     27 1
    21     19     28 1
    22     19     29 1
    23     20     21 1
    24     20     24 1
    25     21     22 1
    26     21     23 1
    27     21     30 1
    28     22     23 1
    29     22     31 1
    30     22     32 1
    31     23     33 1
    32     23     34 1
    33     24     25 2
    34     24     26 2
    35      8     24 1
@<TRIPOS>SUBSTRUCTURE
     1 BB1           8
     2 BB2          24
@<TRIPOS>MOLECULE
EN300-7549830_i001_EN300-23873_i001_12_16_10
  36   36   2   0   0
SMALL
USER_CHARGES
@<TRIPOS>ATOM
     1 C1        30.6837    37.9943    34.8610 C.3        1 BB1          0.0000
     2 C2        31.3747    37.0661    35.8264 C.ar       1 BB1          0.0000
     3 C3        32.5570    36.4392    35.4608 C.ar       1 BB1          0.0000
     4 O4        33.0924    36.6631    34.2309 O.3        1 BB1          0.0000
     5 C5        33.1937    35.5851    36.3482 C.ar       1 BB1          0.0000
     6 C6        32.6521    35.3558    37.5995 C.ar       1 BB1          0.0000
     7 C7        31.4706    35.9797    37.9693 C.ar       1 BB1          0.0000
     8 N8        30.9213    35.7471    39.2383 N.pl3      1 BB1          0.0000
     9 C9        30.8329    36.8430    37.0809 C.ar       1 BB1          0.0000
    10 O10       29.6739    37.4567    37.4411 O.3        1 BB1          0.0000
    11 H11       29.9809    37.4265    34.2512 H          1 BB1          0.0000
    12 H12       30.1450    38.7615    35.4171 H          1 BB1          0.0000
    13 H13       31.4254    38.4660    34.2165 H          1 BB1          0.0000
    14 H14       34.1138    35.0979    36.0614 H          1 BB1          0.0000
    15 H15       33.1497    34.6901    38.2893 H          1 BB1          0.0000
    16 H16       32.5477    36.3399    33.5001 H          1 BB1          0.0000
    17 H17       31.3680    35.1495    39.8581 H          1 BB1          0.0000
    18 H19       29.2193    37.0345    38.1829 H          1 BB1          0.0000
    19 C1        25.6678    37.3007    39.7768 C.3        2 BB2          0.0000
    20 C2        26.5355    36.5234    38.7851 C.3        2 BB2          0.0000
    21 N3        27.8519    36.2749    39.3781 N.pl3      2 BB2          0.0000
    22 C4        27.9627    35.5020    40.6177 C.3        2 BB2          0.0000
    23 C5        28.4980    36.4015    41.7335 C.3        2 BB2          0.0000
    24 S6        29.2145    36.8678    38.6473 S.o2       2 BB2          0.0000
    25 O7        29.9322    37.5745    39.6497 O.2        2 BB2          0.0000
    26 O8        29.7720    35.7920    37.9049 O.2        2 BB2          0.0000
    27 H10       25.5505    36.7186    40.6909 H          2 BB2          0.0000
    28 H11       26.1464    38.2518    40.0106 H          2 BB2          0.0000
    29 H12       24.6885    37.4856    39.3356 H          2 BB2          0.0000
    30 H13       26.0569    35.5723    38.5513 H          2 BB2          0.0000
    31 H14       26.6528    37.1054    37.8710 H          2 BB2          0.0000
    32 H15       26.9804    35.1213    40.8976 H          2 BB2          0.0000
    33 H16       28.6461    34.6666    40.4651 H          2 BB2          0.0000
    34 H17       28.5804    35.8265    42.6558 H          2 BB2          0.0000
    35 H18       29.4802    36.7822    41.4536 H          2 BB2          0.0000
    36 H19       27.8145    37.2369    41.8861 H          2 BB2          0.0000
@<TRIPOS>BOND
     1      1      2 1
     2      1     11 1
     3      1     12 1
     4      1     13 1
     5      2      3 ar
     6      2      9 ar
     7      3      4 1
     8      3      5 ar
     9      4     16 1
    10      5      6 ar
    11      5     14 1
    12      6      7 ar
    13      6     15 1
    14      7      8 1
    15      7      9 ar
    16      8     17 1
    17      9     10 1
    18     10     18 1
    19     19     20 1
    20     19     27 1
    21     19     28 1
    22     19     29 1
    23     20     21 1
    24     20     30 1
    25     20     31 1
    26     21     22 1
    27     21     24 1
    28     22     23 1
    29     22     32 1
    30     22     33 1
    31     23     34 1
    32     23     35 1
    33     23     36 1
    34     24     25 2
    35     24     26 2
    36      8     24 1
@<TRIPOS>SUBSTRUCTURE
     1 BB1           8
     2 BB2          24
@<TRIPOS>MOLECULE
EN300-7549830_i001_EN300-96185_i001_13_5_10
  35   36   2   0   0
SMALL
USER_CHARGES
@<TRIPOS>ATOM
     1 C1        32.9176    35.8982    36.8715 C.3        1 BB1          0.0000
     2 C2        32.2179    36.9496    36.0493 C.ar       1 BB1          0.0000
     3 C3        32.7187    37.3047    34.8052 C.ar       1 BB1          0.0000
     4 O4        33.8409    36.7030    34.3278 O.3        1 BB1          0.0000
     5 C5        32.0758    38.2719    34.0478 C.ar       1 BB1          0.0000
     6 C6        30.9343    38.8851    34.5303 C.ar       1 BB1          0.0000
     7 C7        30.4304    38.5339    35.7732 C.ar       1 BB1          0.0000
     8 N8        29.2728    39.1558    36.2625 N.pl3      1 BB1          0.0000
     9 C9        31.0719    37.5577    36.5327 C.ar       1 BB1          0.0000
    10 O10       30.5795    37.2110    37.7522 O.3        1 BB1          0.0000
    11 H11       33.6632    36.3726    37.5096 H          1 BB1          0.0000
    12 H12       32.1881    35.3765    37.4910 H          1 BB1          0.0000
    13 H13       33.4076    35.1851    36.2086 H          1 BB1          0.0000
    14 H14       32.4675    38.5470    33.0798 H          1 BB1          0.0000
    15 H15       30.4351    39.6383    33.9387 H          1 BB1          0.0000
    16 H16       34.4085    37.2868    33.8060 H          1 BB1          0.0000
    17 H17       28.8241    39.8321    35.7313 H          1 BB1          0.0000
    18 H19       29.8471    36.5805    37.7158 H          1 BB1          0.0000
    19 S2        29.0492    38.1411    37.3982 S.o2       2 BB2          0.0000
    20 O3        29.9181    37.9715    38.5097 O.2        2 BB2          0.0000
    21 O4        28.6121    39.4334    37.0003 O.2        2 BB2          0.0000
    22 C5        27.6434    37.0000    37.5092 C.3        2 BB2          0.0000
    23 C6        27.1759    36.9166    38.9395 C.ar       2 BB2          0.0000
    24 C7        25.9352    37.4146    39.2913 C.ar       2 BB2          0.0000
    25 C8        25.5061    37.3377    40.6029 C.ar       2 BB2          0.0000
    26 C9        26.3176    36.7633    41.5638 C.ar       2 BB2          0.0000
    27 C10       27.5580    36.2653    41.2129 C.ar       2 BB2          0.0000
    28 C11       27.9856    36.3368    39.8991 C.ar       2 BB2          0.0000
    29 Br12      29.6828    35.6555    39.4184 Br         2 BB2          0.0000
    30 H13       26.8298    37.3636    36.8816 H          2 BB2          0.0000
    31 H14       27.9504    36.0110    37.1691 H          2 BB2          0.0000
    32 H15       25.3012    37.8640    38.5413 H          2 BB2          0.0000
    33 H16       24.5367    37.7268    40.8775 H          2 BB2          0.0000
    34 H17       25.9822    36.7041    42.5886 H          2 BB2          0.0000
    35 H18       28.1919    35.8169    41.9635 H          2 BB2          0.0000
@<TRIPOS>BOND
     1      1      2 1
     2      1     11 1
     3      1     12 1
     4      1     13 1
     5      2      3 ar
     6      2      9 ar
     7      3      4 1
     8      3      5 ar
     9      4     16 1
    10      5      6 ar
    11      5     14 1
    12      6      7 ar
    13      6     15 1
    14      7      8 1
    15      7      9 ar
    16      8     17 1
    17      9     10 1
    18     10     18 1
    19     19     20 2
    20     19     21 2
    21     19     22 1
    22     22     23 1
    23     22     30 1
    24     22     31 1
    25     23     24 ar
    26     23     28 ar
    27     24     25 ar
    28     24     32 1
    29     25     26 ar
    30     25     33 1
    31     26     27 ar
    32     26     34 1
    33     27     28 ar
    34     27     35 1
    35     28     29 1
    36      8     19 1
@<TRIPOS>SUBSTRUCTURE
     1 BB1           8
     2 BB2          19
@<TRIPOS>MOLECULE
EN300-7549830_i001_EN300-23873_i001_13_4_10
  36   36   2   0   0
SMALL
USER_CHARGES
@<TRIPOS>ATOM
     1 C1        32.9176    35.8982    36.8715 C.3        1 BB1          0.0000
     2 C2        32.2179    36.9496    36.0493 C.ar       1 BB1          0.0000
     3 C3        32.7187    37.3047    34.8052 C.ar       1 BB1          0.0000
     4 O4        33.8409    36.7030    34.3278 O.3        1 BB1          0.0000
     5 C5        32.0758    38.2719    34.0478 C.ar       1 BB1          0.0000
     6 C6        30.9343    38.8851    34.5303 C.ar       1 BB1          0.0000
     7 C7        30.4304    38.5339    35.7732 C.ar       1 BB1          0.0000
     8 N8        29.2728    39.1558    36.2625 N.pl3      1 BB1          0.0000
     9 C9        31.0719    37.5577    36.5327 C.ar       1 BB1          0.0000
    10 O10       30.5795    37.2110    37.7522 O.3        1 BB1          0.0000
    11 H11       33.6632    36.3726    37.5096 H          1 BB1          0.0000
    12 H12       32.1881    35.3765    37.4910 H          1 BB1          0.0000
    13 H13       33.4076    35.1851    36.2086 H          1 BB1          0.0000
    14 H14       32.4675    38.5470    33.0798 H          1 BB1          0.0000
    15 H15       30.4351    39.6383    33.9387 H          1 BB1          0.0000
    16 H16       34.4085    37.2868    33.8060 H          1 BB1          0.0000
    17 H17       28.8241    39.8321    35.7313 H          1 BB1          0.0000
    18 H19       29.8471    36.5805    37.7158 H          1 BB1          0.0000
    19 C1        25.8911    36.7001    39.6183 C.3        2 BB2          0.0000
    20 C2        26.9379    36.7951    38.5066 C.3        2 BB2          0.0000
    21 N3        28.2595    36.4749    39.0515 N.pl3      2 BB2          0.0000
    22 C4        28.3730    35.7355    40.3111 C.3        2 BB2          0.0000
    23 C5        28.7636    36.6983    41.4342 C.3        2 BB2          0.0000
    24 S6        29.6253    36.9488    38.2436 S.o2       2 BB2          0.0000
    25 O7        29.3609    36.7555    36.8609 O.2        2 BB2          0.0000
    26 O8        30.0026    38.2030    38.7949 O.2        2 BB2          0.0000
    27 H10       25.8817    35.6881    40.0231 H          2 BB2          0.0000
    28 H11       26.1380    37.4063    40.4112 H          2 BB2          0.0000
    29 H12       24.9078    36.9384    39.2128 H          2 BB2          0.0000
    30 H13       26.6910    36.0889    37.7138 H          2 BB2          0.0000
    31 H14       26.9472    37.8070    38.1018 H          2 BB2          0.0000
    32 H15       27.4156    35.2710    40.5473 H          2 BB2          0.0000
    33 H16       29.1365    34.9640    40.2121 H          2 BB2          0.0000
    34 H17       28.8479    36.1482    42.3715 H          2 BB2          0.0000
    35 H18       29.7209    37.1628    41.1981 H          2 BB2          0.0000
    36 H19       27.9999    37.4699    41.5333 H          2 BB2          0.0000
@<TRIPOS>BOND
     1      1      2 1
     2      1     11 1
     3      1     12 1
     4      1     13 1
     5      2      3 ar
     6      2      9 ar
     7      3      4 1
     8      3      5 ar
     9      4     16 1
    10      5      6 ar
    11      5     14 1
    12      6      7 ar
    13      6     15 1
    14      7      8 1
    15      7      9 ar
    16      8     17 1
    17      9     10 1
    18     10     18 1
    19     19     20 1
    20     19     27 1
    21     19     28 1
    22     19     29 1
    23     20     21 1
    24     20     30 1
    25     20     31 1
    26     21     22 1
    27     21     24 1
    28     22     23 1
    29     22     32 1
    30     22     33 1
    31     23     34 1
    32     23     35 1
    33     23     36 1
    34     24     25 2
    35     24     26 2
    36      8     24 1
@<TRIPOS>SUBSTRUCTURE
     1 BB1           8
     2 BB2          24
@<TRIPOS>MOLECULE
EN300-7549830_i001_EN300-93482_i002_19_13_10
  38   39   2   0   0
SMALL
USER_CHARGES
@<TRIPOS>ATOM
     1 C1        25.6225    36.3876    41.2256 C.3        1 BB1          0.0000
     2 C2        26.9167    36.4848    40.4594 C.ar       1 BB1          0.0000
     3 C3        28.0719    35.9139    40.9732 C.ar       1 BB1          0.0000
     4 O4        28.0358    35.2658    42.1683 O.3        1 BB1          0.0000
     5 C5        29.2631    36.0026    40.2693 C.ar       1 BB1          0.0000
     6 C6        29.3029    36.6605    39.0538 C.ar       1 BB1          0.0000
     7 C7        28.1511    37.2330    38.5365 C.ar       1 BB1          0.0000
     8 N8        28.1915    37.9001    37.3038 N.pl3      1 BB1          0.0000
     9 C9        26.9520    37.1393    39.2398 C.ar       1 BB1          0.0000
    10 O10       25.8205    37.6997    38.7346 O.3        1 BB1          0.0000
    11 H11       25.5306    37.2440    41.8935 H          1 BB1          0.0000
    12 H12       24.7863    36.3805    40.5266 H          1 BB1          0.0000
    13 H13       25.6149    35.4680    41.8106 H          1 BB1          0.0000
    14 H14       30.1613    35.5577    40.6712 H          1 BB1          0.0000
    15 H15       30.2318    36.7285    38.5070 H          1 BB1          0.0000
    16 H16       27.1490    35.1857    42.5456 H          1 BB1          0.0000
    17 H18       27.3852    38.3005    36.9424 H          1 BB1          0.0000
    18 H19       25.9811    38.3477    38.0350 H          1 BB1          0.0000
    19 C1        32.9953    36.7798    35.1939 C.3        2 BB2          0.0000
    20 C2        32.0546    35.9993    36.1141 C.3        2 BB2          0.0000
    21 C3        32.8314    35.4875    37.3325 C.3        2 BB2          0.0000
    22 O4        31.9138    34.9236    38.2728 O.3        2 BB2          0.0000
    23 C5        30.9662    35.8566    38.7976 C.3        2 BB2          0.0000
    24 C6        30.0940    36.3872    37.6541 C.3        2 BB2          0.0000
    25 N7        30.9782    36.8838    36.5879 N.pl3      2 BB2          0.0000
    26 S8        30.7684    38.3935    35.9406 S.o2       2 BB2          0.0000
    27 O9        31.9479    39.1266    36.2416 O.2        2 BB2          0.0000
    28 O10       30.2906    38.1995    34.6165 O.2        2 BB2          0.0000
    29 H12       33.7206    36.0967    34.7517 H          2 BB2          0.0000
    30 H13       32.4167    37.2571    34.4031 H          2 BB2          0.0000
    31 H14       33.5191    37.5417    35.7714 H          2 BB2          0.0000
    32 H15       31.6260    35.1566    35.5716 H          2 BB2          0.0000
    33 H16       33.5434    34.7252    37.0166 H          2 BB2          0.0000
    34 H17       33.3661    36.3158    37.7976 H          2 BB2          0.0000
    35 H18       30.3364    35.3596    39.5355 H          2 BB2          0.0000
    36 H19       31.4942    36.6862    39.2679 H          2 BB2          0.0000
    37 H20       29.4674    35.5837    37.2671 H          2 BB2          0.0000
    38 H21       29.4658    37.2002    38.0184 H          2 BB2          0.0000
@<TRIPOS>BOND
     1      1      2 1
     2      1     11 1
     3      1     12 1
     4      1     13 1
     5      2      3 ar
     6      2      9 ar
     7      3      4 1
     8      3      5 ar
     9      4     16 1
    10      5      6 ar
    11      5     14 1
    12      6      7 ar
    13      6     15 1
    14      7      8 1
    15      7      9 ar
    16      8     17 1
    17      9     10 1
    18     10     18 1
    19     19     20 1
    20     19     29 1
    21     19     30 1
    22     19     31 1
    23     20     21 1
    24     20     25 1
    25     20     32 1
    26     21     22 1
    27     21     33 1
    28     21     34 1
    29     22     23 1
    30     23     24 1
    31     23     35 1
    32     23     36 1
    33     24     25 1
    34     24     37 1
    35     24     38 1
    36     25     26 1
    37     26     27 2
    38     26     28 2
    39      8     26 1
@<TRIPOS>SUBSTRUCTURE
     1 BB1           8
     2 BB2          26
@<TRIPOS>MOLECULE
EN300-7549830_i001_EN300-81521_i001_19_6_10
  34   35   2   0   0
SMALL
USER_CHARGES
@<TRIPOS>ATOM
     1 C1        25.6225    36.3876    41.2256 C.3        1 BB1          0.0000
     2 C2        26.9167    36.4848    40.4594 C.ar       1 BB1          0.0000
     3 C3        28.0719    35.9139    40.9732 C.ar       1 BB1          0.0000
     4 O4        28.0358    35.2658    42.1683 O.3        1 BB1          0.0000
     5 C5        29.2631    36.0026    40.2693 C.ar       1 BB1          0.0000
     6 C6        29.3029    36.6605    39.0538 C.ar       1 BB1          0.0000
     7 C7        28.1511    37.2330    38.5365 C.ar       1 BB1          0.0000
     8 N8        28.1915    37.9001    37.3038 N.pl3      1 BB1          0.0000
     9 C9        26.9520    37.1393    39.2398 C.ar       1 BB1          0.0000
    10 O10       25.8205    37.6997    38.7346 O.3        1 BB1          0.0000
    11 H11       25.5306    37.2440    41.8935 H          1 BB1          0.0000
    12 H12       24.7863    36.3805    40.5266 H          1 BB1          0.0000
    13 H13       25.6149    35.4680    41.8106 H          1 BB1          0.0000
    14 H14       30.1613    35.5577    40.6712 H          1 BB1          0.0000
    15 H15       30.2318    36.7285    38.5070 H          1 BB1          0.0000
    16 H16       27.1490    35.1857    42.5456 H          1 BB1          0.0000
    17 H18       27.3852    38.3005    36.9424 H          1 BB1          0.0000
    18 H19       25.9811    38.3477    38.0350 H          1 BB1          0.0000
    19 C1        32.5096    36.1058    37.8709 C.3        2 BB2          0.0000
    20 N2        31.7215    36.7036    36.7903 N.pl3      2 BB2          0.0000
    21 C3        32.1227    36.5058    35.3952 C.3        2 BB2          0.0000
    22 C4        32.5729    37.7381    34.6080 C.3        2 BB2          0.0000
    23 C5        33.6015    36.6960    35.0518 C.3        2 BB2          0.0000
    24 S6        30.3772    37.6029    37.1455 S.o2       2 BB2          0.0000
    25 O7        29.3299    37.0996    36.3274 O.2        2 BB2          0.0000
    26 O8        30.2964    37.6611    38.5631 O.2        2 BB2          0.0000
    27 H10       33.2843    36.8052    38.1853 H          2 BB2          0.0000
    28 H11       31.8575    35.8823    38.7153 H          2 BB2          0.0000
    29 H12       32.9733    35.1854    37.5163 H          2 BB2          0.0000
    30 H13       31.5751    35.7348    34.8533 H          2 BB2          0.0000
    31 H14       32.3217    37.7777    33.5482 H          2 BB2          0.0000
    32 H15       32.5705    38.6961    35.1281 H          2 BB2          0.0000
    33 H16       34.2758    36.9684    35.8637 H          2 BB2          0.0000
    34 H17       34.0271    36.0501    34.2838 H          2 BB2          0.0000
@<TRIPOS>BOND
     1      1      2 1
     2      1     11 1
     3      1     12 1
     4      1     13 1
     5      2      3 ar
     6      2      9 ar
     7      3      4 1
     8      3      5 ar
     9      4     16 1
    10      5      6 ar
    11      5     14 1
    12      6      7 ar
    13      6     15 1
    14      7      8 1
    15      7      9 ar
    16      8     17 1
    17      9     10 1
    18     10     18 1
    19     19     20 1
    20     19     27 1
    21     19     28 1
    22     19     29 1
    23     20     21 1
    24     20     24 1
    25     21     22 1
    26     21     23 1
    27     21     30 1
    28     22     23 1
    29     22     31 1
    30     22     32 1
    31     23     33 1
    32     23     34 1
    33     24     25 2
    34     24     26 2
    35      8     24 1
@<TRIPOS>SUBSTRUCTURE
     1 BB1           8
     2 BB2          24
@<TRIPOS>MOLECULE
EN300-7549830_i001_EN300-23873_i001_19_12_10
  36   36   2   0   0
SMALL
USER_CHARGES
@<TRIPOS>ATOM
     1 C1        25.6225    36.3876    41.2256 C.3        1 BB1          0.0000
     2 C2        26.9167    36.4848    40.4594 C.ar       1 BB1          0.0000
     3 C3        28.0719    35.9139    40.9732 C.ar       1 BB1          0.0000
     4 O4        28.0358    35.2658    42.1683 O.3        1 BB1          0.0000
     5 C5        29.2631    36.0026    40.2693 C.ar       1 BB1          0.0000
     6 C6        29.3029    36.6605    39.0538 C.ar       1 BB1          0.0000
     7 C7        28.1511    37.2330    38.5365 C.ar       1 BB1          0.0000
     8 N8        28.1915    37.9001    37.3038 N.pl3      1 BB1          0.0000
     9 C9        26.9520    37.1393    39.2398 C.ar       1 BB1          0.0000
    10 O10       25.8205    37.6997    38.7346 O.3        1 BB1          0.0000
    11 H11       25.5306    37.2440    41.8935 H          1 BB1          0.0000
    12 H12       24.7863    36.3805    40.5266 H          1 BB1          0.0000
    13 H13       25.6149    35.4680    41.8106 H          1 BB1          0.0000
    14 H14       30.1613    35.5577    40.6712 H          1 BB1          0.0000
    15 H15       30.2318    36.7285    38.5070 H          1 BB1          0.0000
    16 H16       27.1490    35.1857    42.5456 H          1 BB1          0.0000
    17 H18       27.3852    38.3005    36.9424 H          1 BB1          0.0000
    18 H19       25.9811    38.3477    38.0350 H          1 BB1          0.0000
    19 C1        32.1237    34.4707    37.6796 C.3        2 BB2          0.0000
    20 C2        32.3911    35.9674    37.8497 C.3        2 BB2          0.0000
    21 N3        32.1314    36.6569    36.5835 N.pl3      2 BB2          0.0000
    22 C4        32.9757    36.3884    35.4167 C.3        2 BB2          0.0000
    23 C5        32.6994    37.4352    34.3356 C.3        2 BB2          0.0000
    24 S6        30.8836    37.7399    36.4710 S.o2       2 BB2          0.0000
    25 O7        31.4766    39.0294    36.4021 O.2        2 BB2          0.0000
    26 O8        30.0028    37.2353    35.4767 O.2        2 BB2          0.0000
    27 H10       31.0842    34.3179    37.3893 H          2 BB2          0.0000
    28 H11       32.7795    34.0699    36.9066 H          2 BB2          0.0000
    29 H12       32.3169    33.9577    38.6218 H          2 BB2          0.0000
    30 H13       31.7352    36.3681    38.6227 H          2 BB2          0.0000
    31 H14       33.4304    36.1202    38.1401 H          2 BB2          0.0000
    32 H15       34.0248    36.4357    35.7087 H          2 BB2          0.0000
    33 H16       32.7515    35.3955    35.0268 H          2 BB2          0.0000
    34 H17       33.3277    37.2355    33.4674 H          2 BB2          0.0000
    35 H18       31.6504    37.3878    34.0435 H          2 BB2          0.0000
    36 H19       32.9237    38.4281    34.7255 H          2 BB2          0.0000
@<TRIPOS>BOND
     1      1      2 1
     2      1     11 1
     3      1     12 1
     4      1     13 1
     5      2      3 ar
     6      2      9 ar
     7      3      4 1
     8      3      5 ar
     9      4     16 1
    10      5      6 ar
    11      5     14 1
    12      6      7 ar
    13      6     15 1
    14      7      8 1
    15      7      9 ar
    16      8     17 1
    17      9     10 1
    18     10     18 1
    19     19     20 1
    20     19     27 1
    21     19     28 1
    22     19     29 1
    23     20     21 1
    24     20     30 1
    25     20     31 1
    26     21     22 1
    27     21     24 1
    28     22     23 1
    29     22     32 1
    30     22     33 1
    31     23     34 1
    32     23     35 1
    33     23     36 1
    34     24     25 2
    35     24     26 2
    36      8     24 1
@<TRIPOS>SUBSTRUCTURE
     1 BB1           8
     2 BB2          24
@<TRIPOS>MOLECULE
EN300-7549830_i001_EN300-125264_i004_19_11_10
  44   45   2   0   0
SMALL
USER_CHARGES
@<TRIPOS>ATOM
     1 C1        25.6225    36.3876    41.2256 C.3        1 BB1          0.0000
     2 C2        26.9167    36.4848    40.4594 C.ar       1 BB1          0.0000
     3 C3        28.0719    35.9139    40.9732 C.ar       1 BB1          0.0000
     4 O4        28.0358    35.2658    42.1683 O.3        1 BB1          0.0000
     5 C5        29.2631    36.0026    40.2693 C.ar       1 BB1          0.0000
     6 C6        29.3029    36.6605    39.0538 C.ar       1 BB1          0.0000
     7 C7        28.1511    37.2330    38.5365 C.ar       1 BB1          0.0000
     8 N8        28.1915    37.9001    37.3038 N.pl3      1 BB1          0.0000
     9 C9        26.9520    37.1393    39.2398 C.ar       1 BB1          0.0000
    10 O10       25.8205    37.6997    38.7346 O.3        1 BB1          0.0000
    11 H11       25.5306    37.2440    41.8935 H          1 BB1          0.0000
    12 H12       24.7863    36.3805    40.5266 H          1 BB1          0.0000
    13 H13       25.6149    35.4680    41.8106 H          1 BB1          0.0000
    14 H14       30.1613    35.5577    40.6712 H          1 BB1          0.0000
    15 H15       30.2318    36.7285    38.5070 H          1 BB1          0.0000
    16 H16       27.1490    35.1857    42.5456 H          1 BB1          0.0000
    17 H18       27.3852    38.3005    36.9424 H          1 BB1          0.0000
    18 H19       25.9811    38.3477    38.0350 H          1 BB1          0.0000
    19 C1        30.5001    34.2599    38.5373 C.3        2 BB2          0.0000
    20 O2        30.8333    35.6140    38.1329 O.3        2 BB2          0.0000
    21 C3        32.0043    35.7905    37.5008 C.2        2 BB2          0.0000
    22 O4        32.6334    34.8334    37.1160 O.2        2 BB2          0.0000
    23 C5        32.5343    37.1825    37.2711 C.3        2 BB2          0.0000
    24 C6        33.8795    37.1029    36.5467 C.3        2 BB2          0.0000
    25 C7        33.6932    36.3996    35.2007 C.3        2 BB2          0.0000
    26 C8        32.6996    37.1891    34.3460 C.3        2 BB2          0.0000
    27 C9        31.3543    37.2687    35.0705 C.3        2 BB2          0.0000
    28 C10       31.5407    37.9720    36.4165 C.3        2 BB2          0.0000
    29 S11       29.9458    38.0663    37.2754 S.o2       2 BB2          0.0000
    30 O12       28.9675    37.2902    36.5973 O.2        2 BB2          0.0000
    31 O13       30.1281    37.9505    38.6799 O.2        2 BB2          0.0000
    32 H15       29.5308    34.2578    39.0357 H          2 BB2          0.0000
    33 H16       30.4577    33.6180    37.6574 H          2 BB2          0.0000
    34 H17       31.2618    33.8875    39.2224 H          2 BB2          0.0000
    35 H18       32.6671    37.6835    38.2300 H          2 BB2          0.0000
    36 H19       34.2629    38.1096    36.3806 H          2 BB2          0.0000
    37 H20       34.5874    36.5404    37.1555 H          2 BB2          0.0000
    38 H21       34.6515    36.3428    34.6846 H          2 BB2          0.0000
    39 H22       33.3097    35.3928    35.3668 H          2 BB2          0.0000
    40 H23       33.0829    38.1959    34.1800 H          2 BB2          0.0000
    41 H24       32.5668    36.6881    33.3872 H          2 BB2          0.0000
    42 H25       30.6465    37.8312    34.4617 H          2 BB2          0.0000
    43 H26       30.9709    36.2619    35.2366 H          2 BB2          0.0000
    44 H27       31.9240    38.9787    36.2504 H          2 BB2          0.0000
@<TRIPOS>BOND
     1      1      2 1
     2      1     11 1
     3      1     12 1
     4      1     13 1
     5      2      3 ar
     6      2      9 ar
     7      3      4 1
     8      3      5 ar
     9      4     16 1
    10      5      6 ar
    11      5     14 1
    12      6      7 ar
    13      6     15 1
    14      7      8 1
    15      7      9 ar
    16      8     17 1
    17      9     10 1
    18     10     18 1
    19     19     20 1
    20     19     32 1
    21     19     33 1
    22     19     34 1
    23     20     21 1
    24     21     22 2
    25     21     23 1
    26     23     24 1
    27     23     28 1
    28     23     35 1
    29     24     25 1
    30     24     36 1
    31     24     37 1
    32     25     26 1
    33     25     38 1
    34     25     39 1
    35     26     27 1
    36     26     40 1
    37     26     41 1
    38     27     28 1
    39     27     42 1
    40     27     43 1
    41     28     29 1
    42     28     44 1
    43     29     30 2
    44     29     31 2
    45      8     29 1
@<TRIPOS>SUBSTRUCTURE
     1 BB1           8
     2 BB2          29
@<TRIPOS>MOLECULE
EN300-7549830_i001_EN300-125264_i004_19_13_10
  44   45   2   0   0
SMALL
USER_CHARGES
@<TRIPOS>ATOM
     1 C1        25.6225    36.3876    41.2256 C.3        1 BB1          0.0000
     2 C2        26.9167    36.4848    40.4594 C.ar       1 BB1          0.0000
     3 C3        28.0719    35.9139    40.9732 C.ar       1 BB1          0.0000
     4 O4        28.0358    35.2658    42.1683 O.3        1 BB1          0.0000
     5 C5        29.2631    36.0026    40.2693 C.ar       1 BB1          0.0000
     6 C6        29.3029    36.6605    39.0538 C.ar       1 BB1          0.0000
     7 C7        28.1511    37.2330    38.5365 C.ar       1 BB1          0.0000
     8 N8        28.1915    37.9001    37.3038 N.pl3      1 BB1          0.0000
     9 C9        26.9520    37.1393    39.2398 C.ar       1 BB1          0.0000
    10 O10       25.8205    37.6997    38.7346 O.3        1 BB1          0.0000
    11 H11       25.5306    37.2440    41.8935 H          1 BB1          0.0000
    12 H12       24.7863    36.3805    40.5266 H          1 BB1          0.0000
    13 H13       25.6149    35.4680    41.8106 H          1 BB1          0.0000
    14 H14       30.1613    35.5577    40.6712 H          1 BB1          0.0000
    15 H15       30.2318    36.7285    38.5070 H          1 BB1          0.0000
    16 H16       27.1490    35.1857    42.5456 H          1 BB1          0.0000
    17 H18       27.3852    38.3005    36.9424 H          1 BB1          0.0000
    18 H19       25.9811    38.3477    38.0350 H          1 BB1          0.0000
    19 C1        31.4939    33.5108    38.2003 C.3        2 BB2          0.0000
    20 O2        32.1002    34.7987    38.4867 O.3        2 BB2          0.0000
    21 C3        31.6343    35.8567    37.8047 C.2        2 BB2          0.0000
    22 O4        30.5225    35.8291    37.3323 O.2        2 BB2          0.0000
    23 C5        32.4978    37.0792    37.6282 C.3        2 BB2          0.0000
    24 C6        33.8392    36.6719    37.0155 C.3        2 BB2          0.0000
    25 C7        33.5999    36.0157    35.6542 C.3        2 BB2          0.0000
    26 C8        32.8957    37.0079    34.7265 C.3        2 BB2          0.0000
    27 C9        31.5543    37.4152    35.3392 C.3        2 BB2          0.0000
    28 C10       31.7936    38.0714    36.7005 C.3        2 BB2          0.0000
    29 S11       30.2031    38.5543    37.4270 S.o2       2 BB2          0.0000
    30 O12       30.0026    37.8963    38.6704 O.2        2 BB2          0.0000
    31 O13       30.0008    39.9549    37.2983 O.2        2 BB2          0.0000
    32 H15       31.9612    32.7439    38.8180 H          2 BB2          0.0000
    33 H16       30.4272    33.5544    38.4202 H          2 BB2          0.0000
    34 H17       31.6382    33.2674    37.1476 H          2 BB2          0.0000
    35 H18       32.6683    37.5467    38.5980 H          2 BB2          0.0000
    36 H19       34.4637    37.5560    36.8878 H          2 BB2          0.0000
    37 H20       34.3409    35.9651    37.6763 H          2 BB2          0.0000
    38 H21       34.5556    35.7255    35.2176 H          2 BB2          0.0000
    39 H22       32.9753    35.1315    35.7819 H          2 BB2          0.0000
    40 H23       33.5202    37.8921    34.5989 H          2 BB2          0.0000
    41 H24       32.7252    36.5404    33.7567 H          2 BB2          0.0000
    42 H25       31.0526    38.1221    34.6784 H          2 BB2          0.0000
    43 H26       30.9297    36.5310    35.4669 H          2 BB2          0.0000
    44 H27       32.4180    38.9555    36.5729 H          2 BB2          0.0000
@<TRIPOS>BOND
     1      1      2 1
     2      1     11 1
     3      1     12 1
     4      1     13 1
     5      2      3 ar
     6      2      9 ar
     7      3      4 1
     8      3      5 ar
     9      4     16 1
    10      5      6 ar
    11      5     14 1
    12      6      7 ar
    13      6     15 1
    14      7      8 1
    15      7      9 ar
    16      8     17 1
    17      9     10 1
    18     10     18 1
    19     19     20 1
    20     19     32 1
    21     19     33 1
    22     19     34 1
    23     20     21 1
    24     21     22 2
    25     21     23 1
    26     23     24 1
    27     23     28 1
    28     23     35 1
    29     24     25 1
    30     24     36 1
    31     24     37 1
    32     25     26 1
    33     25     38 1
    34     25     39 1
    35     26     27 1
    36     26     40 1
    37     26     41 1
    38     27     28 1
    39     27     42 1
    40     27     43 1
    41     28     29 1
    42     28     44 1
    43     29     30 2
    44     29     31 2
    45      8     29 1
@<TRIPOS>SUBSTRUCTURE
     1 BB1           8
     2 BB2          29
@<TRIPOS>MOLECULE
EN300-7549830_i001_EN300-125264_i004_19_6_10
  44   45   2   0   0
SMALL
USER_CHARGES
@<TRIPOS>ATOM
     1 C1        25.6225    36.3876    41.2256 C.3        1 BB1          0.0000
     2 C2        26.9167    36.4848    40.4594 C.ar       1 BB1          0.0000
     3 C3        28.0719    35.9139    40.9732 C.ar       1 BB1          0.0000
     4 O4        28.0358    35.2658    42.1683 O.3        1 BB1          0.0000
     5 C5        29.2631    36.0026    40.2693 C.ar       1 BB1          0.0000
     6 C6        29.3029    36.6605    39.0538 C.ar       1 BB1          0.0000
     7 C7        28.1511    37.2330    38.5365 C.ar       1 BB1          0.0000
     8 N8        28.1915    37.9001    37.3038 N.pl3      1 BB1          0.0000
     9 C9        26.9520    37.1393    39.2398 C.ar       1 BB1          0.0000
    10 O10       25.8205    37.6997    38.7346 O.3        1 BB1          0.0000
    11 H11       25.5306    37.2440    41.8935 H          1 BB1          0.0000
    12 H12       24.7863    36.3805    40.5266 H          1 BB1          0.0000
    13 H13       25.6149    35.4680    41.8106 H          1 BB1          0.0000
    14 H14       30.1613    35.5577    40.6712 H          1 BB1          0.0000
    15 H15       30.2318    36.7285    38.5070 H          1 BB1          0.0000
    16 H16       27.1490    35.1857    42.5456 H          1 BB1          0.0000
    17 H18       27.3852    38.3005    36.9424 H          1 BB1          0.0000
    18 H19       25.9811    38.3477    38.0350 H          1 BB1          0.0000
    19 C1        31.3088    33.5520    38.4987 C.3        2 BB2          0.0000
    20 O2        32.0474    34.7994    38.5809 O.3        2 BB2          0.0000
    21 C3        31.6525    35.7957    37.7727 C.2        2 BB2          0.0000
    22 O4        30.6075    35.7086    37.1724 O.2        2 BB2          0.0000
    23 C5        32.5126    37.0231    37.6140 C.3        2 BB2          0.0000
    24 C6        33.9304    36.6048    37.2194 C.3        2 BB2          0.0000
    25 C7        33.8864    35.8383    35.8960 C.3        2 BB2          0.0000
    26 C8        33.2975    36.7361    34.8059 C.3        2 BB2          0.0000
    27 C9        31.8797    37.1544    35.2005 C.3        2 BB2          0.0000
    28 C10       31.9238    37.9209    36.5239 C.3        2 BB2          0.0000
    29 S11       30.2428    38.4168    36.9917 S.o2       2 BB2          0.0000
    30 O12       29.3222    38.0954    35.9580 O.2        2 BB2          0.0000
    31 O13       29.9777    38.0675    38.3434 O.2        2 BB2          0.0000
    32 H15       31.7296    32.8337    39.2023 H          2 BB2          0.0000
    33 H16       30.2626    33.7323    38.7456 H          2 BB2          0.0000
    34 H17       31.3799    33.1537    37.4866 H          2 BB2          0.0000
    35 H18       32.5440    37.5691    38.5568 H          2 BB2          0.0000
    36 H19       34.5524    37.4924    37.1046 H          2 BB2          0.0000
    37 H20       34.3498    35.9651    37.9959 H          2 BB2          0.0000
    38 H21       34.8964    35.5402    35.6149 H          2 BB2          0.0000
    39 H22       33.2642    34.9506    36.0108 H          2 BB2          0.0000
    40 H23       33.9196    37.6238    34.6912 H          2 BB2          0.0000
    41 H24       33.2662    36.1900    33.8631 H          2 BB2          0.0000
    42 H25       31.4602    37.7941    34.4240 H          2 BB2          0.0000
    43 H26       31.2576    36.2667    35.3153 H          2 BB2          0.0000
    44 H27       32.5457    38.8086    36.4092 H          2 BB2          0.0000
@<TRIPOS>BOND
     1      1      2 1
     2      1     11 1
     3      1     12 1
     4      1     13 1
     5      2      3 ar
     6      2      9 ar
     7      3      4 1
     8      3      5 ar
     9      4     16 1
    10      5      6 ar
    11      5     14 1
    12      6      7 ar
    13      6     15 1
    14      7      8 1
    15      7      9 ar
    16      8     17 1
    17      9     10 1
    18     10     18 1
    19     19     20 1
    20     19     32 1
    21     19     33 1
    22     19     34 1
    23     20     21 1
    24     21     22 2
    25     21     23 1
    26     23     24 1
    27     23     28 1
    28     23     35 1
    29     24     25 1
    30     24     36 1
    31     24     37 1
    32     25     26 1
    33     25     38 1
    34     25     39 1
    35     26     27 1
    36     26     40 1
    37     26     41 1
    38     27     28 1
    39     27     42 1
    40     27     43 1
    41     28     29 1
    42     28     44 1
    43     29     30 2
    44     29     31 2
    45      8     29 1
@<TRIPOS>SUBSTRUCTURE
     1 BB1           8
     2 BB2          29
@<TRIPOS>MOLECULE
EN300-7549830_i001_EN300-96185_i001_3_7_10
  35   36   2   0   0
SMALL
USER_CHARGES
@<TRIPOS>ATOM
     1 C1        25.5024    37.4938    38.8266 C.3        1 BB1          0.0000
     2 C2        26.4731    36.9930    39.8649 C.ar       1 BB1          0.0000
     3 C3        26.0375    36.7410    41.1577 C.ar       1 BB1          0.0000
     4 O4        24.7342    36.9456    41.4874 O.3        1 BB1          0.0000
     5 C5        26.9296    36.2801    42.1139 C.ar       1 BB1          0.0000
     6 C6        28.2553    36.0707    41.7816 C.ar       1 BB1          0.0000
     7 C7        28.6953    36.3215    40.4911 C.ar       1 BB1          0.0000
     8 N8        30.0398    36.1091    40.1542 N.pl3      1 BB1          0.0000
     9 C9        27.7987    36.7788    39.5276 C.ar       1 BB1          0.0000
    10 O10       28.2275    37.0253    38.2607 O.3        1 BB1          0.0000
    11 H11       25.4875    38.5837    38.8390 H          1 BB1          0.0000
    12 H12       25.8129    37.1459    37.8414 H          1 BB1          0.0000
    13 H13       24.5051    37.1142    39.0485 H          1 BB1          0.0000
    14 H14       26.5885    36.0850    43.1198 H          1 BB1          0.0000
    15 H15       28.9486    35.7116    42.5280 H          1 BB1          0.0000
    16 H16       24.1075    36.6660    40.8060 H          1 BB1          0.0000
    17 H17       30.6626    35.7865    40.8242 H          1 BB1          0.0000
    18 H19       27.7021    37.6861    37.7892 H          1 BB1          0.0000
    19 S2        29.6389    36.4931    38.6247 S.o2       2 BB2          0.0000
    20 O3        30.2908    35.2313    38.5779 O.2        2 BB2          0.0000
    21 O4        28.3744    36.6879    38.0065 O.2        2 BB2          0.0000
    22 C5        30.7857    37.8196    38.1599 C.3        2 BB2          0.0000
    23 C6        31.7457    37.3108    37.1156 C.ar       2 BB2          0.0000
    24 C7        32.6088    36.2737    37.4166 C.ar       2 BB2          0.0000
    25 C8        33.4889    35.8067    36.4587 C.ar       2 BB2          0.0000
    26 C9        33.5069    36.3767    35.1991 C.ar       2 BB2          0.0000
    27 C10       32.6445    37.4134    34.8973 C.ar       2 BB2          0.0000
    28 C11       31.7593    37.8775    35.8540 C.ar       2 BB2          0.0000
    29 Br12      30.5789    39.2960    35.4416 Br         2 BB2          0.0000
    30 H13       30.2231    38.6617    37.7568 H          2 BB2          0.0000
    31 H14       31.3431    38.1427    39.0391 H          2 BB2          0.0000
    32 H15       32.5956    35.8286    38.4006 H          2 BB2          0.0000
    33 H16       34.1632    34.9964    36.6943 H          2 BB2          0.0000
    34 H17       34.1953    36.0119    34.4512 H          2 BB2          0.0000
    35 H18       32.6588    37.8588    33.9136 H          2 BB2          0.0000
@<TRIPOS>BOND
     1      1      2 1
     2      1     11 1
     3      1     12 1
     4      1     13 1
     5      2      3 ar
     6      2      9 ar
     7      3      4 1
     8      3      5 ar
     9      4     16 1
    10      5      6 ar
    11      5     14 1
    12      6      7 ar
    13      6     15 1
    14      7      8 1
    15      7      9 ar
    16      8     17 1
    17      9     10 1
    18     10     18 1
    19     19     20 2
    20     19     21 2
    21     19     22 1
    22     22     23 1
    23     22     30 1
    24     22     31 1
    25     23     24 ar
    26     23     28 ar
    27     24     25 ar
    28     24     32 1
    29     25     26 ar
    30     25     33 1
    31     26     27 ar
    32     26     34 1
    33     27     28 ar
    34     27     35 1
    35     28     29 1
    36      8     19 1
@<TRIPOS>SUBSTRUCTURE
     1 BB1           8
     2 BB2          19
@<TRIPOS>MOLECULE
EN300-7549830_i001_EN300-93482_i002_3_11_10
  38   39   2   0   0
SMALL
USER_CHARGES
@<TRIPOS>ATOM
     1 C1        25.5024    37.4938    38.8266 C.3        1 BB1          0.0000
     2 C2        26.4731    36.9930    39.8649 C.ar       1 BB1          0.0000
     3 C3        26.0375    36.7410    41.1577 C.ar       1 BB1          0.0000
     4 O4        24.7342    36.9456    41.4874 O.3        1 BB1          0.0000
     5 C5        26.9296    36.2801    42.1139 C.ar       1 BB1          0.0000
     6 C6        28.2553    36.0707    41.7816 C.ar       1 BB1          0.0000
     7 C7        28.6953    36.3215    40.4911 C.ar       1 BB1          0.0000
     8 N8        30.0398    36.1091    40.1542 N.pl3      1 BB1          0.0000
     9 C9        27.7987    36.7788    39.5276 C.ar       1 BB1          0.0000
    10 O10       28.2275    37.0253    38.2607 O.3        1 BB1          0.0000
    11 H11       25.4875    38.5837    38.8390 H          1 BB1          0.0000
    12 H12       25.8129    37.1459    37.8414 H          1 BB1          0.0000
    13 H13       24.5051    37.1142    39.0485 H          1 BB1          0.0000
    14 H14       26.5885    36.0850    43.1198 H          1 BB1          0.0000
    15 H15       28.9486    35.7116    42.5280 H          1 BB1          0.0000
    16 H16       24.1075    36.6660    40.8060 H          1 BB1          0.0000
    17 H17       30.6626    35.7865    40.8242 H          1 BB1          0.0000
    18 H19       27.7021    37.6861    37.7892 H          1 BB1          0.0000
    19 C1        31.1529    35.2755    38.5577 C.3        2 BB2          0.0000
    20 C2        32.2013    36.0944    37.8020 C.3        2 BB2          0.0000
    21 C3        32.7621    35.2679    36.6391 C.3        2 BB2          0.0000
    22 O4        33.5985    36.0995    35.8311 O.3        2 BB2          0.0000
    23 C5        32.9161    37.1954    35.2168 C.3        2 BB2          0.0000
    24 C6        32.3632    38.1205    36.3070 C.3        2 BB2          0.0000
    25 N7        31.5788    37.3086    37.2508 N.pl3      2 BB2          0.0000
    26 S8        30.0409    37.7479    37.6797 S.o2       2 BB2          0.0000
    27 O9        29.1634    36.9965    36.8522 O.2        2 BB2          0.0000
    28 O10       29.9938    37.7095    39.0994 O.2        2 BB2          0.0000
    29 H12       31.6389    34.4410    39.0633 H          2 BB2          0.0000
    30 H13       30.6590    35.9088    39.2946 H          2 BB2          0.0000
    31 H14       30.4139    34.8930    37.8536 H          2 BB2          0.0000
    32 H15       33.0095    36.3706    38.4793 H          2 BB2          0.0000
    33 H16       33.3465    34.4361    37.0321 H          2 BB2          0.0000
    34 H17       31.9396    34.8833    36.0360 H          2 BB2          0.0000
    35 H18       33.6114    37.7500    34.5867 H          2 BB2          0.0000
    36 H19       32.0942    36.8176    34.6086 H          2 BB2          0.0000
    37 H20       33.1878    38.6012    36.8334 H          2 BB2          0.0000
    38 H21       31.7235    38.8787    35.8553 H          2 BB2          0.0000
@<TRIPOS>BOND
     1      1      2 1
     2      1     11 1
     3      1     12 1
     4      1     13 1
     5      2      3 ar
     6      2      9 ar
     7      3      4 1
     8      3      5 ar
     9      4     16 1
    10      5      6 ar
    11      5     14 1
    12      6      7 ar
    13      6     15 1
    14      7      8 1
    15      7      9 ar
    16      8     17 1
    17      9     10 1
    18     10     18 1
    19     19     20 1
    20     19     29 1
    21     19     30 1
    22     19     31 1
    23     20     21 1
    24     20     25 1
    25     20     32 1
    26     21     22 1
    27     21     33 1
    28     21     34 1
    29     22     23 1
    30     23     24 1
    31     23     35 1
    32     23     36 1
    33     24     25 1
    34     24     37 1
    35     24     38 1
    36     25     26 1
    37     26     27 2
    38     26     28 2
    39      8     26 1
@<TRIPOS>SUBSTRUCTURE
     1 BB1           8
     2 BB2          26
@<TRIPOS>MOLECULE
EN300-7549830_i001_EN300-93482_i002_3_7_10
  38   39   2   0   0
SMALL
USER_CHARGES
@<TRIPOS>ATOM
     1 C1        25.5024    37.4938    38.8266 C.3        1 BB1          0.0000
     2 C2        26.4731    36.9930    39.8649 C.ar       1 BB1          0.0000
     3 C3        26.0375    36.7410    41.1577 C.ar       1 BB1          0.0000
     4 O4        24.7342    36.9456    41.4874 O.3        1 BB1          0.0000
     5 C5        26.9296    36.2801    42.1139 C.ar       1 BB1          0.0000
     6 C6        28.2553    36.0707    41.7816 C.ar       1 BB1          0.0000
     7 C7        28.6953    36.3215    40.4911 C.ar       1 BB1          0.0000
     8 N8        30.0398    36.1091    40.1542 N.pl3      1 BB1          0.0000
     9 C9        27.7987    36.7788    39.5276 C.ar       1 BB1          0.0000
    10 O10       28.2275    37.0253    38.2607 O.3        1 BB1          0.0000
    11 H11       25.4875    38.5837    38.8390 H          1 BB1          0.0000
    12 H12       25.8129    37.1459    37.8414 H          1 BB1          0.0000
    13 H13       24.5051    37.1142    39.0485 H          1 BB1          0.0000
    14 H14       26.5885    36.0850    43.1198 H          1 BB1          0.0000
    15 H15       28.9486    35.7116    42.5280 H          1 BB1          0.0000
    16 H16       24.1075    36.6660    40.8060 H          1 BB1          0.0000
    17 H17       30.6626    35.7865    40.8242 H          1 BB1          0.0000
    18 H19       27.7021    37.6861    37.7892 H          1 BB1          0.0000
    19 C1        30.2769    37.9114    35.0229 C.3        2 BB2          0.0000
    20 C2        31.1039    36.7679    35.6139 C.3        2 BB2          0.0000
    21 C3        32.5961    37.0445    35.3974 C.3        2 BB2          0.0000
    22 O4        33.3634    36.0720    36.1111 O.3        2 BB2          0.0000
    23 C5        33.1781    36.1052    37.5282 C.3        2 BB2          0.0000
    24 C6        31.7157    35.7805    37.8537 C.3        2 BB2          0.0000
    25 N7        30.8547    36.6724    37.0610 N.pl3      2 BB2          0.0000
    26 S8        29.6415    37.5433    37.7763 S.o2       2 BB2          0.0000
    27 O9        29.9961    38.9126    37.6397 O.2        2 BB2          0.0000
    28 O10       28.4200    37.0045    37.2895 O.2        2 BB2          0.0000
    29 H12       30.3713    37.9047    33.9370 H          2 BB2          0.0000
    30 H13       29.2299    37.7821    35.2972 H          2 BB2          0.0000
    31 H14       30.6401    38.8621    35.4133 H          2 BB2          0.0000
    32 H15       30.8307    35.8295    35.1311 H          2 BB2          0.0000
    33 H16       32.8275    36.9821    34.3342 H          2 BB2          0.0000
    34 H17       32.8387    38.0413    35.7657 H          2 BB2          0.0000
    35 H18       33.8282    35.3670    37.9978 H          2 BB2          0.0000
    36 H19       33.4228    37.0987    37.9042 H          2 BB2          0.0000
    37 H20       31.5043    34.7425    37.5970 H          2 BB2          0.0000
    38 H21       31.5316    35.9413    38.9160 H          2 BB2          0.0000
@<TRIPOS>BOND
     1      1      2 1
     2      1     11 1
     3      1     12 1
     4      1     13 1
     5      2      3 ar
     6      2      9 ar
     7      3      4 1
     8      3      5 ar
     9      4     16 1
    10      5      6 ar
    11      5     14 1
    12      6      7 ar
    13      6     15 1
    14      7      8 1
    15      7      9 ar
    16      8     17 1
    17      9     10 1
    18     10     18 1
    19     19     20 1
    20     19     29 1
    21     19     30 1
    22     19     31 1
    23     20     21 1
    24     20     25 1
    25     20     32 1
    26     21     22 1
    27     21     33 1
    28     21     34 1
    29     22     23 1
    30     23     24 1
    31     23     35 1
    32     23     36 1
    33     24     25 1
    34     24     37 1
    35     24     38 1
    36     25     26 1
    37     26     27 2
    38     26     28 2
    39      8     26 1
@<TRIPOS>SUBSTRUCTURE
     1 BB1           8
     2 BB2          26
@<TRIPOS>MOLECULE
EN300-7549830_i001_EN300-31545_i001_3_3_10
  43   44   2   0   0
SMALL
USER_CHARGES
@<TRIPOS>ATOM
     1 C1        25.5024    37.4938    38.8266 C.3        1 BB1          0.0000
     2 C2        26.4731    36.9930    39.8649 C.ar       1 BB1          0.0000
     3 C3        26.0375    36.7410    41.1577 C.ar       1 BB1          0.0000
     4 O4        24.7342    36.9456    41.4874 O.3        1 BB1          0.0000
     5 C5        26.9296    36.2801    42.1139 C.ar       1 BB1          0.0000
     6 C6        28.2553    36.0707    41.7816 C.ar       1 BB1          0.0000
     7 C7        28.6953    36.3215    40.4911 C.ar       1 BB1          0.0000
     8 N8        30.0398    36.1091    40.1542 N.pl3      1 BB1          0.0000
     9 C9        27.7987    36.7788    39.5276 C.ar       1 BB1          0.0000
    10 O10       28.2275    37.0253    38.2607 O.3        1 BB1          0.0000
    11 H11       25.4875    38.5837    38.8390 H          1 BB1          0.0000
    12 H12       25.8129    37.1459    37.8414 H          1 BB1          0.0000
    13 H13       24.5051    37.1142    39.0485 H          1 BB1          0.0000
    14 H14       26.5885    36.0850    43.1198 H          1 BB1          0.0000
    15 H15       28.9486    35.7116    42.5280 H          1 BB1          0.0000
    16 H16       24.1075    36.6660    40.8060 H          1 BB1          0.0000
    17 H17       30.6626    35.7865    40.8242 H          1 BB1          0.0000
    18 H19       27.7021    37.6861    37.7892 H          1 BB1          0.0000
    19 C1        31.2334    39.0965    34.7650 C.3        2 BB2          0.0000
    20 C2        31.9821    37.8209    34.3736 C.3        2 BB2          0.0000
    21 O3        32.3724    37.1014    35.5730 O.3        2 BB2          0.0000
    22 C4        31.3891    36.7311    36.4084 C.2        2 BB2          0.0000
    23 O5        30.2348    36.9094    36.0996 O.2        2 BB2          0.0000
    24 C6        31.7252    36.0929    37.7316 C.3        2 BB2          0.0000
    25 C7        32.3992    34.7243    37.4981 C.3        2 BB2          0.0000
    26 C8        31.8033    33.8458    38.6297 C.3        2 BB2          0.0000
    27 C9        30.3589    34.3977    38.7240 C.3        2 BB2          0.0000
    28 N10       30.4934    35.8480    38.4959 N.pl3      2 BB2          0.0000
    29 S11       29.4329    37.0090    39.0150 S.o2       2 BB2          0.0000
    30 O12       29.4814    36.9909    40.4350 O.2        2 BB2          0.0000
    31 O13       29.7011    38.1716    38.2431 O.2        2 BB2          0.0000
    32 H15       30.9405    39.6367    33.8646 H          2 BB2          0.0000
    33 H16       30.3435    38.8345    35.3372 H          2 BB2          0.0000
    34 H17       31.8829    39.7273    35.3720 H          2 BB2          0.0000
    35 H18       31.3327    37.1902    33.7667 H          2 BB2          0.0000
    36 H19       32.8721    38.0830    33.8015 H          2 BB2          0.0000
    37 H20       32.3925    36.7428    38.2977 H          2 BB2          0.0000
    38 H21       32.1328    34.3253    36.5194 H          2 BB2          0.0000
    39 H22       33.4812    34.8047    37.6014 H          2 BB2          0.0000
    40 H23       31.8016    32.7932    38.3474 H          2 BB2          0.0000
    41 H24       32.3411    33.9969    39.5658 H          2 BB2          0.0000
    42 H25       29.7305    33.9494    37.9545 H          2 BB2          0.0000
    43 H26       29.9434    34.2063    39.7133 H          2 BB2          0.0000
@<TRIPOS>BOND
     1      1      2 1
     2      1     11 1
     3      1     12 1
     4      1     13 1
     5      2      3 ar
     6      2      9 ar
     7      3      4 1
     8      3      5 ar
     9      4     16 1
    10      5      6 ar
    11      5     14 1
    12      6      7 ar
    13      6     15 1
    14      7      8 1
    15      7      9 ar
    16      8     17 1
    17      9     10 1
    18     10     18 1
    19     19     20 1
    20     19     32 1
    21     19     33 1
    22     19     34 1
    23     20     21 1
    24     20     35 1
    25     20     36 1
    26     21     22 1
    27     22     23 2
    28     22     24 1
    29     24     25 1
    30     24     28 1
    31     24     37 1
    32     25     26 1
    33     25     38 1
    34     25     39 1
    35     26     27 1
    36     26     40 1
    37     26     41 1
    38     27     28 1
    39     27     42 1
    40     27     43 1
    41     28     29 1
    42     29     30 2
    43     29     31 2
    44      8     29 1
@<TRIPOS>SUBSTRUCTURE
     1 BB1           8
     2 BB2          29
@<TRIPOS>MOLECULE
EN300-7549830_i001_EN300-125264_i004_3_3_10
  44   45   2   0   0
SMALL
USER_CHARGES
@<TRIPOS>ATOM
     1 C1        25.5024    37.4938    38.8266 C.3        1 BB1          0.0000
     2 C2        26.4731    36.9930    39.8649 C.ar       1 BB1          0.0000
     3 C3        26.0375    36.7410    41.1577 C.ar       1 BB1          0.0000
     4 O4        24.7342    36.9456    41.4874 O.3        1 BB1          0.0000
     5 C5        26.9296    36.2801    42.1139 C.ar       1 BB1          0.0000
     6 C6        28.2553    36.0707    41.7816 C.ar       1 BB1          0.0000
     7 C7        28.6953    36.3215    40.4911 C.ar       1 BB1          0.0000
     8 N8        30.0398    36.1091    40.1542 N.pl3      1 BB1          0.0000
     9 C9        27.7987    36.7788    39.5276 C.ar       1 BB1          0.0000
    10 O10       28.2275    37.0253    38.2607 O.3        1 BB1          0.0000
    11 H11       25.4875    38.5837    38.8390 H          1 BB1          0.0000
    12 H12       25.8129    37.1459    37.8414 H          1 BB1          0.0000
    13 H13       24.5051    37.1142    39.0485 H          1 BB1          0.0000
    14 H14       26.5885    36.0850    43.1198 H          1 BB1          0.0000
    15 H15       28.9486    35.7116    42.5280 H          1 BB1          0.0000
    16 H16       24.1075    36.6660    40.8060 H          1 BB1          0.0000
    17 H17       30.6626    35.7865    40.8242 H          1 BB1          0.0000
    18 H19       27.7021    37.6861    37.7892 H          1 BB1          0.0000
    19 C1        29.8470    40.1769    37.0204 C.3        2 BB2          0.0000
    20 O2        29.5265    38.8404    36.5520 O.3        2 BB2          0.0000
    21 C3        30.4062    37.8675    36.8373 C.2        2 BB2          0.0000
    22 O4        31.0770    37.9344    37.8400 O.2        2 BB2          0.0000
    23 C5        30.5572    36.6916    35.9068 C.3        2 BB2          0.0000
    24 C6        30.8471    37.1951    34.4915 C.3        2 BB2          0.0000
    25 C7        32.1411    38.0115    34.4956 C.3        2 BB2          0.0000
    26 C8        33.2984    37.1307    34.9707 C.3        2 BB2          0.0000
    27 C9        33.0085    36.6272    36.3861 C.3        2 BB2          0.0000
    28 C10       31.7145    35.8108    36.3819 C.3        2 BB2          0.0000
    29 S11       31.3707    35.2138    38.0600 S.o2       2 BB2          0.0000
    30 O12       32.4263    35.5702    38.9421 O.2        2 BB2          0.0000
    31 O13       30.0138    35.4543    38.4067 O.2        2 BB2          0.0000
    32 H15       29.0558    40.8653    36.7236 H          2 BB2          0.0000
    33 H16       29.9339    40.1700    38.1069 H          2 BB2          0.0000
    34 H17       30.7918    40.4987    36.5823 H          2 BB2          0.0000
    35 H18       29.6353    36.1099    35.9039 H          2 BB2          0.0000
    36 H19       30.9563    36.3446    33.8186 H          2 BB2          0.0000
    37 H20       30.0227    37.8226    34.1531 H          2 BB2          0.0000
    38 H21       32.3477    38.3703    33.4873 H          2 BB2          0.0000
    39 H22       32.0318    38.8620    35.1686 H          2 BB2          0.0000
    40 H23       33.4075    36.2802    34.2978 H          2 BB2          0.0000
    41 H24       34.2202    37.7124    34.9737 H          2 BB2          0.0000
    42 H25       33.8329    35.9996    36.7245 H          2 BB2          0.0000
    43 H26       32.8992    37.4777    37.0591 H          2 BB2          0.0000
    44 H27       31.8237    34.9602    35.7091 H          2 BB2          0.0000
@<TRIPOS>BOND
     1      1      2 1
     2      1     11 1
     3      1     12 1
     4      1     13 1
     5      2      3 ar
     6      2      9 ar
     7      3      4 1
     8      3      5 ar
     9      4     16 1
    10      5      6 ar
    11      5     14 1
    12      6      7 ar
    13      6     15 1
    14      7      8 1
    15      7      9 ar
    16      8     17 1
    17      9     10 1
    18     10     18 1
    19     19     20 1
    20     19     32 1
    21     19     33 1
    22     19     34 1
    23     20     21 1
    24     21     22 2
    25     21     23 1
    26     23     24 1
    27     23     28 1
    28     23     35 1
    29     24     25 1
    30     24     36 1
    31     24     37 1
    32     25     26 1
    33     25     38 1
    34     25     39 1
    35     26     27 1
    36     26     40 1
    37     26     41 1
    38     27     28 1
    39     27     42 1
    40     27     43 1
    41     28     29 1
    42     28     44 1
    43     29     30 2
    44     29     31 2
    45      8     29 1
@<TRIPOS>SUBSTRUCTURE
     1 BB1           8
     2 BB2          29
@<TRIPOS>MOLECULE
EN300-7549830_i001_EN300-125264_i004_3_8_10
  44   45   2   0   0
SMALL
USER_CHARGES
@<TRIPOS>ATOM
     1 C1        25.5024    37.4938    38.8266 C.3        1 BB1          0.0000
     2 C2        26.4731    36.9930    39.8649 C.ar       1 BB1          0.0000
     3 C3        26.0375    36.7410    41.1577 C.ar       1 BB1          0.0000
     4 O4        24.7342    36.9456    41.4874 O.3        1 BB1          0.0000
     5 C5        26.9296    36.2801    42.1139 C.ar       1 BB1          0.0000
     6 C6        28.2553    36.0707    41.7816 C.ar       1 BB1          0.0000
     7 C7        28.6953    36.3215    40.4911 C.ar       1 BB1          0.0000
     8 N8        30.0398    36.1091    40.1542 N.pl3      1 BB1          0.0000
     9 C9        27.7987    36.7788    39.5276 C.ar       1 BB1          0.0000
    10 O10       28.2275    37.0253    38.2607 O.3        1 BB1          0.0000
    11 H11       25.4875    38.5837    38.8390 H          1 BB1          0.0000
    12 H12       25.8129    37.1459    37.8414 H          1 BB1          0.0000
    13 H13       24.5051    37.1142    39.0485 H          1 BB1          0.0000
    14 H14       26.5885    36.0850    43.1198 H          1 BB1          0.0000
    15 H15       28.9486    35.7116    42.5280 H          1 BB1          0.0000
    16 H16       24.1075    36.6660    40.8060 H          1 BB1          0.0000
    17 H17       30.6626    35.7865    40.8242 H          1 BB1          0.0000
    18 H19       27.7021    37.6861    37.7892 H          1 BB1          0.0000
    19 C1        31.4119    32.8810    38.1996 C.3        2 BB2          0.0000
    20 O2        32.1447    34.1228    38.0287 O.3        2 BB2          0.0000
    21 C3        31.4678    35.2633    38.2354 C.2        2 BB2          0.0000
    22 O4        30.3038    35.2251    38.5575 O.2        2 BB2          0.0000
    23 C5        32.1595    36.5914    38.0659 C.3        2 BB2          0.0000
    24 C6        33.5823    36.3635    37.5515 C.3        2 BB2          0.0000
    25 C7        33.5278    35.6412    36.2038 C.3        2 BB2          0.0000
    26 C8        32.7526    36.4953    35.1985 C.3        2 BB2          0.0000
    27 C9        31.3299    36.7232    35.7129 C.3        2 BB2          0.0000
    28 C10       31.3844    37.4455    37.0606 C.3        2 BB2          0.0000
    29 S11       29.6975    37.7157    37.6705 S.o2       2 BB2          0.0000
    30 O12       28.7823    36.8584    37.0021 O.2        2 BB2          0.0000
    31 O13       29.6919    37.8317    39.0867 O.2        2 BB2          0.0000
    32 H15       32.0745    32.0381    38.0031 H          2 BB2          0.0000
    33 H16       31.0370    32.8180    39.2212 H          2 BB2          0.0000
    34 H17       30.5740    32.8547    37.5028 H          2 BB2          0.0000
    35 H18       32.1983    37.1060    39.0260 H          2 BB2          0.0000
    36 H19       34.0825    37.3241    37.4289 H          2 BB2          0.0000
    37 H20       34.1345    35.7551    38.2677 H          2 BB2          0.0000
    38 H21       34.5414    35.4788    35.8373 H          2 BB2          0.0000
    39 H22       33.0274    34.6806    36.3264 H          2 BB2          0.0000
    40 H23       33.2529    37.4559    35.0760 H          2 BB2          0.0000
    41 H24       32.7138    35.9807    34.2383 H          2 BB2          0.0000
    42 H25       30.7776    37.3317    34.9967 H          2 BB2          0.0000
    43 H26       30.8295    35.7625    35.8355 H          2 BB2          0.0000
    44 H27       31.8846    38.4061    36.9380 H          2 BB2          0.0000
@<TRIPOS>BOND
     1      1      2 1
     2      1     11 1
     3      1     12 1
     4      1     13 1
     5      2      3 ar
     6      2      9 ar
     7      3      4 1
     8      3      5 ar
     9      4     16 1
    10      5      6 ar
    11      5     14 1
    12      6      7 ar
    13      6     15 1
    14      7      8 1
    15      7      9 ar
    16      8     17 1
    17      9     10 1
    18     10     18 1
    19     19     20 1
    20     19     32 1
    21     19     33 1
    22     19     34 1
    23     20     21 1
    24     21     22 2
    25     21     23 1
    26     23     24 1
    27     23     28 1
    28     23     35 1
    29     24     25 1
    30     24     36 1
    31     24     37 1
    32     25     26 1
    33     25     38 1
    34     25     39 1
    35     26     27 1
    36     26     40 1
    37     26     41 1
    38     27     28 1
    39     27     42 1
    40     27     43 1
    41     28     29 1
    42     28     44 1
    43     29     30 2
    44     29     31 2
    45      8     29 1
@<TRIPOS>SUBSTRUCTURE
     1 BB1           8
     2 BB2          29
@<TRIPOS>MOLECULE
EN300-7549830_i001_EN300-93482_i002_4_7_10
  38   39   2   0   0
SMALL
USER_CHARGES
@<TRIPOS>ATOM
     1 C1        26.3178    36.9743    42.2358 C.3        1 BB1          0.0000
     2 C2        27.0127    36.6896    40.9292 C.ar       1 BB1          0.0000
     3 C3        26.3463    36.8942    39.7298 C.ar       1 BB1          0.0000
     4 O4        25.0659    37.3525    39.7337 O.3        1 BB1          0.0000
     5 C5        26.9845    36.6327    38.5270 C.ar       1 BB1          0.0000
     6 C6        28.2864    36.1671    38.5197 C.ar       1 BB1          0.0000
     7 C7        28.9563    35.9606    39.7158 C.ar       1 BB1          0.0000
     8 N8        30.2766    35.4884    39.7084 N.pl3      1 BB1          0.0000
     9 C9        28.3183    36.2289    40.9250 C.ar       1 BB1          0.0000
    10 O10       28.9732    36.0276    42.0999 O.3        1 BB1          0.0000
    11 H11       25.8047    36.0755    42.5777 H          1 BB1          0.0000
    12 H12       27.0540    37.2778    42.9801 H          1 BB1          0.0000
    13 H13       25.5924    37.7754    42.0945 H          1 BB1          0.0000
    14 H14       26.4638    36.7924    37.5945 H          1 BB1          0.0000
    15 H15       28.7818    35.9640    37.5817 H          1 BB1          0.0000
    16 H16       24.4080    36.6796    39.9562 H          1 BB1          0.0000
    17 H18       30.7449    35.3442    40.5456 H          1 BB1          0.0000
    18 H19       29.8817    35.7133    41.9949 H          1 BB1          0.0000
    19 C1        30.2769    37.9114    35.0229 C.3        2 BB2          0.0000
    20 C2        31.1039    36.7679    35.6139 C.3        2 BB2          0.0000
    21 C3        32.5961    37.0445    35.3974 C.3        2 BB2          0.0000
    22 O4        33.3634    36.0720    36.1111 O.3        2 BB2          0.0000
    23 C5        33.1781    36.1052    37.5282 C.3        2 BB2          0.0000
    24 C6        31.7157    35.7805    37.8537 C.3        2 BB2          0.0000
    25 N7        30.8547    36.6724    37.0610 N.pl3      2 BB2          0.0000
    26 S8        29.6415    37.5433    37.7763 S.o2       2 BB2          0.0000
    27 O9        29.9961    38.9126    37.6397 O.2        2 BB2          0.0000
    28 O10       28.4200    37.0045    37.2895 O.2        2 BB2          0.0000
    29 H12       30.3713    37.9047    33.9370 H          2 BB2          0.0000
    30 H13       29.2299    37.7821    35.2972 H          2 BB2          0.0000
    31 H14       30.6401    38.8621    35.4133 H          2 BB2          0.0000
    32 H15       30.8307    35.8295    35.1311 H          2 BB2          0.0000
    33 H16       32.8275    36.9821    34.3342 H          2 BB2          0.0000
    34 H17       32.8387    38.0413    35.7657 H          2 BB2          0.0000
    35 H18       33.8282    35.3670    37.9978 H          2 BB2          0.0000
    36 H19       33.4228    37.0987    37.9042 H          2 BB2          0.0000
    37 H20       31.5043    34.7425    37.5970 H          2 BB2          0.0000
    38 H21       31.5316    35.9413    38.9160 H          2 BB2          0.0000
@<TRIPOS>BOND
     1      1      2 1
     2      1     11 1
     3      1     12 1
     4      1     13 1
     5      2      3 ar
     6      2      9 ar
     7      3      4 1
     8      3      5 ar
     9      4     16 1
    10      5      6 ar
    11      5     14 1
    12      6      7 ar
    13      6     15 1
    14      7      8 1
    15      7      9 ar
    16      8     17 1
    17      9     10 1
    18     10     18 1
    19     19     20 1
    20     19     29 1
    21     19     30 1
    22     19     31 1
    23     20     21 1
    24     20     25 1
    25     20     32 1
    26     21     22 1
    27     21     33 1
    28     21     34 1
    29     22     23 1
    30     23     24 1
    31     23     35 1
    32     23     36 1
    33     24     25 1
    34     24     37 1
    35     24     38 1
    36     25     26 1
    37     26     27 2
    38     26     28 2
    39      8     26 1
@<TRIPOS>SUBSTRUCTURE
     1 BB1           8
     2 BB2          26
@<TRIPOS>MOLECULE
EN300-7549830_i001_EN300-125264_i004_4_3_10
  44   45   2   0   0
SMALL
USER_CHARGES
@<TRIPOS>ATOM
     1 C1        26.3178    36.9743    42.2358 C.3        1 BB1          0.0000
     2 C2        27.0127    36.6896    40.9292 C.ar       1 BB1          0.0000
     3 C3        26.3463    36.8942    39.7298 C.ar       1 BB1          0.0000
     4 O4        25.0659    37.3525    39.7337 O.3        1 BB1          0.0000
     5 C5        26.9845    36.6327    38.5270 C.ar       1 BB1          0.0000
     6 C6        28.2864    36.1671    38.5197 C.ar       1 BB1          0.0000
     7 C7        28.9563    35.9606    39.7158 C.ar       1 BB1          0.0000
     8 N8        30.2766    35.4884    39.7084 N.pl3      1 BB1          0.0000
     9 C9        28.3183    36.2289    40.9250 C.ar       1 BB1          0.0000
    10 O10       28.9732    36.0276    42.0999 O.3        1 BB1          0.0000
    11 H11       25.8047    36.0755    42.5777 H          1 BB1          0.0000
    12 H12       27.0540    37.2778    42.9801 H          1 BB1          0.0000
    13 H13       25.5924    37.7754    42.0945 H          1 BB1          0.0000
    14 H14       26.4638    36.7924    37.5945 H          1 BB1          0.0000
    15 H15       28.7818    35.9640    37.5817 H          1 BB1          0.0000
    16 H16       24.4080    36.6796    39.9562 H          1 BB1          0.0000
    17 H18       30.7449    35.3442    40.5456 H          1 BB1          0.0000
    18 H19       29.8817    35.7133    41.9949 H          1 BB1          0.0000
    19 C1        29.8470    40.1769    37.0204 C.3        2 BB2          0.0000
    20 O2        29.5265    38.8404    36.5520 O.3        2 BB2          0.0000
    21 C3        30.4062    37.8675    36.8373 C.2        2 BB2          0.0000
    22 O4        31.0770    37.9344    37.8400 O.2        2 BB2          0.0000
    23 C5        30.5572    36.6916    35.9068 C.3        2 BB2          0.0000
    24 C6        30.8471    37.1951    34.4915 C.3        2 BB2          0.0000
    25 C7        32.1411    38.0115    34.4956 C.3        2 BB2          0.0000
    26 C8        33.2984    37.1307    34.9707 C.3        2 BB2          0.0000
    27 C9        33.0085    36.6272    36.3861 C.3        2 BB2          0.0000
    28 C10       31.7145    35.8108    36.3819 C.3        2 BB2          0.0000
    29 S11       31.3707    35.2138    38.0600 S.o2       2 BB2          0.0000
    30 O12       32.4263    35.5702    38.9421 O.2        2 BB2          0.0000
    31 O13       30.0138    35.4543    38.4067 O.2        2 BB2          0.0000
    32 H15       29.0558    40.8653    36.7236 H          2 BB2          0.0000
    33 H16       29.9339    40.1700    38.1069 H          2 BB2          0.0000
    34 H17       30.7918    40.4987    36.5823 H          2 BB2          0.0000
    35 H18       29.6353    36.1099    35.9039 H          2 BB2          0.0000
    36 H19       30.9563    36.3446    33.8186 H          2 BB2          0.0000
    37 H20       30.0227    37.8226    34.1531 H          2 BB2          0.0000
    38 H21       32.3477    38.3703    33.4873 H          2 BB2          0.0000
    39 H22       32.0318    38.8620    35.1686 H          2 BB2          0.0000
    40 H23       33.4075    36.2802    34.2978 H          2 BB2          0.0000
    41 H24       34.2202    37.7124    34.9737 H          2 BB2          0.0000
    42 H25       33.8329    35.9996    36.7245 H          2 BB2          0.0000
    43 H26       32.8992    37.4777    37.0591 H          2 BB2          0.0000
    44 H27       31.8237    34.9602    35.7091 H          2 BB2          0.0000
@<TRIPOS>BOND
     1      1      2 1
     2      1     11 1
     3      1     12 1
     4      1     13 1
     5      2      3 ar
     6      2      9 ar
     7      3      4 1
     8      3      5 ar
     9      4     16 1
    10      5      6 ar
    11      5     14 1
    12      6      7 ar
    13      6     15 1
    14      7      8 1
    15      7      9 ar
    16      8     17 1
    17      9     10 1
    18     10     18 1
    19     19     20 1
    20     19     32 1
    21     19     33 1
    22     19     34 1
    23     20     21 1
    24     21     22 2
    25     21     23 1
    26     23     24 1
    27     23     28 1
    28     23     35 1
    29     24     25 1
    30     24     36 1
    31     24     37 1
    32     25     26 1
    33     25     38 1
    34     25     39 1
    35     26     27 1
    36     26     40 1
    37     26     41 1
    38     27     28 1
    39     27     42 1
    40     27     43 1
    41     28     29 1
    42     28     44 1
    43     29     30 2
    44     29     31 2
    45      8     29 1
@<TRIPOS>SUBSTRUCTURE
     1 BB1           8
     2 BB2          29
@<TRIPOS>MOLECULE
EN300-7549830_i001_EN300-81521_i001_7_6_10
  34   35   2   0   0
SMALL
USER_CHARGES
@<TRIPOS>ATOM
     1 C1        28.4889    35.8007    42.1272 C.3        1 BB1          0.0000
     2 C2        27.9078    36.2733    40.8195 C.ar       1 BB1          0.0000
     3 C3        26.5436    36.4990    40.7075 C.ar       1 BB1          0.0000
     4 O4        25.7311    36.2940    41.7786 O.3        1 BB1          0.0000
     5 C5        26.0078    36.9338    39.5050 C.ar       1 BB1          0.0000
     6 C6        26.8314    37.1435    38.4143 C.ar       1 BB1          0.0000
     7 C7        28.1953    36.9189    38.5212 C.ar       1 BB1          0.0000
     8 N8        29.0305    37.1316    37.4152 N.pl3      1 BB1          0.0000
     9 C9        28.7360    36.4879    39.7309 C.ar       1 BB1          0.0000
    10 O10       30.0736    36.2671    39.8387 O.3        1 BB1          0.0000
    11 H11       28.4915    34.7109    42.1508 H          1 BB1          0.0000
    12 H12       29.5103    36.1687    42.2249 H          1 BB1          0.0000
    13 H13       27.8854    36.1806    42.9514 H          1 BB1          0.0000
    14 H14       24.9455    37.1086    39.4199 H          1 BB1          0.0000
    15 H15       26.4120    37.4823    37.4784 H          1 BB1          0.0000
    16 H16       26.1466    35.8002    42.4987 H          1 BB1          0.0000
    17 H17       28.6542    37.4360    36.5746 H          1 BB1          0.0000
    18 H19       30.3337    35.8185    40.6550 H          1 BB1          0.0000
    19 C1        32.5096    36.1058    37.8709 C.3        2 BB2          0.0000
    20 N2        31.7215    36.7036    36.7903 N.pl3      2 BB2          0.0000
    21 C3        32.1227    36.5058    35.3952 C.3        2 BB2          0.0000
    22 C4        32.5729    37.7381    34.6080 C.3        2 BB2          0.0000
    23 C5        33.6015    36.6960    35.0518 C.3        2 BB2          0.0000
    24 S6        30.3772    37.6029    37.1455 S.o2       2 BB2          0.0000
    25 O7        29.3299    37.0996    36.3274 O.2        2 BB2          0.0000
    26 O8        30.2964    37.6611    38.5631 O.2        2 BB2          0.0000
    27 H10       33.2843    36.8052    38.1853 H          2 BB2          0.0000
    28 H11       31.8575    35.8823    38.7153 H          2 BB2          0.0000
    29 H12       32.9733    35.1854    37.5163 H          2 BB2          0.0000
    30 H13       31.5751    35.7348    34.8533 H          2 BB2          0.0000
    31 H14       32.3217    37.7777    33.5482 H          2 BB2          0.0000
    32 H15       32.5705    38.6961    35.1281 H          2 BB2          0.0000
    33 H16       34.2758    36.9684    35.8637 H          2 BB2          0.0000
    34 H17       34.0271    36.0501    34.2838 H          2 BB2          0.0000
@<TRIPOS>BOND
     1      1      2 1
     2      1     11 1
     3      1     12 1
     4      1     13 1
     5      2      3 ar
     6      2      9 ar
     7      3      4 1
     8      3      5 ar
     9      4     16 1
    10      5      6 ar
    11      5     14 1
    12      6      7 ar
    13      6     15 1
    14      7      8 1
    15      7      9 ar
    16      8     17 1
    17      9     10 1
    18     10     18 1
    19     19     20 1
    20     19     27 1
    21     19     28 1
    22     19     29 1
    23     20     21 1
    24     20     24 1
    25     21     22 1
    26     21     23 1
    27     21     30 1
    28     22     23 1
    29     22     31 1
    30     22     32 1
    31     23     33 1
    32     23     34 1
    33     24     25 2
    34     24     26 2
    35      8     24 1
@<TRIPOS>SUBSTRUCTURE
     1 BB1           8
     2 BB2          24
@<TRIPOS>MOLECULE
EN300-7549830_i001_EN300-23873_i001_7_12_10
  36   36   2   0   0
SMALL
USER_CHARGES
@<TRIPOS>ATOM
     1 C1        28.4889    35.8007    42.1272 C.3        1 BB1          0.0000
     2 C2        27.9078    36.2733    40.8195 C.ar       1 BB1          0.0000
     3 C3        26.5436    36.4990    40.7075 C.ar       1 BB1          0.0000
     4 O4        25.7311    36.2940    41.7786 O.3        1 BB1          0.0000
     5 C5        26.0078    36.9338    39.5050 C.ar       1 BB1          0.0000
     6 C6        26.8314    37.1435    38.4143 C.ar       1 BB1          0.0000
     7 C7        28.1953    36.9189    38.5212 C.ar       1 BB1          0.0000
     8 N8        29.0305    37.1316    37.4152 N.pl3      1 BB1          0.0000
     9 C9        28.7360    36.4879    39.7309 C.ar       1 BB1          0.0000
    10 O10       30.0736    36.2671    39.8387 O.3        1 BB1          0.0000
    11 H11       28.4915    34.7109    42.1508 H          1 BB1          0.0000
    12 H12       29.5103    36.1687    42.2249 H          1 BB1          0.0000
    13 H13       27.8854    36.1806    42.9514 H          1 BB1          0.0000
    14 H14       24.9455    37.1086    39.4199 H          1 BB1          0.0000
    15 H15       26.4120    37.4823    37.4784 H          1 BB1          0.0000
    16 H16       26.1466    35.8002    42.4987 H          1 BB1          0.0000
    17 H17       28.6542    37.4360    36.5746 H          1 BB1          0.0000
    18 H19       30.3337    35.8185    40.6550 H          1 BB1          0.0000
    19 C1        32.1237    34.4707    37.6796 C.3        2 BB2          0.0000
    20 C2        32.3911    35.9674    37.8497 C.3        2 BB2          0.0000
    21 N3        32.1314    36.6569    36.5835 N.pl3      2 BB2          0.0000
    22 C4        32.9757    36.3884    35.4167 C.3        2 BB2          0.0000
    23 C5        32.6994    37.4352    34.3356 C.3        2 BB2          0.0000
    24 S6        30.8836    37.7399    36.4710 S.o2       2 BB2          0.0000
    25 O7        31.4766    39.0294    36.4021 O.2        2 BB2          0.0000
    26 O8        30.0028    37.2353    35.4767 O.2        2 BB2          0.0000
    27 H10       31.0842    34.3179    37.3893 H          2 BB2          0.0000
    28 H11       32.7795    34.0699    36.9066 H          2 BB2          0.0000
    29 H12       32.3169    33.9577    38.6218 H          2 BB2          0.0000
    30 H13       31.7352    36.3681    38.6227 H          2 BB2          0.0000
    31 H14       33.4304    36.1202    38.1401 H          2 BB2          0.0000
    32 H15       34.0248    36.4357    35.7087 H          2 BB2          0.0000
    33 H16       32.7515    35.3955    35.0268 H          2 BB2          0.0000
    34 H17       33.3277    37.2355    33.4674 H          2 BB2          0.0000
    35 H18       31.6504    37.3878    34.0435 H          2 BB2          0.0000
    36 H19       32.9237    38.4281    34.7255 H          2 BB2          0.0000
@<TRIPOS>BOND
     1      1      2 1
     2      1     11 1
     3      1     12 1
     4      1     13 1
     5      2      3 ar
     6      2      9 ar
     7      3      4 1
     8      3      5 ar
     9      4     16 1
    10      5      6 ar
    11      5     14 1
    12      6      7 ar
    13      6     15 1
    14      7      8 1
    15      7      9 ar
    16      8     17 1
    17      9     10 1
    18     10     18 1
    19     19     20 1
    20     19     27 1
    21     19     28 1
    22     19     29 1
    23     20     21 1
    24     20     30 1
    25     20     31 1
    26     21     22 1
    27     21     24 1
    28     22     23 1
    29     22     32 1
    30     22     33 1
    31     23     34 1
    32     23     35 1
    33     23     36 1
    34     24     25 2
    35     24     26 2
    36      8     24 1
@<TRIPOS>SUBSTRUCTURE
     1 BB1           8
     2 BB2          24
@<TRIPOS>MOLECULE
EN300-7549830_i001_EN300-23873_i001_7_13_10
  36   36   2   0   0
SMALL
USER_CHARGES
@<TRIPOS>ATOM
     1 C1        28.4889    35.8007    42.1272 C.3        1 BB1          0.0000
     2 C2        27.9078    36.2733    40.8195 C.ar       1 BB1          0.0000
     3 C3        26.5436    36.4990    40.7075 C.ar       1 BB1          0.0000
     4 O4        25.7311    36.2940    41.7786 O.3        1 BB1          0.0000
     5 C5        26.0078    36.9338    39.5050 C.ar       1 BB1          0.0000
     6 C6        26.8314    37.1435    38.4143 C.ar       1 BB1          0.0000
     7 C7        28.1953    36.9189    38.5212 C.ar       1 BB1          0.0000
     8 N8        29.0305    37.1316    37.4152 N.pl3      1 BB1          0.0000
     9 C9        28.7360    36.4879    39.7309 C.ar       1 BB1          0.0000
    10 O10       30.0736    36.2671    39.8387 O.3        1 BB1          0.0000
    11 H11       28.4915    34.7109    42.1508 H          1 BB1          0.0000
    12 H12       29.5103    36.1687    42.2249 H          1 BB1          0.0000
    13 H13       27.8854    36.1806    42.9514 H          1 BB1          0.0000
    14 H14       24.9455    37.1086    39.4199 H          1 BB1          0.0000
    15 H15       26.4120    37.4823    37.4784 H          1 BB1          0.0000
    16 H16       26.1466    35.8002    42.4987 H          1 BB1          0.0000
    17 H17       28.6542    37.4360    36.5746 H          1 BB1          0.0000
    18 H19       30.3337    35.8185    40.6550 H          1 BB1          0.0000
    19 C1        32.3602    37.9758    34.4967 C.3        2 BB2          0.0000
    20 C2        31.3846    37.0194    35.1852 C.3        2 BB2          0.0000
    21 N3        31.4105    37.2527    36.6313 N.pl3      2 BB2          0.0000
    22 C4        32.6336    36.9905    37.3938 C.3        2 BB2          0.0000
    23 C5        33.0145    35.5152    37.2554 C.3        2 BB2          0.0000
    24 S6        30.0571    37.8127    37.4040 S.o2       2 BB2          0.0000
    25 O7        28.9437    37.2823    36.6980 O.2        2 BB2          0.0000
    26 O8        30.2705    37.5989    38.7925 O.2        2 BB2          0.0000
    27 H10       32.0672    39.0051    34.7039 H          2 BB2          0.0000
    28 H11       33.3676    37.8017    34.8748 H          2 BB2          0.0000
    29 H12       32.3409    37.8022    33.4208 H          2 BB2          0.0000
    30 H13       30.3772    37.1936    34.8071 H          2 BB2          0.0000
    31 H14       31.6775    35.9902    34.9779 H          2 BB2          0.0000
    32 H15       33.4420    37.6121    37.0088 H          2 BB2          0.0000
    33 H16       32.4639    37.2249    38.4446 H          2 BB2          0.0000
    34 H17       33.9246    35.3201    37.8227 H          2 BB2          0.0000
    35 H18       32.2061    34.8936    37.6404 H          2 BB2          0.0000
    36 H19       33.1842    35.2808    36.2044 H          2 BB2          0.0000
@<TRIPOS>BOND
     1      1      2 1
     2      1     11 1
     3      1     12 1
     4      1     13 1
     5      2      3 ar
     6      2      9 ar
     7      3      4 1
     8      3      5 ar
     9      4     16 1
    10      5      6 ar
    11      5     14 1
    12      6      7 ar
    13      6     15 1
    14      7      8 1
    15      7      9 ar
    16      8     17 1
    17      9     10 1
    18     10     18 1
    19     19     20 1
    20     19     27 1
    21     19     28 1
    22     19     29 1
    23     20     21 1
    24     20     30 1
    25     20     31 1
    26     21     22 1
    27     21     24 1
    28     22     23 1
    29     22     32 1
    30     22     33 1
    31     23     34 1
    32     23     35 1
    33     23     36 1
    34     24     25 2
    35     24     26 2
    36      8     24 1
@<TRIPOS>SUBSTRUCTURE
     1 BB1           8
     2 BB2          24
@<TRIPOS>MOLECULE
EN300-7549830_i001_EN300-125264_i004_7_13_10
  44   45   2   0   0
SMALL
USER_CHARGES
@<TRIPOS>ATOM
     1 C1        28.4889    35.8007    42.1272 C.3        1 BB1          0.0000
     2 C2        27.9078    36.2733    40.8195 C.ar       1 BB1          0.0000
     3 C3        26.5436    36.4990    40.7075 C.ar       1 BB1          0.0000
     4 O4        25.7311    36.2940    41.7786 O.3        1 BB1          0.0000
     5 C5        26.0078    36.9338    39.5050 C.ar       1 BB1          0.0000
     6 C6        26.8314    37.1435    38.4143 C.ar       1 BB1          0.0000
     7 C7        28.1953    36.9189    38.5212 C.ar       1 BB1          0.0000
     8 N8        29.0305    37.1316    37.4152 N.pl3      1 BB1          0.0000
     9 C9        28.7360    36.4879    39.7309 C.ar       1 BB1          0.0000
    10 O10       30.0736    36.2671    39.8387 O.3        1 BB1          0.0000
    11 H11       28.4915    34.7109    42.1508 H          1 BB1          0.0000
    12 H12       29.5103    36.1687    42.2249 H          1 BB1          0.0000
    13 H13       27.8854    36.1806    42.9514 H          1 BB1          0.0000
    14 H14       24.9455    37.1086    39.4199 H          1 BB1          0.0000
    15 H15       26.4120    37.4823    37.4784 H          1 BB1          0.0000
    16 H16       26.1466    35.8002    42.4987 H          1 BB1          0.0000
    17 H17       28.6542    37.4360    36.5746 H          1 BB1          0.0000
    18 H19       30.3337    35.8185    40.6550 H          1 BB1          0.0000
    19 C1        31.4939    33.5108    38.2003 C.3        2 BB2          0.0000
    20 O2        32.1002    34.7987    38.4867 O.3        2 BB2          0.0000
    21 C3        31.6343    35.8567    37.8047 C.2        2 BB2          0.0000
    22 O4        30.5225    35.8291    37.3323 O.2        2 BB2          0.0000
    23 C5        32.4978    37.0792    37.6282 C.3        2 BB2          0.0000
    24 C6        33.8392    36.6719    37.0155 C.3        2 BB2          0.0000
    25 C7        33.5999    36.0157    35.6542 C.3        2 BB2          0.0000
    26 C8        32.8957    37.0079    34.7265 C.3        2 BB2          0.0000
    27 C9        31.5543    37.4152    35.3392 C.3        2 BB2          0.0000
    28 C10       31.7936    38.0714    36.7005 C.3        2 BB2          0.0000
    29 S11       30.2031    38.5543    37.4270 S.o2       2 BB2          0.0000
    30 O12       30.0026    37.8963    38.6704 O.2        2 BB2          0.0000
    31 O13       30.0008    39.9549    37.2983 O.2        2 BB2          0.0000
    32 H15       31.9612    32.7439    38.8180 H          2 BB2          0.0000
    33 H16       30.4272    33.5544    38.4202 H          2 BB2          0.0000
    34 H17       31.6382    33.2674    37.1476 H          2 BB2          0.0000
    35 H18       32.6683    37.5467    38.5980 H          2 BB2          0.0000
    36 H19       34.4637    37.5560    36.8878 H          2 BB2          0.0000
    37 H20       34.3409    35.9651    37.6763 H          2 BB2          0.0000
    38 H21       34.5556    35.7255    35.2176 H          2 BB2          0.0000
    39 H22       32.9753    35.1315    35.7819 H          2 BB2          0.0000
    40 H23       33.5202    37.8921    34.5989 H          2 BB2          0.0000
    41 H24       32.7252    36.5404    33.7567 H          2 BB2          0.0000
    42 H25       31.0526    38.1221    34.6784 H          2 BB2          0.0000
    43 H26       30.9297    36.5310    35.4669 H          2 BB2          0.0000
    44 H27       32.4180    38.9555    36.5729 H          2 BB2          0.0000
@<TRIPOS>BOND
     1      1      2 1
     2      1     11 1
     3      1     12 1
     4      1     13 1
     5      2      3 ar
     6      2      9 ar
     7      3      4 1
     8      3      5 ar
     9      4     16 1
    10      5      6 ar
    11      5     14 1
    12      6      7 ar
    13      6     15 1
    14      7      8 1
    15      7      9 ar
    16      8     17 1
    17      9     10 1
    18     10     18 1
    19     19     20 1
    20     19     32 1
    21     19     33 1
    22     19     34 1
    23     20     21 1
    24     21     22 2
    25     21     23 1
    26     23     24 1
    27     23     28 1
    28     23     35 1
    29     24     25 1
    30     24     36 1
    31     24     37 1
    32     25     26 1
    33     25     38 1
    34     25     39 1
    35     26     27 1
    36     26     40 1
    37     26     41 1
    38     27     28 1
    39     27     42 1
    40     27     43 1
    41     28     29 1
    42     28     44 1
    43     29     30 2
    44     29     31 2
    45      8     29 1
@<TRIPOS>SUBSTRUCTURE
     1 BB1           8
     2 BB2          29
@<TRIPOS>MOLECULE
EN300-7549830_i001_EN300-125264_i004_7_6_10
  44   45   2   0   0
SMALL
USER_CHARGES
@<TRIPOS>ATOM
     1 C1        28.4889    35.8007    42.1272 C.3        1 BB1          0.0000
     2 C2        27.9078    36.2733    40.8195 C.ar       1 BB1          0.0000
     3 C3        26.5436    36.4990    40.7075 C.ar       1 BB1          0.0000
     4 O4        25.7311    36.2940    41.7786 O.3        1 BB1          0.0000
     5 C5        26.0078    36.9338    39.5050 C.ar       1 BB1          0.0000
     6 C6        26.8314    37.1435    38.4143 C.ar       1 BB1          0.0000
     7 C7        28.1953    36.9189    38.5212 C.ar       1 BB1          0.0000
     8 N8        29.0305    37.1316    37.4152 N.pl3      1 BB1          0.0000
     9 C9        28.7360    36.4879    39.7309 C.ar       1 BB1          0.0000
    10 O10       30.0736    36.2671    39.8387 O.3        1 BB1          0.0000
    11 H11       28.4915    34.7109    42.1508 H          1 BB1          0.0000
    12 H12       29.5103    36.1687    42.2249 H          1 BB1          0.0000
    13 H13       27.8854    36.1806    42.9514 H          1 BB1          0.0000
    14 H14       24.9455    37.1086    39.4199 H          1 BB1          0.0000
    15 H15       26.4120    37.4823    37.4784 H          1 BB1          0.0000
    16 H16       26.1466    35.8002    42.4987 H          1 BB1          0.0000
    17 H17       28.6542    37.4360    36.5746 H          1 BB1          0.0000
    18 H19       30.3337    35.8185    40.6550 H          1 BB1          0.0000
    19 C1        31.3088    33.5520    38.4987 C.3        2 BB2          0.0000
    20 O2        32.0474    34.7994    38.5809 O.3        2 BB2          0.0000
    21 C3        31.6525    35.7957    37.7727 C.2        2 BB2          0.0000
    22 O4        30.6075    35.7086    37.1724 O.2        2 BB2          0.0000
    23 C5        32.5126    37.0231    37.6140 C.3        2 BB2          0.0000
    24 C6        33.9304    36.6048    37.2194 C.3        2 BB2          0.0000
    25 C7        33.8864    35.8383    35.8960 C.3        2 BB2          0.0000
    26 C8        33.2975    36.7361    34.8059 C.3        2 BB2          0.0000
    27 C9        31.8797    37.1544    35.2005 C.3        2 BB2          0.0000
    28 C10       31.9238    37.9209    36.5239 C.3        2 BB2          0.0000
    29 S11       30.2428    38.4168    36.9917 S.o2       2 BB2          0.0000
    30 O12       29.3222    38.0954    35.9580 O.2        2 BB2          0.0000
    31 O13       29.9777    38.0675    38.3434 O.2        2 BB2          0.0000
    32 H15       31.7296    32.8337    39.2023 H          2 BB2          0.0000
    33 H16       30.2626    33.7323    38.7456 H          2 BB2          0.0000
    34 H17       31.3799    33.1537    37.4866 H          2 BB2          0.0000
    35 H18       32.5440    37.5691    38.5568 H          2 BB2          0.0000
    36 H19       34.5524    37.4924    37.1046 H          2 BB2          0.0000
    37 H20       34.3498    35.9651    37.9959 H          2 BB2          0.0000
    38 H21       34.8964    35.5402    35.6149 H          2 BB2          0.0000
    39 H22       33.2642    34.9506    36.0108 H          2 BB2          0.0000
    40 H23       33.9196    37.6238    34.6912 H          2 BB2          0.0000
    41 H24       33.2662    36.1900    33.8631 H          2 BB2          0.0000
    42 H25       31.4602    37.7941    34.4240 H          2 BB2          0.0000
    43 H26       31.2576    36.2667    35.3153 H          2 BB2          0.0000
    44 H27       32.5457    38.8086    36.4092 H          2 BB2          0.0000
@<TRIPOS>BOND
     1      1      2 1
     2      1     11 1
     3      1     12 1
     4      1     13 1
     5      2      3 ar
     6      2      9 ar
     7      3      4 1
     8      3      5 ar
     9      4     16 1
    10      5      6 ar
    11      5     14 1
    12      6      7 ar
    13      6     15 1
    14      7      8 1
    15      7      9 ar
    16      8     17 1
    17      9     10 1
    18     10     18 1
    19     19     20 1
    20     19     32 1
    21     19     33 1
    22     19     34 1
    23     20     21 1
    24     21     22 2
    25     21     23 1
    26     23     24 1
    27     23     28 1
    28     23     35 1
    29     24     25 1
    30     24     36 1
    31     24     37 1
    32     25     26 1
    33     25     38 1
    34     25     39 1
    35     26     27 1
    36     26     40 1
    37     26     41 1
    38     27     28 1
    39     27     42 1
    40     27     43 1
    41     28     29 1
    42     28     44 1
    43     29     30 2
    44     29     31 2
    45      8     29 1
@<TRIPOS>SUBSTRUCTURE
     1 BB1           8
     2 BB2          29
@<TRIPOS>MOLECULE
EN300-74934_i001_EN300-125264_i004_7_3_10
  40   41   2   0   0
SMALL
USER_CHARGES
@<TRIPOS>ATOM
     1 N1        30.2547    35.4304    39.6689 N.pl3      1 BB1          0.0000
     2 C2        28.9031    35.7763    39.7820 C.ar       1 BB1          0.0000
     3 C3        28.0717    35.7049    38.6734 C.ar       1 BB1          0.0000
     4 C4        26.7375    36.0473    38.7870 C.ar       1 BB1          0.0000
     5 C5        26.2275    36.4610    40.0037 C.ar       1 BB1          0.0000
     6 C6        27.0503    36.5343    41.1138 C.ar       1 BB1          0.0000
     7 Cl7       26.4054    37.0543    42.6395 Cl         1 BB1          0.0000
     8 C8        28.3882    36.1874    41.0090 C.ar       1 BB1          0.0000
     9 O9        29.1986    36.2585    42.0993 O.3        1 BB1          0.0000
    10 H10       28.4673    35.3821    37.7217 H          1 BB1          0.0000
    11 H11       26.0918    35.9919    37.9231 H          1 BB1          0.0000
    12 H12       25.1844    36.7279    40.0878 H          1 BB1          0.0000
    13 H14       30.8357    35.4846    40.4436 H          1 BB1          0.0000
    14 H15       30.0339    35.7816    42.0002 H          1 BB1          0.0000
    15 C1        29.8470    40.1769    37.0204 C.3        2 BB2          0.0000
    16 O2        29.5265    38.8404    36.5520 O.3        2 BB2          0.0000
    17 C3        30.4062    37.8675    36.8373 C.2        2 BB2          0.0000
    18 O4        31.0770    37.9344    37.8400 O.2        2 BB2          0.0000
    19 C5        30.5572    36.6916    35.9068 C.3        2 BB2          0.0000
    20 C6        30.8471    37.1951    34.4915 C.3        2 BB2          0.0000
    21 C7        32.1411    38.0115    34.4956 C.3        2 BB2          0.0000
    22 C8        33.2984    37.1307    34.9707 C.3        2 BB2          0.0000
    23 C9        33.0085    36.6272    36.3861 C.3        2 BB2          0.0000
    24 C10       31.7145    35.8108    36.3819 C.3        2 BB2          0.0000
    25 S11       31.3707    35.2138    38.0600 S.o2       2 BB2          0.0000
    26 O12       32.4263    35.5702    38.9421 O.2        2 BB2          0.0000
    27 O13       30.0138    35.4543    38.4067 O.2        2 BB2          0.0000
    28 H15       29.0558    40.8653    36.7236 H          2 BB2          0.0000
    29 H16       29.9339    40.1700    38.1069 H          2 BB2          0.0000
    30 H17       30.7918    40.4987    36.5823 H          2 BB2          0.0000
    31 H18       29.6353    36.1099    35.9039 H          2 BB2          0.0000
    32 H19       30.9563    36.3446    33.8186 H          2 BB2          0.0000
    33 H20       30.0227    37.8226    34.1531 H          2 BB2          0.0000
    34 H21       32.3477    38.3703    33.4873 H          2 BB2          0.0000
    35 H22       32.0318    38.8620    35.1686 H          2 BB2          0.0000
    36 H23       33.4075    36.2802    34.2978 H          2 BB2          0.0000
    37 H24       34.2202    37.7124    34.9737 H          2 BB2          0.0000
    38 H25       33.8329    35.9996    36.7245 H          2 BB2          0.0000
    39 H26       32.8992    37.4777    37.0591 H          2 BB2          0.0000
    40 H27       31.8237    34.9602    35.7091 H          2 BB2          0.0000
@<TRIPOS>BOND
     1      1      2 1
     2      1     13 1
     3      2      3 ar
     4      2      8 ar
     5      3      4 ar
     6      3     10 1
     7      4      5 ar
     8      4     11 1
     9      5      6 ar
    10      5     12 1
    11      6      7 1
    12      6      8 ar
    13      8      9 1
    14      9     14 1
    15     15     16 1
    16     15     28 1
    17     15     29 1
    18     15     30 1
    19     16     17 1
    20     17     18 2
    21     17     19 1
    22     19     20 1
    23     19     24 1
    24     19     31 1
    25     20     21 1
    26     20     32 1
    27     20     33 1
    28     21     22 1
    29     21     34 1
    30     21     35 1
    31     22     23 1
    32     22     36 1
    33     22     37 1
    34     23     24 1
    35     23     38 1
    36     23     39 1
    37     24     25 1
    38     24     40 1
    39     25     26 2
    40     25     27 2
    41      1     25 1
@<TRIPOS>SUBSTRUCTURE
     1 BB1           1
     2 BB2          25
@<TRIPOS>MOLECULE
EN300-74934_i001_EN300-125264_i004_9_3_10
  40   41   2   0   0
SMALL
USER_CHARGES
@<TRIPOS>ATOM
     1 N1        30.0582    36.0861    40.1992 N.pl3      1 BB1          0.0000
     2 C2        28.7087    36.3695    39.9597 C.ar       1 BB1          0.0000
     3 C3        28.3316    37.0261    38.7969 C.ar       1 BB1          0.0000
     4 C4        26.9984    37.3055    38.5624 C.ar       1 BB1          0.0000
     5 C5        26.0377    36.9320    39.4838 C.ar       1 BB1          0.0000
     6 C6        26.4060    36.2765    40.6455 C.ar       1 BB1          0.0000
     7 Cl7       25.1961    35.8096    41.7996 Cl         1 BB1          0.0000
     8 C8        27.7404    35.9881    40.8852 C.ar       1 BB1          0.0000
     9 O9        28.1044    35.3435    42.0265 O.3        1 BB1          0.0000
    10 H10       29.0798    37.3190    38.0753 H          1 BB1          0.0000
    11 H11       26.7066    37.8172    37.6572 H          1 BB1          0.0000
    12 H12       24.9972    37.1527    39.2966 H          1 BB1          0.0000
    13 H14       30.3210    35.6307    41.0143 H          1 BB1          0.0000
    14 H15       27.3857    34.8512    42.4463 H          1 BB1          0.0000
    15 C1        29.8470    40.1769    37.0204 C.3        2 BB2          0.0000
    16 O2        29.5265    38.8404    36.5520 O.3        2 BB2          0.0000
    17 C3        30.4062    37.8675    36.8373 C.2        2 BB2          0.0000
    18 O4        31.0770    37.9344    37.8400 O.2        2 BB2          0.0000
    19 C5        30.5572    36.6916    35.9068 C.3        2 BB2          0.0000
    20 C6        30.8471    37.1951    34.4915 C.3        2 BB2          0.0000
    21 C7        32.1411    38.0115    34.4956 C.3        2 BB2          0.0000
    22 C8        33.2984    37.1307    34.9707 C.3        2 BB2          0.0000
    23 C9        33.0085    36.6272    36.3861 C.3        2 BB2          0.0000
    24 C10       31.7145    35.8108    36.3819 C.3        2 BB2          0.0000
    25 S11       31.3707    35.2138    38.0600 S.o2       2 BB2          0.0000
    26 O12       32.4263    35.5702    38.9421 O.2        2 BB2          0.0000
    27 O13       30.0138    35.4543    38.4067 O.2        2 BB2          0.0000
    28 H15       29.0558    40.8653    36.7236 H          2 BB2          0.0000
    29 H16       29.9339    40.1700    38.1069 H          2 BB2          0.0000
    30 H17       30.7918    40.4987    36.5823 H          2 BB2          0.0000
    31 H18       29.6353    36.1099    35.9039 H          2 BB2          0.0000
    32 H19       30.9563    36.3446    33.8186 H          2 BB2          0.0000
    33 H20       30.0227    37.8226    34.1531 H          2 BB2          0.0000
    34 H21       32.3477    38.3703    33.4873 H          2 BB2          0.0000
    35 H22       32.0318    38.8620    35.1686 H          2 BB2          0.0000
    36 H23       33.4075    36.2802    34.2978 H          2 BB2          0.0000
    37 H24       34.2202    37.7124    34.9737 H          2 BB2          0.0000
    38 H25       33.8329    35.9996    36.7245 H          2 BB2          0.0000
    39 H26       32.8992    37.4777    37.0591 H          2 BB2          0.0000
    40 H27       31.8237    34.9602    35.7091 H          2 BB2          0.0000
@<TRIPOS>BOND
     1      1      2 1
     2      1     13 1
     3      2      3 ar
     4      2      8 ar
     5      3      4 ar
     6      3     10 1
     7      4      5 ar
     8      4     11 1
     9      5      6 ar
    10      5     12 1
    11      6      7 1
    12      6      8 ar
    13      8      9 1
    14      9     14 1
    15     15     16 1
    16     15     28 1
    17     15     29 1
    18     15     30 1
    19     16     17 1
    20     17     18 2
    21     17     19 1
    22     19     20 1
    23     19     24 1
    24     19     31 1
    25     20     21 1
    26     20     32 1
    27     20     33 1
    28     21     22 1
    29     21     34 1
    30     21     35 1
    31     22     23 1
    32     22     36 1
    33     22     37 1
    34     23     24 1
    35     23     38 1
    36     23     39 1
    37     24     25 1
    38     24     40 1
    39     25     26 2
    40     25     27 2
    41      1     25 1
@<TRIPOS>SUBSTRUCTURE
     1 BB1           1
     2 BB2          25
@<TRIPOS>MOLECULE
EN300-126720_i001_EN300-81521_i001_11_5_10
  35   36   2   0   0
SMALL
USER_CHARGES
@<TRIPOS>ATOM
     1 C1        32.1281    38.1361    34.0805 C.3        1 BB1          0.0000
     2 C2        32.8114    37.1468    34.9891 C.2        1 BB1          0.0000
     3 O3        33.8988    36.6998    34.6906 O.2        1 BB1          0.0000
     4 C4        32.1607    36.7240    36.2360 C.ar       1 BB1          0.0000
     5 C5        32.7057    35.6801    36.9933 C.ar       1 BB1          0.0000
     6 C6        32.0945    35.2852    38.1624 C.ar       1 BB1          0.0000
     7 C7        30.9372    35.9195    38.5942 C.ar       1 BB1          0.0000
     8 O8        30.3395    35.5255    39.7478 O.3        1 BB1          0.0000
     9 C9        30.3868    36.9619    37.8457 C.ar       1 BB1          0.0000
    10 N10       29.2205    37.5994    38.2850 N.pl3      1 BB1          0.0000
    11 C11       30.9967    37.3675    36.6737 C.ar       1 BB1          0.0000
    12 H12       32.7580    38.3268    33.2117 H          1 BB1          0.0000
    13 H13       31.1717    37.7284    33.7534 H          1 BB1          0.0000
    14 H14       31.9604    39.0686    34.6194 H          1 BB1          0.0000
    15 H15       33.6056    35.1842    36.6602 H          1 BB1          0.0000
    16 H16       32.5163    34.4795    38.7449 H          1 BB1          0.0000
    17 H17       30.5726    38.1735    36.0933 H          1 BB1          0.0000
    18 H18       30.9570    35.2203    40.4265 H          1 BB1          0.0000
    19 H20       28.8383    38.3235    37.7649 H          1 BB1          0.0000
    20 C1        28.7703    36.2182    41.7836 C.3        2 BB2          0.0000
    21 N2        28.0493    36.2782    40.5097 N.pl3      2 BB2          0.0000
    22 C3        26.5901    36.1496    40.4871 C.3        2 BB2          0.0000
    23 C4        25.7874    37.0423    41.4356 C.3        2 BB2          0.0000
    24 C5        25.7857    37.3269    39.9322 C.3        2 BB2          0.0000
    25 S6        28.8837    36.4914    39.0953 S.o2       2 BB2          0.0000
    26 O7        27.9214    36.4444    38.0507 O.2        2 BB2          0.0000
    27 O8        29.7510    37.5976    39.3038 O.2        2 BB2          0.0000
    28 H10       29.0405    35.1845    41.9998 H          2 BB2          0.0000
    29 H11       29.6742    36.8239    41.7184 H          2 BB2          0.0000
    30 H12       28.1328    36.6013    42.5803 H          2 BB2          0.0000
    31 H13       26.2095    35.1459    40.2978 H          2 BB2          0.0000
    32 H14       24.8785    36.6260    41.8699 H          2 BB2          0.0000
    33 H15       26.3449    37.7253    42.0764 H          2 BB2          0.0000
    34 H16       26.3421    38.1971    39.5841 H          2 BB2          0.0000
    35 H17       24.8757    37.0978    39.3776 H          2 BB2          0.0000
@<TRIPOS>BOND
     1      1      2 1
     2      1     12 1
     3      1     13 1
     4      1     14 1
     5      2      3 2
     6      2      4 1
     7      4      5 ar
     8      4     11 ar
     9      5      6 ar
    10      5     15 1
    11      6      7 ar
    12      6     16 1
    13      7      8 1
    14      7      9 ar
    15      8     18 1
    16      9     10 1
    17      9     11 ar
    18     10     19 1
    19     11     17 1
    20     20     21 1
    21     20     28 1
    22     20     29 1
    23     20     30 1
    24     21     22 1
    25     21     25 1
    26     22     23 1
    27     22     24 1
    28     22     31 1
    29     23     24 1
    30     23     32 1
    31     23     33 1
    32     24     34 1
    33     24     35 1
    34     25     26 2
    35     25     27 2
    36     10     25 1
@<TRIPOS>SUBSTRUCTURE
     1 BB1          10
     2 BB2          25
@<TRIPOS>MOLECULE
EN300-126720_i001_EN300-81521_i001_16_5_10
  35   36   2   0   0
SMALL
USER_CHARGES
@<TRIPOS>ATOM
     1 C1        31.8282    38.2242    34.2961 C.3        1 BB1          0.0000
     2 C2        31.1075    38.2503    35.6193 C.2        1 BB1          0.0000
     3 O3        30.3795    39.1805    35.8952 O.2        1 BB1          0.0000
     4 C4        31.2865    37.1494    36.5748 C.ar       1 BB1          0.0000
     5 C5        32.0940    36.0552    36.2419 C.ar       1 BB1          0.0000
     6 C6        32.2611    35.0241    37.1393 C.ar       1 BB1          0.0000
     7 C7        31.6306    35.0653    38.3757 C.ar       1 BB1          0.0000
     8 O8        31.7995    34.0456    39.2561 O.3        1 BB1          0.0000
     9 C9        30.8238    36.1529    38.7166 C.ar       1 BB1          0.0000
    10 N10       30.1906    36.1910    39.9645 N.pl3      1 BB1          0.0000
    11 C11       30.6547    37.1940    37.8236 C.ar       1 BB1          0.0000
    12 H12       31.5736    39.1176    33.7260 H          1 BB1          0.0000
    13 H13       32.9040    38.1978    34.4688 H          1 BB1          0.0000
    14 H14       31.5282    37.3383    33.7364 H          1 BB1          0.0000
    15 H15       32.5857    36.0197    35.2809 H          1 BB1          0.0000
    16 H16       32.8842    34.1808    36.8805 H          1 BB1          0.0000
    17 H17       30.0311    38.0360    38.0853 H          1 BB1          0.0000
    18 H18       31.7228    34.3095    40.1831 H          1 BB1          0.0000
    19 H19       30.3123    35.4618    40.5925 H          1 BB1          0.0000
    20 C1        28.7703    36.2182    41.7836 C.3        2 BB2          0.0000
    21 N2        28.0493    36.2782    40.5097 N.pl3      2 BB2          0.0000
    22 C3        26.5901    36.1496    40.4871 C.3        2 BB2          0.0000
    23 C4        25.7874    37.0423    41.4356 C.3        2 BB2          0.0000
    24 C5        25.7857    37.3269    39.9322 C.3        2 BB2          0.0000
    25 S6        28.8837    36.4914    39.0953 S.o2       2 BB2          0.0000
    26 O7        27.9214    36.4444    38.0507 O.2        2 BB2          0.0000
    27 O8        29.7510    37.5976    39.3038 O.2        2 BB2          0.0000
    28 H10       29.0405    35.1845    41.9998 H          2 BB2          0.0000
    29 H11       29.6742    36.8239    41.7184 H          2 BB2          0.0000
    30 H12       28.1328    36.6013    42.5803 H          2 BB2          0.0000
    31 H13       26.2095    35.1459    40.2978 H          2 BB2          0.0000
    32 H14       24.8785    36.6260    41.8699 H          2 BB2          0.0000
    33 H15       26.3449    37.7253    42.0764 H          2 BB2          0.0000
    34 H16       26.3421    38.1971    39.5841 H          2 BB2          0.0000
    35 H17       24.8757    37.0978    39.3776 H          2 BB2          0.0000
@<TRIPOS>BOND
     1      1      2 1
     2      1     12 1
     3      1     13 1
     4      1     14 1
     5      2      3 2
     6      2      4 1
     7      4      5 ar
     8      4     11 ar
     9      5      6 ar
    10      5     15 1
    11      6      7 ar
    12      6     16 1
    13      7      8 1
    14      7      9 ar
    15      8     18 1
    16      9     10 1
    17      9     11 ar
    18     10     19 1
    19     11     17 1
    20     20     21 1
    21     20     28 1
    22     20     29 1
    23     20     30 1
    24     21     22 1
    25     21     25 1
    26     22     23 1
    27     22     24 1
    28     22     31 1
    29     23     24 1
    30     23     32 1
    31     23     33 1
    32     24     34 1
    33     24     35 1
    34     25     26 2
    35     25     27 2
    36     10     25 1
@<TRIPOS>SUBSTRUCTURE
     1 BB1          10
     2 BB2          25
@<TRIPOS>MOLECULE
EN300-140735_i001_EN300-23873_i001_4_13_10
  32   32   2   0   0
SMALL
USER_CHARGES
@<TRIPOS>ATOM
     1 N1        30.3533    35.8777    39.6544 N.pl3      1 BB1          0.0000
     2 C2        29.0202    36.2927    39.7496 C.ar       1 BB1          0.0000
     3 C3        28.3355    36.6989    38.6132 C.ar       1 BB1          0.0000
     4 C4        27.0172    37.1089    38.7097 C.ar       1 BB1          0.0000
     5 F5        26.3513    37.5044    37.6027 F          1 BB1          0.0000
     6 C6        26.3794    37.1143    39.9386 C.ar       1 BB1          0.0000
     7 C7        27.0576    36.7100    41.0751 C.ar       1 BB1          0.0000
     8 Cl8       26.2540    36.7177    42.6138 Cl         1 BB1          0.0000
     9 C9        28.3761    36.2934    40.9844 C.ar       1 BB1          0.0000
    10 O10       29.0438    35.8957    42.1015 O.3        1 BB1          0.0000
    11 H11       28.8313    36.6955    37.6537 H          1 BB1          0.0000
    12 H12       25.3506    37.4348    40.0103 H          1 BB1          0.0000
    13 H14       30.8322    35.5976    40.4501 H          1 BB1          0.0000
    14 H15       29.8376    35.3740    41.9204 H          1 BB1          0.0000
    15 C1        32.3602    37.9758    34.4967 C.3        2 BB2          0.0000
    16 C2        31.3846    37.0194    35.1852 C.3        2 BB2          0.0000
    17 N3        31.4105    37.2527    36.6313 N.pl3      2 BB2          0.0000
    18 C4        32.6336    36.9905    37.3938 C.3        2 BB2          0.0000
    19 C5        33.0145    35.5152    37.2554 C.3        2 BB2          0.0000
    20 S6        30.0571    37.8127    37.4040 S.o2       2 BB2          0.0000
    21 O7        28.9437    37.2823    36.6980 O.2        2 BB2          0.0000
    22 O8        30.2705    37.5989    38.7925 O.2        2 BB2          0.0000
    23 H10       32.0672    39.0051    34.7039 H          2 BB2          0.0000
    24 H11       33.3676    37.8017    34.8748 H          2 BB2          0.0000
    25 H12       32.3409    37.8022    33.4208 H          2 BB2          0.0000
    26 H13       30.3772    37.1936    34.8071 H          2 BB2          0.0000
    27 H14       31.6775    35.9902    34.9779 H          2 BB2          0.0000
    28 H15       33.4420    37.6121    37.0088 H          2 BB2          0.0000
    29 H16       32.4639    37.2249    38.4446 H          2 BB2          0.0000
    30 H17       33.9246    35.3201    37.8227 H          2 BB2          0.0000
    31 H18       32.2061    34.8936    37.6404 H          2 BB2          0.0000
    32 H19       33.1842    35.2808    36.2044 H          2 BB2          0.0000
@<TRIPOS>BOND
     1      1      2 1
     2      1     13 1
     3      2      3 ar
     4      2      9 ar
     5      3      4 ar
     6      3     11 1
     7      4      5 1
     8      4      6 ar
     9      6      7 ar
    10      6     12 1
    11      7      8 1
    12      7      9 ar
    13      9     10 1
    14     10     14 1
    15     15     16 1
    16     15     23 1
    17     15     24 1
    18     15     25 1
    19     16     17 1
    20     16     26 1
    21     16     27 1
    22     17     18 1
    23     17     20 1
    24     18     19 1
    25     18     28 1
    26     18     29 1
    27     19     30 1
    28     19     31 1
    29     19     32 1
    30     20     21 2
    31     20     22 2
    32      1     20 1
@<TRIPOS>SUBSTRUCTURE
     1 BB1           1
     2 BB2          20
@<TRIPOS>MOLECULE
EN300-140735_i001_EN300-125264_i004_4_3_10
  40   41   2   0   0
SMALL
USER_CHARGES
@<TRIPOS>ATOM
     1 N1        30.3533    35.8777    39.6544 N.pl3      1 BB1          0.0000
     2 C2        29.0202    36.2927    39.7496 C.ar       1 BB1          0.0000
     3 C3        28.3355    36.6989    38.6132 C.ar       1 BB1          0.0000
     4 C4        27.0172    37.1089    38.7097 C.ar       1 BB1          0.0000
     5 F5        26.3513    37.5044    37.6027 F          1 BB1          0.0000
     6 C6        26.3794    37.1143    39.9386 C.ar       1 BB1          0.0000
     7 C7        27.0576    36.7100    41.0751 C.ar       1 BB1          0.0000
     8 Cl8       26.2540    36.7177    42.6138 Cl         1 BB1          0.0000
     9 C9        28.3761    36.2934    40.9844 C.ar       1 BB1          0.0000
    10 O10       29.0438    35.8957    42.1015 O.3        1 BB1          0.0000
    11 H11       28.8313    36.6955    37.6537 H          1 BB1          0.0000
    12 H12       25.3506    37.4348    40.0103 H          1 BB1          0.0000
    13 H14       30.8322    35.5976    40.4501 H          1 BB1          0.0000
    14 H15       29.8376    35.3740    41.9204 H          1 BB1          0.0000
    15 C1        29.8470    40.1769    37.0204 C.3        2 BB2          0.0000
    16 O2        29.5265    38.8404    36.5520 O.3        2 BB2          0.0000
    17 C3        30.4062    37.8675    36.8373 C.2        2 BB2          0.0000
    18 O4        31.0770    37.9344    37.8400 O.2        2 BB2          0.0000
    19 C5        30.5572    36.6916    35.9068 C.3        2 BB2          0.0000
    20 C6        30.8471    37.1951    34.4915 C.3        2 BB2          0.0000
    21 C7        32.1411    38.0115    34.4956 C.3        2 BB2          0.0000
    22 C8        33.2984    37.1307    34.9707 C.3        2 BB2          0.0000
    23 C9        33.0085    36.6272    36.3861 C.3        2 BB2          0.0000
    24 C10       31.7145    35.8108    36.3819 C.3        2 BB2          0.0000
    25 S11       31.3707    35.2138    38.0600 S.o2       2 BB2          0.0000
    26 O12       32.4263    35.5702    38.9421 O.2        2 BB2          0.0000
    27 O13       30.0138    35.4543    38.4067 O.2        2 BB2          0.0000
    28 H15       29.0558    40.8653    36.7236 H          2 BB2          0.0000
    29 H16       29.9339    40.1700    38.1069 H          2 BB2          0.0000
    30 H17       30.7918    40.4987    36.5823 H          2 BB2          0.0000
    31 H18       29.6353    36.1099    35.9039 H          2 BB2          0.0000
    32 H19       30.9563    36.3446    33.8186 H          2 BB2          0.0000
    33 H20       30.0227    37.8226    34.1531 H          2 BB2          0.0000
    34 H21       32.3477    38.3703    33.4873 H          2 BB2          0.0000
    35 H22       32.0318    38.8620    35.1686 H          2 BB2          0.0000
    36 H23       33.4075    36.2802    34.2978 H          2 BB2          0.0000
    37 H24       34.2202    37.7124    34.9737 H          2 BB2          0.0000
    38 H25       33.8329    35.9996    36.7245 H          2 BB2          0.0000
    39 H26       32.8992    37.4777    37.0591 H          2 BB2          0.0000
    40 H27       31.8237    34.9602    35.7091 H          2 BB2          0.0000
@<TRIPOS>BOND
     1      1      2 1
     2      1     13 1
     3      2      3 ar
     4      2      9 ar
     5      3      4 ar
     6      3     11 1
     7      4      5 1
     8      4      6 ar
     9      6      7 ar
    10      6     12 1
    11      7      8 1
    12      7      9 ar
    13      9     10 1
    14     10     14 1
    15     15     16 1
    16     15     28 1
    17     15     29 1
    18     15     30 1
    19     16     17 1
    20     17     18 2
    21     17     19 1
    22     19     20 1
    23     19     24 1
    24     19     31 1
    25     20     21 1
    26     20     32 1
    27     20     33 1
    28     21     22 1
    29     21     34 1
    30     21     35 1
    31     22     23 1
    32     22     36 1
    33     22     37 1
    34     23     24 1
    35     23     38 1
    36     23     39 1
    37     24     25 1
    38     24     40 1
    39     25     26 2
    40     25     27 2
    41      1     25 1
@<TRIPOS>SUBSTRUCTURE
     1 BB1           1
     2 BB2          25
@<TRIPOS>MOLECULE
EN300-50872_i001_EN300-81521_i001_10_5_10
  33   34   2   0   0
SMALL
USER_CHARGES
@<TRIPOS>ATOM
     1 C1        33.2110    36.7089    34.9321 C.3        1 BB1          0.0000
     2 C2        32.4319    36.4656    36.1989 C.ar       1 BB1          0.0000
     3 C3        32.7907    35.4294    37.0409 C.ar       1 BB1          0.0000
     4 C4        32.0792    35.2011    38.2044 C.ar       1 BB1          0.0000
     5 C5        31.0041    36.0115    38.5296 C.ar       1 BB1          0.0000
     6 O6        30.3037    35.7881    39.6740 O.3        1 BB1          0.0000
     7 C7        30.6421    37.0561    37.6819 C.ar       1 BB1          0.0000
     8 N8        29.5566    37.8782    38.0055 N.pl3      1 BB1          0.0000
     9 C9        31.3637    37.2824    36.5189 C.ar       1 BB1          0.0000
    10 H10       32.7684    36.1355    34.1175 H          1 BB1          0.0000
    11 H11       33.1827    37.7705    34.6863 H          1 BB1          0.0000
    12 H12       34.2454    36.3967    35.0760 H          1 BB1          0.0000
    13 H13       33.6288    34.7964    36.7890 H          1 BB1          0.0000
    14 H14       32.3618    34.3903    38.8597 H          1 BB1          0.0000
    15 H15       31.0857    38.0913    35.8596 H          1 BB1          0.0000
    16 H16       30.8005    35.3103    40.3523 H          1 BB1          0.0000
    17 H18       29.3055    38.6051    37.4143 H          1 BB1          0.0000
    18 C1        28.7703    36.2182    41.7836 C.3        2 BB2          0.0000
    19 N2        28.0493    36.2782    40.5097 N.pl3      2 BB2          0.0000
    20 C3        26.5901    36.1496    40.4871 C.3        2 BB2          0.0000
    21 C4        25.7874    37.0423    41.4356 C.3        2 BB2          0.0000
    22 C5        25.7857    37.3269    39.9322 C.3        2 BB2          0.0000
    23 S6        28.8837    36.4914    39.0953 S.o2       2 BB2          0.0000
    24 O7        27.9214    36.4444    38.0507 O.2        2 BB2          0.0000
    25 O8        29.7510    37.5976    39.3038 O.2        2 BB2          0.0000
    26 H10       29.0405    35.1845    41.9998 H          2 BB2          0.0000
    27 H11       29.6742    36.8239    41.7184 H          2 BB2          0.0000
    28 H12       28.1328    36.6013    42.5803 H          2 BB2          0.0000
    29 H13       26.2095    35.1459    40.2978 H          2 BB2          0.0000
    30 H14       24.8785    36.6260    41.8699 H          2 BB2          0.0000
    31 H15       26.3449    37.7253    42.0764 H          2 BB2          0.0000
    32 H16       26.3421    38.1971    39.5841 H          2 BB2          0.0000
    33 H17       24.8757    37.0978    39.3776 H          2 BB2          0.0000
@<TRIPOS>BOND
     1      1      2 1
     2      1     10 1
     3      1     11 1
     4      1     12 1
     5      2      3 ar
     6      2      9 ar
     7      3      4 ar
     8      3     13 1
     9      4      5 ar
    10      4     14 1
    11      5      6 1
    12      5      7 ar
    13      6     16 1
    14      7      8 1
    15      7      9 ar
    16      8     17 1
    17      9     15 1
    18     18     19 1
    19     18     26 1
    20     18     27 1
    21     18     28 1
    22     19     20 1
    23     19     23 1
    24     20     21 1
    25     20     22 1
    26     20     29 1
    27     21     22 1
    28     21     30 1
    29     21     31 1
    30     22     32 1
    31     22     33 1
    32     23     24 2
    33     23     25 2
    34      8     23 1
@<TRIPOS>SUBSTRUCTURE
     1 BB1           8
     2 BB2          23
@<TRIPOS>MOLECULE
EN300-50872_i001_EN300-23873_i001_7_13_10
  35   35   2   0   0
SMALL
USER_CHARGES
@<TRIPOS>ATOM
     1 C1        26.1594    37.7783    37.8225 C.3        1 BB1          0.0000
     2 C2        26.9317    37.1696    38.9644 C.ar       1 BB1          0.0000
     3 C3        26.3209    36.9895    40.1916 C.ar       1 BB1          0.0000
     4 C4        27.0246    36.4319    41.2432 C.ar       1 BB1          0.0000
     5 C5        28.3450    36.0516    41.0691 C.ar       1 BB1          0.0000
     6 O6        29.0382    35.5026    42.1026 O.3        1 BB1          0.0000
     7 C7        28.9611    36.2322    39.8328 C.ar       1 BB1          0.0000
     8 N8        30.2952    35.8497    39.6511 N.pl3      1 BB1          0.0000
     9 C9        28.2473    36.7875    38.7808 C.ar       1 BB1          0.0000
    10 H10       26.2813    38.8614    37.8379 H          1 BB1          0.0000
    11 H11       26.5353    37.3838    36.8785 H          1 BB1          0.0000
    12 H12       25.1030    37.5300    37.9251 H          1 BB1          0.0000
    13 H13       25.2913    37.2855    40.3293 H          1 BB1          0.0000
    14 H14       26.5446    36.2932    42.2008 H          1 BB1          0.0000
    15 H15       28.7220    36.9290    37.8211 H          1 BB1          0.0000
    16 H16       29.9964    35.4942    41.9731 H          1 BB1          0.0000
    17 H17       30.7920    35.4583    40.3866 H          1 BB1          0.0000
    18 C1        32.3602    37.9758    34.4967 C.3        2 BB2          0.0000
    19 C2        31.3846    37.0194    35.1852 C.3        2 BB2          0.0000
    20 N3        31.4105    37.2527    36.6313 N.pl3      2 BB2          0.0000
    21 C4        32.6336    36.9905    37.3938 C.3        2 BB2          0.0000
    22 C5        33.0145    35.5152    37.2554 C.3        2 BB2          0.0000
    23 S6        30.0571    37.8127    37.4040 S.o2       2 BB2          0.0000
    24 O7        28.9437    37.2823    36.6980 O.2        2 BB2          0.0000
    25 O8        30.2705    37.5989    38.7925 O.2        2 BB2          0.0000
    26 H10       32.0672    39.0051    34.7039 H          2 BB2          0.0000
    27 H11       33.3676    37.8017    34.8748 H          2 BB2          0.0000
    28 H12       32.3409    37.8022    33.4208 H          2 BB2          0.0000
    29 H13       30.3772    37.1936    34.8071 H          2 BB2          0.0000
    30 H14       31.6775    35.9902    34.9779 H          2 BB2          0.0000
    31 H15       33.4420    37.6121    37.0088 H          2 BB2          0.0000
    32 H16       32.4639    37.2249    38.4446 H          2 BB2          0.0000
    33 H17       33.9246    35.3201    37.8227 H          2 BB2          0.0000
    34 H18       32.2061    34.8936    37.6404 H          2 BB2          0.0000
    35 H19       33.1842    35.2808    36.2044 H          2 BB2          0.0000
@<TRIPOS>BOND
     1      1      2 1
     2      1     10 1
     3      1     11 1
     4      1     12 1
     5      2      3 ar
     6      2      9 ar
     7      3      4 ar
     8      3     13 1
     9      4      5 ar
    10      4     14 1
    11      5      6 1
    12      5      7 ar
    13      6     16 1
    14      7      8 1
    15      7      9 ar
    16      8     17 1
    17      9     15 1
    18     18     19 1
    19     18     26 1
    20     18     27 1
    21     18     28 1
    22     19     20 1
    23     19     29 1
    24     19     30 1
    25     20     21 1
    26     20     23 1
    27     21     22 1
    28     21     31 1
    29     21     32 1
    30     22     33 1
    31     22     34 1
    32     22     35 1
    33     23     24 2
    34     23     25 2
    35      8     23 1
@<TRIPOS>SUBSTRUCTURE
     1 BB1           8
     2 BB2          23
@<TRIPOS>MOLECULE
EN300-50872_i001_EN300-125264_i004_7_3_10
  43   44   2   0   0
SMALL
USER_CHARGES
@<TRIPOS>ATOM
     1 C1        26.1594    37.7783    37.8225 C.3        1 BB1          0.0000
     2 C2        26.9317    37.1696    38.9644 C.ar       1 BB1          0.0000
     3 C3        26.3209    36.9895    40.1916 C.ar       1 BB1          0.0000
     4 C4        27.0246    36.4319    41.2432 C.ar       1 BB1          0.0000
     5 C5        28.3450    36.0516    41.0691 C.ar       1 BB1          0.0000
     6 O6        29.0382    35.5026    42.1026 O.3        1 BB1          0.0000
     7 C7        28.9611    36.2322    39.8328 C.ar       1 BB1          0.0000
     8 N8        30.2952    35.8497    39.6511 N.pl3      1 BB1          0.0000
     9 C9        28.2473    36.7875    38.7808 C.ar       1 BB1          0.0000
    10 H10       26.2813    38.8614    37.8379 H          1 BB1          0.0000
    11 H11       26.5353    37.3838    36.8785 H          1 BB1          0.0000
    12 H12       25.1030    37.5300    37.9251 H          1 BB1          0.0000
    13 H13       25.2913    37.2855    40.3293 H          1 BB1          0.0000
    14 H14       26.5446    36.2932    42.2008 H          1 BB1          0.0000
    15 H15       28.7220    36.9290    37.8211 H          1 BB1          0.0000
    16 H16       29.9964    35.4942    41.9731 H          1 BB1          0.0000
    17 H17       30.7920    35.4583    40.3866 H          1 BB1          0.0000
    18 C1        29.8470    40.1769    37.0204 C.3        2 BB2          0.0000
    19 O2        29.5265    38.8404    36.5520 O.3        2 BB2          0.0000
    20 C3        30.4062    37.8675    36.8373 C.2        2 BB2          0.0000
    21 O4        31.0770    37.9344    37.8400 O.2        2 BB2          0.0000
    22 C5        30.5572    36.6916    35.9068 C.3        2 BB2          0.0000
    23 C6        30.8471    37.1951    34.4915 C.3        2 BB2          0.0000
    24 C7        32.1411    38.0115    34.4956 C.3        2 BB2          0.0000
    25 C8        33.2984    37.1307    34.9707 C.3        2 BB2          0.0000
    26 C9        33.0085    36.6272    36.3861 C.3        2 BB2          0.0000
    27 C10       31.7145    35.8108    36.3819 C.3        2 BB2          0.0000
    28 S11       31.3707    35.2138    38.0600 S.o2       2 BB2          0.0000
    29 O12       32.4263    35.5702    38.9421 O.2        2 BB2          0.0000
    30 O13       30.0138    35.4543    38.4067 O.2        2 BB2          0.0000
    31 H15       29.0558    40.8653    36.7236 H          2 BB2          0.0000
    32 H16       29.9339    40.1700    38.1069 H          2 BB2          0.0000
    33 H17       30.7918    40.4987    36.5823 H          2 BB2          0.0000
    34 H18       29.6353    36.1099    35.9039 H          2 BB2          0.0000
    35 H19       30.9563    36.3446    33.8186 H          2 BB2          0.0000
    36 H20       30.0227    37.8226    34.1531 H          2 BB2          0.0000
    37 H21       32.3477    38.3703    33.4873 H          2 BB2          0.0000
    38 H22       32.0318    38.8620    35.1686 H          2 BB2          0.0000
    39 H23       33.4075    36.2802    34.2978 H          2 BB2          0.0000
    40 H24       34.2202    37.7124    34.9737 H          2 BB2          0.0000
    41 H25       33.8329    35.9996    36.7245 H          2 BB2          0.0000
    42 H26       32.8992    37.4777    37.0591 H          2 BB2          0.0000
    43 H27       31.8237    34.9602    35.7091 H          2 BB2          0.0000
@<TRIPOS>BOND
     1      1      2 1
     2      1     10 1
     3      1     11 1
     4      1     12 1
     5      2      3 ar
     6      2      9 ar
     7      3      4 ar
     8      3     13 1
     9      4      5 ar
    10      4     14 1
    11      5      6 1
    12      5      7 ar
    13      6     16 1
    14      7      8 1
    15      7      9 ar
    16      8     17 1
    17      9     15 1
    18     18     19 1
    19     18     31 1
    20     18     32 1
    21     18     33 1
    22     19     20 1
    23     20     21 2
    24     20     22 1
    25     22     23 1
    26     22     27 1
    27     22     34 1
    28     23     24 1
    29     23     35 1
    30     23     36 1
    31     24     25 1
    32     24     37 1
    33     24     38 1
    34     25     26 1
    35     25     39 1
    36     25     40 1
    37     26     27 1
    38     26     41 1
    39     26     42 1
    40     27     28 1
    41     27     43 1
    42     28     29 2
    43     28     30 2
    44      8     28 1
@<TRIPOS>SUBSTRUCTURE
     1 BB1           8
     2 BB2          28
@<TRIPOS>MOLECULE
EN300-97589_i001_EN300-93482_i002_6_11_10
  40   41   2   0   0
SMALL
USER_CHARGES
@<TRIPOS>ATOM
     1 C1        26.2998    37.8995    37.6134 C.3        1 BB1          0.0000
     2 C2        26.9936    37.3017    38.8103 C.ar       1 BB1          0.0000
     3 C3        26.3092    37.1570    40.0029 C.ar       1 BB1          0.0000
     4 C4        26.9407    36.6094    41.1047 C.ar       1 BB1          0.0000
     5 C5        26.1908    36.4538    42.4025 C.3        1 BB1          0.0000
     6 C6        28.2620    36.2038    41.0155 C.ar       1 BB1          0.0000
     7 O7        28.8841    35.6648    42.0982 O.3        1 BB1          0.0000
     8 C8        28.9521    36.3488    39.8139 C.ar       1 BB1          0.0000
     9 N9        30.2874    35.9407    39.7181 N.pl3      1 BB1          0.0000
    10 C10       28.3106    36.8942    38.7114 C.ar       1 BB1          0.0000
    11 H11       26.4398    38.9805    37.6148 H          1 BB1          0.0000
    12 H12       26.7230    37.4795    36.7009 H          1 BB1          0.0000
    13 H13       25.2350    37.6710    37.6589 H          1 BB1          0.0000
    14 H14       25.2790    37.4727    40.0743 H          1 BB1          0.0000
    15 H15       25.7032    35.4792    42.4257 H          1 BB1          0.0000
    16 H16       26.8883    36.5310    43.2366 H          1 BB1          0.0000
    17 H17       25.4387    37.2384    42.4839 H          1 BB1          0.0000
    18 H18       28.8427    37.0079    37.7785 H          1 BB1          0.0000
    19 H19       29.8293    35.5056    41.9699 H          1 BB1          0.0000
    20 H20       30.7337    35.5563    40.4888 H          1 BB1          0.0000
    21 C1        31.1529    35.2755    38.5577 C.3        2 BB2          0.0000
    22 C2        32.2013    36.0944    37.8020 C.3        2 BB2          0.0000
    23 C3        32.7621    35.2679    36.6391 C.3        2 BB2          0.0000
    24 O4        33.5985    36.0995    35.8311 O.3        2 BB2          0.0000
    25 C5        32.9161    37.1954    35.2168 C.3        2 BB2          0.0000
    26 C6        32.3632    38.1205    36.3070 C.3        2 BB2          0.0000
    27 N7        31.5788    37.3086    37.2508 N.pl3      2 BB2          0.0000
    28 S8        30.0409    37.7479    37.6797 S.o2       2 BB2          0.0000
    29 O9        29.1634    36.9965    36.8522 O.2        2 BB2          0.0000
    30 O10       29.9938    37.7095    39.0994 O.2        2 BB2          0.0000
    31 H12       31.6389    34.4410    39.0633 H          2 BB2          0.0000
    32 H13       30.6590    35.9088    39.2946 H          2 BB2          0.0000
    33 H14       30.4139    34.8930    37.8536 H          2 BB2          0.0000
    34 H15       33.0095    36.3706    38.4793 H          2 BB2          0.0000
    35 H16       33.3465    34.4361    37.0321 H          2 BB2          0.0000
    36 H17       31.9396    34.8833    36.0360 H          2 BB2          0.0000
    37 H18       33.6114    37.7500    34.5867 H          2 BB2          0.0000
    38 H19       32.0942    36.8176    34.6086 H          2 BB2          0.0000
    39 H20       33.1878    38.6012    36.8334 H          2 BB2          0.0000
    40 H21       31.7235    38.8787    35.8553 H          2 BB2          0.0000
@<TRIPOS>BOND
     1      1      2 1
     2      1     11 1
     3      1     12 1
     4      1     13 1
     5      2      3 ar
     6      2     10 ar
     7      3      4 ar
     8      3     14 1
     9      4      5 1
    10      4      6 ar
    11      5     15 1
    12      5     16 1
    13      5     17 1
    14      6      7 1
    15      6      8 ar
    16      7     19 1
    17      8      9 1
    18      8     10 ar
    19      9     20 1
    20     10     18 1
    21     21     22 1
    22     21     31 1
    23     21     32 1
    24     21     33 1
    25     22     23 1
    26     22     27 1
    27     22     34 1
    28     23     24 1
    29     23     35 1
    30     23     36 1
    31     24     25 1
    32     25     26 1
    33     25     37 1
    34     25     38 1
    35     26     27 1
    36     26     39 1
    37     26     40 1
    38     27     28 1
    39     28     29 2
    40     28     30 2
    41      9     28 1
@<TRIPOS>SUBSTRUCTURE
     1 BB1           9
     2 BB2          28
@<TRIPOS>MOLECULE
EN300-97589_i001_EN300-93482_i002_6_7_10
  40   41   2   0   0
SMALL
USER_CHARGES
@<TRIPOS>ATOM
     1 C1        26.2998    37.8995    37.6134 C.3        1 BB1          0.0000
     2 C2        26.9936    37.3017    38.8103 C.ar       1 BB1          0.0000
     3 C3        26.3092    37.1570    40.0029 C.ar       1 BB1          0.0000
     4 C4        26.9407    36.6094    41.1047 C.ar       1 BB1          0.0000
     5 C5        26.1908    36.4538    42.4025 C.3        1 BB1          0.0000
     6 C6        28.2620    36.2038    41.0155 C.ar       1 BB1          0.0000
     7 O7        28.8841    35.6648    42.0982 O.3        1 BB1          0.0000
     8 C8        28.9521    36.3488    39.8139 C.ar       1 BB1          0.0000
     9 N9        30.2874    35.9407    39.7181 N.pl3      1 BB1          0.0000
    10 C10       28.3106    36.8942    38.7114 C.ar       1 BB1          0.0000
    11 H11       26.4398    38.9805    37.6148 H          1 BB1          0.0000
    12 H12       26.7230    37.4795    36.7009 H          1 BB1          0.0000
    13 H13       25.2350    37.6710    37.6589 H          1 BB1          0.0000
    14 H14       25.2790    37.4727    40.0743 H          1 BB1          0.0000
    15 H15       25.7032    35.4792    42.4257 H          1 BB1          0.0000
    16 H16       26.8883    36.5310    43.2366 H          1 BB1          0.0000
    17 H17       25.4387    37.2384    42.4839 H          1 BB1          0.0000
    18 H18       28.8427    37.0079    37.7785 H          1 BB1          0.0000
    19 H19       29.8293    35.5056    41.9699 H          1 BB1          0.0000
    20 H20       30.7337    35.5563    40.4888 H          1 BB1          0.0000
    21 C1        30.2769    37.9114    35.0229 C.3        2 BB2          0.0000
    22 C2        31.1039    36.7679    35.6139 C.3        2 BB2          0.0000
    23 C3        32.5961    37.0445    35.3974 C.3        2 BB2          0.0000
    24 O4        33.3634    36.0720    36.1111 O.3        2 BB2          0.0000
    25 C5        33.1781    36.1052    37.5282 C.3        2 BB2          0.0000
    26 C6        31.7157    35.7805    37.8537 C.3        2 BB2          0.0000
    27 N7        30.8547    36.6724    37.0610 N.pl3      2 BB2          0.0000
    28 S8        29.6415    37.5433    37.7763 S.o2       2 BB2          0.0000
    29 O9        29.9961    38.9126    37.6397 O.2        2 BB2          0.0000
    30 O10       28.4200    37.0045    37.2895 O.2        2 BB2          0.0000
    31 H12       30.3713    37.9047    33.9370 H          2 BB2          0.0000
    32 H13       29.2299    37.7821    35.2972 H          2 BB2          0.0000
    33 H14       30.6401    38.8621    35.4133 H          2 BB2          0.0000
    34 H15       30.8307    35.8295    35.1311 H          2 BB2          0.0000
    35 H16       32.8275    36.9821    34.3342 H          2 BB2          0.0000
    36 H17       32.8387    38.0413    35.7657 H          2 BB2          0.0000
    37 H18       33.8282    35.3670    37.9978 H          2 BB2          0.0000
    38 H19       33.4228    37.0987    37.9042 H          2 BB2          0.0000
    39 H20       31.5043    34.7425    37.5970 H          2 BB2          0.0000
    40 H21       31.5316    35.9413    38.9160 H          2 BB2          0.0000
@<TRIPOS>BOND
     1      1      2 1
     2      1     11 1
     3      1     12 1
     4      1     13 1
     5      2      3 ar
     6      2     10 ar
     7      3      4 ar
     8      3     14 1
     9      4      5 1
    10      4      6 ar
    11      5     15 1
    12      5     16 1
    13      5     17 1
    14      6      7 1
    15      6      8 ar
    16      7     19 1
    17      8      9 1
    18      8     10 ar
    19      9     20 1
    20     10     18 1
    21     21     22 1
    22     21     31 1
    23     21     32 1
    24     21     33 1
    25     22     23 1
    26     22     27 1
    27     22     34 1
    28     23     24 1
    29     23     35 1
    30     23     36 1
    31     24     25 1
    32     25     26 1
    33     25     37 1
    34     25     38 1
    35     26     27 1
    36     26     39 1
    37     26     40 1
    38     27     28 1
    39     28     29 2
    40     28     30 2
    41      9     28 1
@<TRIPOS>SUBSTRUCTURE
     1 BB1           9
     2 BB2          28
@<TRIPOS>MOLECULE
EN300-97589_i001_EN300-23873_i001_6_13_10
  38   38   2   0   0
SMALL
USER_CHARGES
@<TRIPOS>ATOM
     1 C1        26.2998    37.8995    37.6134 C.3        1 BB1          0.0000
     2 C2        26.9936    37.3017    38.8103 C.ar       1 BB1          0.0000
     3 C3        26.3092    37.1570    40.0029 C.ar       1 BB1          0.0000
     4 C4        26.9407    36.6094    41.1047 C.ar       1 BB1          0.0000
     5 C5        26.1908    36.4538    42.4025 C.3        1 BB1          0.0000
     6 C6        28.2620    36.2038    41.0155 C.ar       1 BB1          0.0000
     7 O7        28.8841    35.6648    42.0982 O.3        1 BB1          0.0000
     8 C8        28.9521    36.3488    39.8139 C.ar       1 BB1          0.0000
     9 N9        30.2874    35.9407    39.7181 N.pl3      1 BB1          0.0000
    10 C10       28.3106    36.8942    38.7114 C.ar       1 BB1          0.0000
    11 H11       26.4398    38.9805    37.6148 H          1 BB1          0.0000
    12 H12       26.7230    37.4795    36.7009 H          1 BB1          0.0000
    13 H13       25.2350    37.6710    37.6589 H          1 BB1          0.0000
    14 H14       25.2790    37.4727    40.0743 H          1 BB1          0.0000
    15 H15       25.7032    35.4792    42.4257 H          1 BB1          0.0000
    16 H16       26.8883    36.5310    43.2366 H          1 BB1          0.0000
    17 H17       25.4387    37.2384    42.4839 H          1 BB1          0.0000
    18 H18       28.8427    37.0079    37.7785 H          1 BB1          0.0000
    19 H19       29.8293    35.5056    41.9699 H          1 BB1          0.0000
    20 H20       30.7337    35.5563    40.4888 H          1 BB1          0.0000
    21 C1        32.3602    37.9758    34.4967 C.3        2 BB2          0.0000
    22 C2        31.3846    37.0194    35.1852 C.3        2 BB2          0.0000
    23 N3        31.4105    37.2527    36.6313 N.pl3      2 BB2          0.0000
    24 C4        32.6336    36.9905    37.3938 C.3        2 BB2          0.0000
    25 C5        33.0145    35.5152    37.2554 C.3        2 BB2          0.0000
    26 S6        30.0571    37.8127    37.4040 S.o2       2 BB2          0.0000
    27 O7        28.9437    37.2823    36.6980 O.2        2 BB2          0.0000
    28 O8        30.2705    37.5989    38.7925 O.2        2 BB2          0.0000
    29 H10       32.0672    39.0051    34.7039 H          2 BB2          0.0000
    30 H11       33.3676    37.8017    34.8748 H          2 BB2          0.0000
    31 H12       32.3409    37.8022    33.4208 H          2 BB2          0.0000
    32 H13       30.3772    37.1936    34.8071 H          2 BB2          0.0000
    33 H14       31.6775    35.9902    34.9779 H          2 BB2          0.0000
    34 H15       33.4420    37.6121    37.0088 H          2 BB2          0.0000
    35 H16       32.4639    37.2249    38.4446 H          2 BB2          0.0000
    36 H17       33.9246    35.3201    37.8227 H          2 BB2          0.0000
    37 H18       32.2061    34.8936    37.6404 H          2 BB2          0.0000
    38 H19       33.1842    35.2808    36.2044 H          2 BB2          0.0000
@<TRIPOS>BOND
     1      1      2 1
     2      1     11 1
     3      1     12 1
     4      1     13 1
     5      2      3 ar
     6      2     10 ar
     7      3      4 ar
     8      3     14 1
     9      4      5 1
    10      4      6 ar
    11      5     15 1
    12      5     16 1
    13      5     17 1
    14      6      7 1
    15      6      8 ar
    16      7     19 1
    17      8      9 1
    18      8     10 ar
    19      9     20 1
    20     10     18 1
    21     21     22 1
    22     21     29 1
    23     21     30 1
    24     21     31 1
    25     22     23 1
    26     22     32 1
    27     22     33 1
    28     23     24 1
    29     23     26 1
    30     24     25 1
    31     24     34 1
    32     24     35 1
    33     25     36 1
    34     25     37 1
    35     25     38 1
    36     26     27 2
    37     26     28 2
    38      9     26 1
@<TRIPOS>SUBSTRUCTURE
     1 BB1           9
     2 BB2          26
@<TRIPOS>MOLECULE
EN300-97589_i001_EN300-125264_i004_6_3_10
  46   47   2   0   0
SMALL
USER_CHARGES
@<TRIPOS>ATOM
     1 C1        26.2998    37.8995    37.6134 C.3        1 BB1          0.0000
     2 C2        26.9936    37.3017    38.8103 C.ar       1 BB1          0.0000
     3 C3        26.3092    37.1570    40.0029 C.ar       1 BB1          0.0000
     4 C4        26.9407    36.6094    41.1047 C.ar       1 BB1          0.0000
     5 C5        26.1908    36.4538    42.4025 C.3        1 BB1          0.0000
     6 C6        28.2620    36.2038    41.0155 C.ar       1 BB1          0.0000
     7 O7        28.8841    35.6648    42.0982 O.3        1 BB1          0.0000
     8 C8        28.9521    36.3488    39.8139 C.ar       1 BB1          0.0000
     9 N9        30.2874    35.9407    39.7181 N.pl3      1 BB1          0.0000
    10 C10       28.3106    36.8942    38.7114 C.ar       1 BB1          0.0000
    11 H11       26.4398    38.9805    37.6148 H          1 BB1          0.0000
    12 H12       26.7230    37.4795    36.7009 H          1 BB1          0.0000
    13 H13       25.2350    37.6710    37.6589 H          1 BB1          0.0000
    14 H14       25.2790    37.4727    40.0743 H          1 BB1          0.0000
    15 H15       25.7032    35.4792    42.4257 H          1 BB1          0.0000
    16 H16       26.8883    36.5310    43.2366 H          1 BB1          0.0000
    17 H17       25.4387    37.2384    42.4839 H          1 BB1          0.0000
    18 H18       28.8427    37.0079    37.7785 H          1 BB1          0.0000
    19 H19       29.8293    35.5056    41.9699 H          1 BB1          0.0000
    20 H20       30.7337    35.5563    40.4888 H          1 BB1          0.0000
    21 C1        29.8470    40.1769    37.0204 C.3        2 BB2          0.0000
    22 O2        29.5265    38.8404    36.5520 O.3        2 BB2          0.0000
    23 C3        30.4062    37.8675    36.8373 C.2        2 BB2          0.0000
    24 O4        31.0770    37.9344    37.8400 O.2        2 BB2          0.0000
    25 C5        30.5572    36.6916    35.9068 C.3        2 BB2          0.0000
    26 C6        30.8471    37.1951    34.4915 C.3        2 BB2          0.0000
    27 C7        32.1411    38.0115    34.4956 C.3        2 BB2          0.0000
    28 C8        33.2984    37.1307    34.9707 C.3        2 BB2          0.0000
    29 C9        33.0085    36.6272    36.3861 C.3        2 BB2          0.0000
    30 C10       31.7145    35.8108    36.3819 C.3        2 BB2          0.0000
    31 S11       31.3707    35.2138    38.0600 S.o2       2 BB2          0.0000
    32 O12       32.4263    35.5702    38.9421 O.2        2 BB2          0.0000
    33 O13       30.0138    35.4543    38.4067 O.2        2 BB2          0.0000
    34 H15       29.0558    40.8653    36.7236 H          2 BB2          0.0000
    35 H16       29.9339    40.1700    38.1069 H          2 BB2          0.0000
    36 H17       30.7918    40.4987    36.5823 H          2 BB2          0.0000
    37 H18       29.6353    36.1099    35.9039 H          2 BB2          0.0000
    38 H19       30.9563    36.3446    33.8186 H          2 BB2          0.0000
    39 H20       30.0227    37.8226    34.1531 H          2 BB2          0.0000
    40 H21       32.3477    38.3703    33.4873 H          2 BB2          0.0000
    41 H22       32.0318    38.8620    35.1686 H          2 BB2          0.0000
    42 H23       33.4075    36.2802    34.2978 H          2 BB2          0.0000
    43 H24       34.2202    37.7124    34.9737 H          2 BB2          0.0000
    44 H25       33.8329    35.9996    36.7245 H          2 BB2          0.0000
    45 H26       32.8992    37.4777    37.0591 H          2 BB2          0.0000
    46 H27       31.8237    34.9602    35.7091 H          2 BB2          0.0000
@<TRIPOS>BOND
     1      1      2 1
     2      1     11 1
     3      1     12 1
     4      1     13 1
     5      2      3 ar
     6      2     10 ar
     7      3      4 ar
     8      3     14 1
     9      4      5 1
    10      4      6 ar
    11      5     15 1
    12      5     16 1
    13      5     17 1
    14      6      7 1
    15      6      8 ar
    16      7     19 1
    17      8      9 1
    18      8     10 ar
    19      9     20 1
    20     10     18 1
    21     21     22 1
    22     21     34 1
    23     21     35 1
    24     21     36 1
    25     22     23 1
    26     23     24 2
    27     23     25 1
    28     25     26 1
    29     25     30 1
    30     25     37 1
    31     26     27 1
    32     26     38 1
    33     26     39 1
    34     27     28 1
    35     27     40 1
    36     27     41 1
    37     28     29 1
    38     28     42 1
    39     28     43 1
    40     29     30 1
    41     29     44 1
    42     29     45 1
    43     30     31 1
    44     30     46 1
    45     31     32 2
    46     31     33 2
    47      9     31 1
@<TRIPOS>SUBSTRUCTURE
     1 BB1           9
     2 BB2          31
@<TRIPOS>MOLECULE
EN300-97589_i001_EN300-125264_i004_6_8_10
  46   47   2   0   0
SMALL
USER_CHARGES
@<TRIPOS>ATOM
     1 C1        26.2998    37.8995    37.6134 C.3        1 BB1          0.0000
     2 C2        26.9936    37.3017    38.8103 C.ar       1 BB1          0.0000
     3 C3        26.3092    37.1570    40.0029 C.ar       1 BB1          0.0000
     4 C4        26.9407    36.6094    41.1047 C.ar       1 BB1          0.0000
     5 C5        26.1908    36.4538    42.4025 C.3        1 BB1          0.0000
     6 C6        28.2620    36.2038    41.0155 C.ar       1 BB1          0.0000
     7 O7        28.8841    35.6648    42.0982 O.3        1 BB1          0.0000
     8 C8        28.9521    36.3488    39.8139 C.ar       1 BB1          0.0000
     9 N9        30.2874    35.9407    39.7181 N.pl3      1 BB1          0.0000
    10 C10       28.3106    36.8942    38.7114 C.ar       1 BB1          0.0000
    11 H11       26.4398    38.9805    37.6148 H          1 BB1          0.0000
    12 H12       26.7230    37.4795    36.7009 H          1 BB1          0.0000
    13 H13       25.2350    37.6710    37.6589 H          1 BB1          0.0000
    14 H14       25.2790    37.4727    40.0743 H          1 BB1          0.0000
    15 H15       25.7032    35.4792    42.4257 H          1 BB1          0.0000
    16 H16       26.8883    36.5310    43.2366 H          1 BB1          0.0000
    17 H17       25.4387    37.2384    42.4839 H          1 BB1          0.0000
    18 H18       28.8427    37.0079    37.7785 H          1 BB1          0.0000
    19 H19       29.8293    35.5056    41.9699 H          1 BB1          0.0000
    20 H20       30.7337    35.5563    40.4888 H          1 BB1          0.0000
    21 C1        31.4119    32.8810    38.1996 C.3        2 BB2          0.0000
    22 O2        32.1447    34.1228    38.0287 O.3        2 BB2          0.0000
    23 C3        31.4678    35.2633    38.2354 C.2        2 BB2          0.0000
    24 O4        30.3038    35.2251    38.5575 O.2        2 BB2          0.0000
    25 C5        32.1595    36.5914    38.0659 C.3        2 BB2          0.0000
    26 C6        33.5823    36.3635    37.5515 C.3        2 BB2          0.0000
    27 C7        33.5278    35.6412    36.2038 C.3        2 BB2          0.0000
    28 C8        32.7526    36.4953    35.1985 C.3        2 BB2          0.0000
    29 C9        31.3299    36.7232    35.7129 C.3        2 BB2          0.0000
    30 C10       31.3844    37.4455    37.0606 C.3        2 BB2          0.0000
    31 S11       29.6975    37.7157    37.6705 S.o2       2 BB2          0.0000
    32 O12       28.7823    36.8584    37.0021 O.2        2 BB2          0.0000
    33 O13       29.6919    37.8317    39.0867 O.2        2 BB2          0.0000
    34 H15       32.0745    32.0381    38.0031 H          2 BB2          0.0000
    35 H16       31.0370    32.8180    39.2212 H          2 BB2          0.0000
    36 H17       30.5740    32.8547    37.5028 H          2 BB2          0.0000
    37 H18       32.1983    37.1060    39.0260 H          2 BB2          0.0000
    38 H19       34.0825    37.3241    37.4289 H          2 BB2          0.0000
    39 H20       34.1345    35.7551    38.2677 H          2 BB2          0.0000
    40 H21       34.5414    35.4788    35.8373 H          2 BB2          0.0000
    41 H22       33.0274    34.6806    36.3264 H          2 BB2          0.0000
    42 H23       33.2529    37.4559    35.0760 H          2 BB2          0.0000
    43 H24       32.7138    35.9807    34.2383 H          2 BB2          0.0000
    44 H25       30.7776    37.3317    34.9967 H          2 BB2          0.0000
    45 H26       30.8295    35.7625    35.8355 H          2 BB2          0.0000
    46 H27       31.8846    38.4061    36.9380 H          2 BB2          0.0000
@<TRIPOS>BOND
     1      1      2 1
     2      1     11 1
     3      1     12 1
     4      1     13 1
     5      2      3 ar
     6      2     10 ar
     7      3      4 ar
     8      3     14 1
     9      4      5 1
    10      4      6 ar
    11      5     15 1
    12      5     16 1
    13      5     17 1
    14      6      7 1
    15      6      8 ar
    16      7     19 1
    17      8      9 1
    18      8     10 ar
    19      9     20 1
    20     10     18 1
    21     21     22 1
    22     21     34 1
    23     21     35 1
    24     21     36 1
    25     22     23 1
    26     23     24 2
    27     23     25 1
    28     25     26 1
    29     25     30 1
    30     25     37 1
    31     26     27 1
    32     26     38 1
    33     26     39 1
    34     27     28 1
    35     27     40 1
    36     27     41 1
    37     28     29 1
    38     28     42 1
    39     28     43 1
    40     29     30 1
    41     29     44 1
    42     29     45 1
    43     30     31 1
    44     30     46 1
    45     31     32 2
    46     31     33 2
    47      9     31 1
@<TRIPOS>SUBSTRUCTURE
     1 BB1           9
     2 BB2          31
@<TRIPOS>MOLECULE
EN300-97589_i001_EN300-81521_i001_7_5_10
  36   37   2   0   0
SMALL
USER_CHARGES
@<TRIPOS>ATOM
     1 C1        33.1710    36.6867    34.9360 C.3        1 BB1          0.0000
     2 C2        32.3968    36.3590    36.1867 C.ar       1 BB1          0.0000
     3 C3        32.5117    35.1063    36.7604 C.ar       1 BB1          0.0000
     4 C4        31.8035    34.7997    37.9080 C.ar       1 BB1          0.0000
     5 C5        31.9318    33.4330    38.5297 C.3        1 BB1          0.0000
     6 C6        30.9764    35.7485    38.4861 C.ar       1 BB1          0.0000
     7 O7        30.2796    35.4483    39.6149 O.3        1 BB1          0.0000
     8 C8        30.8604    37.0111    37.9088 C.ar       1 BB1          0.0000
     9 N9        30.0262    37.9737    38.4887 N.pl3      1 BB1          0.0000
    10 C10       31.5780    37.3133    36.7607 C.ar       1 BB1          0.0000
    11 H11       32.5730    36.4312    34.0612 H          1 BB1          0.0000
    12 H12       33.4014    37.7520    34.9200 H          1 BB1          0.0000
    13 H13       34.0983    36.1141    34.9221 H          1 BB1          0.0000
    14 H14       33.1561    34.3653    36.3111 H          1 BB1          0.0000
    15 H15       32.7471    33.4381    39.2532 H          1 BB1          0.0000
    16 H16       31.0006    33.1741    39.0336 H          1 BB1          0.0000
    17 H17       32.1407    32.6983    37.7522 H          1 BB1          0.0000
    18 H18       31.4903    38.2911    36.3106 H          1 BB1          0.0000
    19 H19       30.7603    35.6304    40.4340 H          1 BB1          0.0000
    20 H21       29.9464    38.8525    38.0857 H          1 BB1          0.0000
    21 C1        28.7703    36.2182    41.7836 C.3        2 BB2          0.0000
    22 N2        28.0493    36.2782    40.5097 N.pl3      2 BB2          0.0000
    23 C3        26.5901    36.1496    40.4871 C.3        2 BB2          0.0000
    24 C4        25.7874    37.0423    41.4356 C.3        2 BB2          0.0000
    25 C5        25.7857    37.3269    39.9322 C.3        2 BB2          0.0000
    26 S6        28.8837    36.4914    39.0953 S.o2       2 BB2          0.0000
    27 O7        27.9214    36.4444    38.0507 O.2        2 BB2          0.0000
    28 O8        29.7510    37.5976    39.3038 O.2        2 BB2          0.0000
    29 H10       29.0405    35.1845    41.9998 H          2 BB2          0.0000
    30 H11       29.6742    36.8239    41.7184 H          2 BB2          0.0000
    31 H12       28.1328    36.6013    42.5803 H          2 BB2          0.0000
    32 H13       26.2095    35.1459    40.2978 H          2 BB2          0.0000
    33 H14       24.8785    36.6260    41.8699 H          2 BB2          0.0000
    34 H15       26.3449    37.7253    42.0764 H          2 BB2          0.0000
    35 H16       26.3421    38.1971    39.5841 H          2 BB2          0.0000
    36 H17       24.8757    37.0978    39.3776 H          2 BB2          0.0000
@<TRIPOS>BOND
     1      1      2 1
     2      1     11 1
     3      1     12 1
     4      1     13 1
     5      2      3 ar
     6      2     10 ar
     7      3      4 ar
     8      3     14 1
     9      4      5 1
    10      4      6 ar
    11      5     15 1
    12      5     16 1
    13      5     17 1
    14      6      7 1
    15      6      8 ar
    16      7     19 1
    17      8      9 1
    18      8     10 ar
    19      9     20 1
    20     10     18 1
    21     21     22 1
    22     21     29 1
    23     21     30 1
    24     21     31 1
    25     22     23 1
    26     22     26 1
    27     23     24 1
    28     23     25 1
    29     23     32 1
    30     24     25 1
    31     24     33 1
    32     24     34 1
    33     25     35 1
    34     25     36 1
    35     26     27 2
    36     26     28 2
    37      9     26 1
@<TRIPOS>SUBSTRUCTURE
     1 BB1           9
     2 BB2          26
@<TRIPOS>MOLECULE
EN300-6732001_i001_EN300-330399_i001_17_16_10
  39   40   2   0   0
SMALL
USER_CHARGES
@<TRIPOS>ATOM
     1 N1        32.8261    35.8541    36.7776 N.pl3      1 BB1          0.0000
     2 C2        32.2283    36.9610    36.1602 C.ar       1 BB1          0.0000
     3 C3        32.6555    37.3729    34.9004 C.ar       1 BB1          0.0000
     4 O4        33.6540    36.7011    34.2663 O.3        1 BB1          0.0000
     5 C5        32.0618    38.4675    34.2940 C.ar       1 BB1          0.0000
     6 C6        31.0466    39.1507    34.9385 C.ar       1 BB1          0.0000
     7 C7        30.6204    38.7442    36.1901 C.ar       1 BB1          0.0000
     8 Cl8       29.3457    39.6061    36.9937 Cl         1 BB1          0.0000
     9 C9        31.2045    37.6465    36.8004 C.ar       1 BB1          0.0000
    10 F10       30.7870    37.2507    38.0228 F          1 BB1          0.0000
    11 H11       32.3921    38.7881    33.3170 H          1 BB1          0.0000
    12 H12       30.5856    40.0041    34.4635 H          1 BB1          0.0000
    13 H13       33.5385    35.3737    36.3275 H          1 BB1          0.0000
    14 H15       34.0887    37.2097    33.5680 H          1 BB1          0.0000
    15 S2        32.1232    35.6859    37.5959 S.o2       2 BB2          0.0000
    16 O3        32.0907    34.2671    37.6660 O.2        2 BB2          0.0000
    17 O4        33.3077    36.4078    37.9042 O.2        2 BB2          0.0000
    18 C5        30.6991    36.3988    38.4646 C.3        2 BB2          0.0000
    19 C6        29.9009    35.2809    39.1385 C.3        2 BB2          0.0000
    20 O7        29.3000    35.7795    40.3354 O.3        2 BB2          0.0000
    21 C8        27.8766    35.8879    40.2696 C.3        2 BB2          0.0000
    22 C9        27.3640    36.6538    41.4930 C.3        2 BB2          0.0000
    23 C10       25.8483    36.8334    41.3746 C.3        2 BB2          0.0000
    24 O11       25.5448    37.5204    40.1587 O.3        2 BB2          0.0000
    25 C12       25.9586    36.8285    38.9788 C.3        2 BB2          0.0000
    26 C13       27.4788    36.6487    39.0010 C.3        2 BB2          0.0000
    27 H14       31.0492    37.1018    39.2204 H          2 BB2          0.0000
    28 H15       30.0619    36.9205    37.7505 H          2 BB2          0.0000
    29 H16       29.1231    34.9301    38.4602 H          2 BB2          0.0000
    30 H17       30.5685    34.4550    39.3840 H          2 BB2          0.0000
    31 H18       27.4355    34.8912    40.2521 H          2 BB2          0.0000
    32 H19       27.5945    36.0914    42.3978 H          2 BB2          0.0000
    33 H20       27.8441    37.6312    41.5383 H          2 BB2          0.0000
    34 H21       25.3656    35.8561    41.3701 H          2 BB2          0.0000
    35 H22       25.4839    37.4150    42.2214 H          2 BB2          0.0000
    36 H23       25.4774    35.8511    38.9429 H          2 BB2          0.0000
    37 H24       25.6737    37.4066    38.0997 H          2 BB2          0.0000
    38 H25       27.9613    37.6260    38.9960 H          2 BB2          0.0000
    39 H26       27.7914    36.0826    38.1236 H          2 BB2          0.0000
@<TRIPOS>BOND
     1      1      2 1
     2      1     13 1
     3      2      3 ar
     4      2      9 ar
     5      3      4 1
     6      3      5 ar
     7      4     14 1
     8      5      6 ar
     9      5     11 1
    10      6      7 ar
    11      6     12 1
    12      7      8 1
    13      7      9 ar
    14      9     10 1
    15     15     16 2
    16     15     17 2
    17     15     18 1
    18     18     19 1
    19     18     27 1
    20     18     28 1
    21     19     20 1
    22     19     29 1
    23     19     30 1
    24     20     21 1
    25     21     22 1
    26     21     26 1
    27     21     31 1
    28     22     23 1
    29     22     32 1
    30     22     33 1
    31     23     24 1
    32     23     34 1
    33     23     35 1
    34     24     25 1
    35     25     26 1
    36     25     36 1
    37     25     37 1
    38     26     38 1
    39     26     39 1
    40      1     15 1
@<TRIPOS>SUBSTRUCTURE
     1 BB1           1
     2 BB2          15
