@<TRIPOS>MOLECULE
EN300-7455669_i001_EN300-156846_i001_15_4_27
  37   40   2   0   0
SMALL
USER_CHARGES
@<TRIPOS>ATOM
     1 N1        24.5419    36.0611    41.9706 N.4        1 BB1          1.0000
     2 C2        25.5211    36.8082    41.1700 C.3        1 BB1          0.0000
     3 C3        26.5922    35.8483    40.6483 C.3        1 BB1          0.0000
     4 C4        27.3807    36.5217    39.5549 C.ar       1 BB1          0.0000
     5 C5        26.7288    37.2871    38.6058 C.ar       1 BB1          0.0000
     6 C6        27.4470    37.9072    37.5999 C.ar       1 BB1          0.0000
     7 C7        28.8233    37.7630    37.5410 C.ar       1 BB1          0.0000
     8 O8        29.5310    38.3727    36.5524 O.3        1 BB1          0.0000
     9 C9        29.4810    36.9923    38.4972 C.ar       1 BB1          0.0000
    10 N10       30.8716    36.8430    38.4427 N.2        1 BB1          0.0000
    11 C11       28.7545    36.3774    39.5065 C.ar       1 BB1          0.0000
    12 H12       25.0163    37.2818    40.3279 H          1 BB1          0.0000
    13 H13       25.9893    37.5730    41.7897 H          1 BB1          0.0000
    14 H14       27.2620    35.5738    41.4631 H          1 BB1          0.0000
    15 H15       26.1149    34.9518    40.2526 H          1 BB1          0.0000
    16 H16       25.6557    37.4008    38.6500 H          1 BB1          0.0000
    17 H17       26.9346    38.5038    36.8597 H          1 BB1          0.0000
    18 H18       29.2613    35.7792    40.2493 H          1 BB1          0.0000
    19 H19       23.7964    35.7366    41.3731 H          1 BB1          0.0000
    20 H20       24.9947    35.2701    42.4033 H          1 BB1          0.0000
    21 H21       24.1620    36.6637    42.6854 H          1 BB1          0.0000
    22 C2        30.3263    38.0369    35.8250 C.2        2 BB2          0.0000
    23 C3        31.6472    37.5710    35.3987 C.2        2 BB2          0.0000
    24 C4        32.4062    38.0687    34.3528 C.2        2 BB2          0.0000
    25 N5        33.5448    37.3652    34.3011 N.pl3      2 BB2          0.0000
    26 N6        33.5497    36.3980    35.3097 N.2        2 BB2          0.0000
    27 C7        32.4349    36.4867    35.9985 C.2        2 BB2          0.0000
    28 C8        32.0424    35.6458    37.1542 C.2        2 BB2          0.0000
    29 C9        31.2345    36.1148    38.1891 C.2        2 BB2          0.0000
    30 C10       30.9793    35.2276    39.1469 C.2        2 BB2          0.0000
    31 S11       31.7729    33.7026    38.7790 S.3        2 BB2          0.0000
    32 C12       32.4319    34.3638    37.2889 C.2        2 BB2          0.0000
    33 H14       32.1291    38.8795    33.6954 H          2 BB2          0.0000
    34 H15       30.8455    37.1220    38.2117 H          2 BB2          0.0000
    35 H16       30.3745    35.4165    40.0216 H          2 BB2          0.0000
    36 H17       33.0565    33.8258    36.5911 H          2 BB2          0.0000
    37 H18       34.2588    37.5059    33.6597 H          2 BB2          0.0000
@<TRIPOS>BOND
     1      1      2 1
     2      1     19 1
     3      1     20 1
     4      1     21 1
     5      2      3 1
     6      2     12 1
     7      2     13 1
     8      3      4 1
     9      3     14 1
    10      3     15 1
    11      4      5 ar
    12      4     11 ar
    13      5      6 ar
    14      5     16 1
    15      6      7 ar
    16      6     17 1
    17      7      8 1
    18      7      9 ar
    19      9     10 1
    20      9     11 ar
    21     11     18 1
    22     22     23 1
    23     23     24 2
    24     23     27 1
    25     24     25 1
    26     24     33 1
    27     25     26 1
    28     25     37 1
    29     26     27 2
    30     27     28 1
    31     28     29 1
    32     28     32 2
    33     29     30 2
    34     29     34 1
    35     30     31 1
    36     30     35 1
    37     31     32 1
    38     32     36 1
    39     10     22 2
    40      8     22 1
@<TRIPOS>SUBSTRUCTURE
     1 BB1           8
     2 BB2          22
@<TRIPOS>MOLECULE
EN300-7455669_i001_EN300-18990_i001_17_19_27
  30   32   2   0   0
SMALL
USER_CHARGES
@<TRIPOS>ATOM
     1 N1        25.4992    37.0230    43.2585 N.4        1 BB1          1.0000
     2 C2        26.2846    37.4796    42.1041 C.3        1 BB1          0.0000
     3 C3        25.8599    36.7002    40.8579 C.3        1 BB1          0.0000
     4 C4        26.9721    36.7329    39.8417 C.ar       1 BB1          0.0000
     5 C5        26.7392    37.2498    38.5807 C.ar       1 BB1          0.0000
     6 C6        27.7558    37.2821    37.6440 C.ar       1 BB1          0.0000
     7 C7        29.0119    36.7963    37.9675 C.ar       1 BB1          0.0000
     8 O8        30.0129    36.8279    37.0472 O.3        1 BB1          0.0000
     9 C9        29.2477    36.2757    39.2380 C.ar       1 BB1          0.0000
    10 N10       30.5150    35.7834    39.5706 N.2        1 BB1          0.0000
    11 C11       28.2243    36.2513    40.1743 C.ar       1 BB1          0.0000
    12 H12       26.1104    38.5436    41.9441 H          1 BB1          0.0000
    13 H13       27.3442    37.3096    42.2954 H          1 BB1          0.0000
    14 H14       25.6472    35.6666    41.1307 H          1 BB1          0.0000
    15 H15       24.9654    37.1550    40.4322 H          1 BB1          0.0000
    16 H16       25.7605    37.6291    38.3266 H          1 BB1          0.0000
    17 H17       27.5703    37.6860    36.6596 H          1 BB1          0.0000
    18 H18       28.4037    35.8483    41.1602 H          1 BB1          0.0000
    19 H19       25.7088    36.0540    43.4459 H          1 BB1          0.0000
    20 H20       25.7337    37.5801    44.0663 H          1 BB1          0.0000
    21 H21       24.5155    37.1213    43.0562 H          1 BB1          0.0000
    22 C2        32.2490    34.9523    37.6090 C.2        2 BB2          0.0000
    23 C3        32.3597    35.9124    36.5791 C.2        2 BB2          0.0000
    24 C4        31.4120    36.8519    36.2610 C.2        2 BB2          0.0000
    25 C5        31.7801    37.6596    35.2149 C.2        2 BB2          0.0000
    26 C6        32.9849    37.3976    34.6896 C.2        2 BB2          0.0000
    27 S7        33.7377    36.1007    35.5033 S.3        2 BB2          0.0000
    28 H9        30.4704    36.9459    36.7815 H          2 BB2          0.0000
    29 H10       31.1449    38.4493    34.8416 H          2 BB2          0.0000
    30 H11       33.4230    37.9386    33.8639 H          2 BB2          0.0000
@<TRIPOS>BOND
     1      1      2 1
     2      1     19 1
     3      1     20 1
     4      1     21 1
     5      2      3 1
     6      2     12 1
     7      2     13 1
     8      3      4 1
     9      3     14 1
    10      3     15 1
    11      4      5 ar
    12      4     11 ar
    13      5      6 ar
    14      5     16 1
    15      6      7 ar
    16      6     17 1
    17      7      8 1
    18      7      9 ar
    19      9     10 1
    20      9     11 ar
    21     11     18 1
    22     22     23 1
    23     23     24 2
    24     23     27 1
    25     24     25 1
    26     24     28 1
    27     25     26 2
    28     25     29 1
    29     26     27 1
    30     26     30 1
    31     10     22 2
    32      8     22 1
@<TRIPOS>SUBSTRUCTURE
     1 BB1           8
     2 BB2          22
@<TRIPOS>MOLECULE
EN300-7455669_i001_EN300-76468_i001_17_9_27
  35   38   2   0   0
SMALL
USER_CHARGES
@<TRIPOS>ATOM
     1 N1        25.4992    37.0230    43.2585 N.4        1 BB1          1.0000
     2 C2        26.2846    37.4796    42.1041 C.3        1 BB1          0.0000
     3 C3        25.8599    36.7002    40.8579 C.3        1 BB1          0.0000
     4 C4        26.9721    36.7329    39.8417 C.ar       1 BB1          0.0000
     5 C5        26.7392    37.2498    38.5807 C.ar       1 BB1          0.0000
     6 C6        27.7558    37.2821    37.6440 C.ar       1 BB1          0.0000
     7 C7        29.0119    36.7963    37.9675 C.ar       1 BB1          0.0000
     8 O8        30.0129    36.8279    37.0472 O.3        1 BB1          0.0000
     9 C9        29.2477    36.2757    39.2380 C.ar       1 BB1          0.0000
    10 N10       30.5150    35.7834    39.5706 N.2        1 BB1          0.0000
    11 C11       28.2243    36.2513    40.1743 C.ar       1 BB1          0.0000
    12 H12       26.1104    38.5436    41.9441 H          1 BB1          0.0000
    13 H13       27.3442    37.3096    42.2954 H          1 BB1          0.0000
    14 H14       25.6472    35.6666    41.1307 H          1 BB1          0.0000
    15 H15       24.9654    37.1550    40.4322 H          1 BB1          0.0000
    16 H16       25.7605    37.6291    38.3266 H          1 BB1          0.0000
    17 H17       27.5703    37.6860    36.6596 H          1 BB1          0.0000
    18 H18       28.4037    35.8483    41.1602 H          1 BB1          0.0000
    19 H19       25.7088    36.0540    43.4459 H          1 BB1          0.0000
    20 H20       25.7337    37.5801    44.0663 H          1 BB1          0.0000
    21 H21       24.5155    37.1213    43.0562 H          1 BB1          0.0000
    22 C2        30.3496    36.6805    38.6479 C.2        2 BB2          0.0000
    23 C3        31.3912    36.5879    37.6980 C.2        2 BB2          0.0000
    24 C4        32.5733    35.8280    37.8174 C.2        2 BB2          0.0000
    25 N5        33.2896    35.9968    36.7391 N.2        2 BB2          0.0000
    26 N6        32.6265    36.8646    35.8647 N.pl3      2 BB2          0.0000
    27 C7        32.9541    37.3459    34.6326 C.2        2 BB2          0.0000
    28 C8        32.0983    38.1925    34.0037 C.2        2 BB2          0.0000
    29 C9        30.9019    38.5507    34.6341 C.2        2 BB2          0.0000
    30 N10       30.6140    38.0695    35.8243 N.2        2 BB2          0.0000
    31 C11       31.4466    37.2335    36.4433 C.2        2 BB2          0.0000
    32 H13       32.8416    35.2095    38.6610 H          2 BB2          0.0000
    33 H14       33.8828    37.0580    34.1622 H          2 BB2          0.0000
    34 H15       32.3391    38.5855    33.0270 H          2 BB2          0.0000
    35 H16       30.2139    39.2233    34.1433 H          2 BB2          0.0000
@<TRIPOS>BOND
     1      1      2 1
     2      1     19 1
     3      1     20 1
     4      1     21 1
     5      2      3 1
     6      2     12 1
     7      2     13 1
     8      3      4 1
     9      3     14 1
    10      3     15 1
    11      4      5 ar
    12      4     11 ar
    13      5      6 ar
    14      5     16 1
    15      6      7 ar
    16      6     17 1
    17      7      8 1
    18      7      9 ar
    19      9     10 1
    20      9     11 ar
    21     11     18 1
    22     22     23 1
    23     23     24 1
    24     23     31 2
    25     24     25 2
    26     24     32 1
    27     25     26 1
    28     26     27 1
    29     26     31 1
    30     27     28 2
    31     27     33 1
    32     28     29 1
    33     28     34 1
    34     29     30 2
    35     29     35 1
    36     30     31 1
    37     10     22 2
    38      8     22 1
@<TRIPOS>SUBSTRUCTURE
     1 BB1           8
     2 BB2          22
@<TRIPOS>MOLECULE
EN300-7455669_i001_EN300-83792_i001_17_20_27
  38   41   2   0   0
SMALL
USER_CHARGES
@<TRIPOS>ATOM
     1 N1        25.4992    37.0230    43.2585 N.4        1 BB1          1.0000
     2 C2        26.2846    37.4796    42.1041 C.3        1 BB1          0.0000
     3 C3        25.8599    36.7002    40.8579 C.3        1 BB1          0.0000
     4 C4        26.9721    36.7329    39.8417 C.ar       1 BB1          0.0000
     5 C5        26.7392    37.2498    38.5807 C.ar       1 BB1          0.0000
     6 C6        27.7558    37.2821    37.6440 C.ar       1 BB1          0.0000
     7 C7        29.0119    36.7963    37.9675 C.ar       1 BB1          0.0000
     8 O8        30.0129    36.8279    37.0472 O.3        1 BB1          0.0000
     9 C9        29.2477    36.2757    39.2380 C.ar       1 BB1          0.0000
    10 N10       30.5150    35.7834    39.5706 N.2        1 BB1          0.0000
    11 C11       28.2243    36.2513    40.1743 C.ar       1 BB1          0.0000
    12 H12       26.1104    38.5436    41.9441 H          1 BB1          0.0000
    13 H13       27.3442    37.3096    42.2954 H          1 BB1          0.0000
    14 H14       25.6472    35.6666    41.1307 H          1 BB1          0.0000
    15 H15       24.9654    37.1550    40.4322 H          1 BB1          0.0000
    16 H16       25.7605    37.6291    38.3266 H          1 BB1          0.0000
    17 H17       27.5703    37.6860    36.6596 H          1 BB1          0.0000
    18 H18       28.4037    35.8483    41.1602 H          1 BB1          0.0000
    19 H19       25.7088    36.0540    43.4459 H          1 BB1          0.0000
    20 H20       25.7337    37.5801    44.0663 H          1 BB1          0.0000
    21 H21       24.5155    37.1213    43.0562 H          1 BB1          0.0000
    22 C2        31.3314    35.4417    38.4995 C.2        2 BB2          0.0000
    23 C3        31.7313    36.0982    37.2436 C.ar       2 BB2          0.0000
    24 N4        32.6193    35.5236    36.4477 N.ar       2 BB2          0.0000
    25 C5        33.0137    36.0661    35.3118 C.ar       2 BB2          0.0000
    26 C6        32.5231    37.2777    34.8747 C.ar       2 BB2          0.0000
    27 C7        31.5759    37.9495    35.6660 C.ar       2 BB2          0.0000
    28 C8        31.0300    39.1865    35.2898 C.ar       2 BB2          0.0000
    29 C9        30.1155    39.7889    36.0996 C.ar       2 BB2          0.0000
    30 C10       29.7150    39.1955    37.2955 C.ar       2 BB2          0.0000
    31 C11       30.2254    37.9953    37.6909 C.ar       2 BB2          0.0000
    32 C12       31.1628    37.3427    36.8810 C.ar       2 BB2          0.0000
    33 H14       33.7423    35.5463    34.7072 H          2 BB2          0.0000
    34 H15       32.8608    37.7032    33.9413 H          2 BB2          0.0000
    35 H16       31.3327    39.6568    34.3660 H          2 BB2          0.0000
    36 H17       29.6948    40.7409    35.8111 H          2 BB2          0.0000
    37 H18       28.9883    39.6951    37.9191 H          2 BB2          0.0000
    38 H19       29.9054    37.5482    38.6205 H          2 BB2          0.0000
@<TRIPOS>BOND
     1      1      2 1
     2      1     19 1
     3      1     20 1
     4      1     21 1
     5      2      3 1
     6      2     12 1
     7      2     13 1
     8      3      4 1
     9      3     14 1
    10      3     15 1
    11      4      5 ar
    12      4     11 ar
    13      5      6 ar
    14      5     16 1
    15      6      7 ar
    16      6     17 1
    17      7      8 1
    18      7      9 ar
    19      9     10 1
    20      9     11 ar
    21     11     18 1
    22     22     23 1
    23     23     24 ar
    24     23     32 ar
    25     24     25 ar
    26     25     26 ar
    27     25     33 1
    28     26     27 ar
    29     26     34 1
    30     27     28 ar
    31     27     32 ar
    32     28     29 ar
    33     28     35 1
    34     29     30 ar
    35     29     36 1
    36     30     31 ar
    37     30     37 1
    38     31     32 ar
    39     31     38 1
    40     10     22 2
    41      8     22 1
@<TRIPOS>SUBSTRUCTURE
     1 BB1           8
     2 BB2          22
@<TRIPOS>MOLECULE
EN300-7455669_i001_EN300-195674_i001_17_1_27
  33   35   2   0   0
SMALL
USER_CHARGES
@<TRIPOS>ATOM
     1 N1        25.4992    37.0230    43.2585 N.4        1 BB1          1.0000
     2 C2        26.2846    37.4796    42.1041 C.3        1 BB1          0.0000
     3 C3        25.8599    36.7002    40.8579 C.3        1 BB1          0.0000
     4 C4        26.9721    36.7329    39.8417 C.ar       1 BB1          0.0000
     5 C5        26.7392    37.2498    38.5807 C.ar       1 BB1          0.0000
     6 C6        27.7558    37.2821    37.6440 C.ar       1 BB1          0.0000
     7 C7        29.0119    36.7963    37.9675 C.ar       1 BB1          0.0000
     8 O8        30.0129    36.8279    37.0472 O.3        1 BB1          0.0000
     9 C9        29.2477    36.2757    39.2380 C.ar       1 BB1          0.0000
    10 N10       30.5150    35.7834    39.5706 N.2        1 BB1          0.0000
    11 C11       28.2243    36.2513    40.1743 C.ar       1 BB1          0.0000
    12 H12       26.1104    38.5436    41.9441 H          1 BB1          0.0000
    13 H13       27.3442    37.3096    42.2954 H          1 BB1          0.0000
    14 H14       25.6472    35.6666    41.1307 H          1 BB1          0.0000
    15 H15       24.9654    37.1550    40.4322 H          1 BB1          0.0000
    16 H16       25.7605    37.6291    38.3266 H          1 BB1          0.0000
    17 H17       27.5703    37.6860    36.6596 H          1 BB1          0.0000
    18 H18       28.4037    35.8483    41.1602 H          1 BB1          0.0000
    19 H19       25.7088    36.0540    43.4459 H          1 BB1          0.0000
    20 H20       25.7337    37.5801    44.0663 H          1 BB1          0.0000
    21 H21       24.5155    37.1213    43.0562 H          1 BB1          0.0000
    22 F1        33.6002    36.6716    34.9008 F          2 BB2          0.0000
    23 C2        32.4904    37.2839    35.3684 C.ar       2 BB2          0.0000
    24 C3        31.8853    38.2815    34.6284 C.ar       2 BB2          0.0000
    25 C4        30.7486    38.9097    35.1045 C.ar       2 BB2          0.0000
    26 C5        30.2057    38.5468    36.3251 C.ar       2 BB2          0.0000
    27 Br6       28.6510    39.4153    36.9608 Br         2 BB2          0.0000
    28 C7        30.7963    37.5511    37.0802 C.ar       2 BB2          0.0000
    29 F8        30.2650    37.1982    38.2712 F          2 BB2          0.0000
    30 C9        31.9457    36.9049    36.6034 C.ar       2 BB2          0.0000
    31 C10       32.5809    35.8460    37.3972 C.2        2 BB2          0.0000
    32 H12       32.3015    38.5721    33.6752 H          2 BB2          0.0000
    33 H13       30.2818    39.6889    34.5202 H          2 BB2          0.0000
@<TRIPOS>BOND
     1      1      2 1
     2      1     19 1
     3      1     20 1
     4      1     21 1
     5      2      3 1
     6      2     12 1
     7      2     13 1
     8      3      4 1
     9      3     14 1
    10      3     15 1
    11      4      5 ar
    12      4     11 ar
    13      5      6 ar
    14      5     16 1
    15      6      7 ar
    16      6     17 1
    17      7      8 1
    18      7      9 ar
    19      9     10 1
    20      9     11 ar
    21     11     18 1
    22     22     23 1
    23     23     24 ar
    24     23     30 ar
    25     24     25 ar
    26     24     32 1
    27     25     26 ar
    28     25     33 1
    29     26     27 1
    30     26     28 ar
    31     28     29 1
    32     28     30 ar
    33     30     31 1
    34     10     31 2
    35      8     31 1
@<TRIPOS>SUBSTRUCTURE
     1 BB1           8
     2 BB2          31
@<TRIPOS>MOLECULE
EN300-7455669_i001_EN300-18990_i001_5_19_27
  30   32   2   0   0
SMALL
USER_CHARGES
@<TRIPOS>ATOM
     1 N1        24.9687    36.1313    41.5376 N.4        1 BB1          1.0000
     2 C2        26.2905    36.3252    40.9265 C.3        1 BB1          0.0000
     3 C3        26.1249    36.6085    39.4321 C.3        1 BB1          0.0000
     4 C4        27.4808    36.8078    38.8054 C.ar       1 BB1          0.0000
     5 C5        27.6028    37.5562    37.6493 C.ar       1 BB1          0.0000
     6 C6        28.8443    37.7423    37.0695 C.ar       1 BB1          0.0000
     7 C7        29.9702    37.1789    37.6468 C.ar       1 BB1          0.0000
     8 O8        31.1920    37.3614    37.0778 O.3        1 BB1          0.0000
     9 C9        29.8483    36.4251    38.8120 C.ar       1 BB1          0.0000
    10 N10       30.9825    35.8533    39.3999 N.2        1 BB1          0.0000
    11 C11       28.6002    36.2469    39.3910 C.ar       1 BB1          0.0000
    12 H12       26.7909    37.1682    41.4029 H          1 BB1          0.0000
    13 H13       26.8888    35.4241    41.0614 H          1 BB1          0.0000
    14 H14       25.6249    35.7653    38.9557 H          1 BB1          0.0000
    15 H15       25.5263    37.5093    39.2972 H          1 BB1          0.0000
    16 H16       26.7261    37.9963    37.1976 H          1 BB1          0.0000
    17 H17       28.9361    38.3268    36.1660 H          1 BB1          0.0000
    18 H18       28.5021    35.6631    40.2942 H          1 BB1          0.0000
    19 H19       24.3049    35.8650    40.8259 H          1 BB1          0.0000
    20 H20       25.0240    35.4042    42.2349 H          1 BB1          0.0000
    21 H21       24.6695    36.9916    41.9717 H          1 BB1          0.0000
    22 C2        32.2490    34.9523    37.6090 C.2        2 BB2          0.0000
    23 C3        32.3597    35.9124    36.5791 C.2        2 BB2          0.0000
    24 C4        31.4120    36.8519    36.2610 C.2        2 BB2          0.0000
    25 C5        31.7801    37.6596    35.2149 C.2        2 BB2          0.0000
    26 C6        32.9849    37.3976    34.6896 C.2        2 BB2          0.0000
    27 S7        33.7377    36.1007    35.5033 S.3        2 BB2          0.0000
    28 H9        30.4704    36.9459    36.7815 H          2 BB2          0.0000
    29 H10       31.1449    38.4493    34.8416 H          2 BB2          0.0000
    30 H11       33.4230    37.9386    33.8639 H          2 BB2          0.0000
@<TRIPOS>BOND
     1      1      2 1
     2      1     19 1
     3      1     20 1
     4      1     21 1
     5      2      3 1
     6      2     12 1
     7      2     13 1
     8      3      4 1
     9      3     14 1
    10      3     15 1
    11      4      5 ar
    12      4     11 ar
    13      5      6 ar
    14      5     16 1
    15      6      7 ar
    16      6     17 1
    17      7      8 1
    18      7      9 ar
    19      9     10 1
    20      9     11 ar
    21     11     18 1
    22     22     23 1
    23     23     24 2
    24     23     27 1
    25     24     25 1
    26     24     28 1
    27     25     26 2
    28     25     29 1
    29     26     27 1
    30     26     30 1
    31     10     22 2
    32      8     22 1
@<TRIPOS>SUBSTRUCTURE
     1 BB1           8
     2 BB2          22
@<TRIPOS>MOLECULE
EN300-7455669_i001_EN300-156846_i001_8_4_27
  37   40   2   0   0
SMALL
USER_CHARGES
@<TRIPOS>ATOM
     1 N1        24.8063    36.1446    41.6303 N.4        1 BB1          1.0000
     2 C2        25.6769    37.0958    40.9265 C.3        1 BB1          0.0000
     3 C3        25.8005    36.6839    39.4581 C.3        1 BB1          0.0000
     4 C4        27.2242    36.8728    39.0017 C.ar       1 BB1          0.0000
     5 C5        28.2473    36.1906    39.6337 C.ar       1 BB1          0.0000
     6 C6        29.5556    36.3601    39.2195 C.ar       1 BB1          0.0000
     7 C7        29.8446    37.2147    38.1686 C.ar       1 BB1          0.0000
     8 O8        31.1310    37.3821    37.7599 O.3        1 BB1          0.0000
     9 C9        28.8143    37.9022    37.5308 C.ar       1 BB1          0.0000
    10 N10       29.1003    38.7671    36.4683 N.2        1 BB1          0.0000
    11 C11       27.5035    37.7232    37.9484 C.ar       1 BB1          0.0000
    12 H12       25.2475    38.0957    40.9885 H          1 BB1          0.0000
    13 H13       26.6642    37.0950    41.3885 H          1 BB1          0.0000
    14 H14       25.5201    35.6363    39.3498 H          1 BB1          0.0000
    15 H15       25.1393    37.3018    38.8506 H          1 BB1          0.0000
    16 H16       28.0240    35.5237    40.4534 H          1 BB1          0.0000
    17 H17       30.3525    35.8262    39.7159 H          1 BB1          0.0000
    18 H18       26.7025    38.2546    37.4562 H          1 BB1          0.0000
    19 H19       24.1872    35.7017    40.9679 H          1 BB1          0.0000
    20 H20       25.3720    35.4426    42.0832 H          1 BB1          0.0000
    21 H21       24.2617    36.6362    42.3230 H          1 BB1          0.0000
    22 C2        30.3263    38.0369    35.8250 C.2        2 BB2          0.0000
    23 C3        31.6472    37.5710    35.3987 C.2        2 BB2          0.0000
    24 C4        32.4062    38.0687    34.3528 C.2        2 BB2          0.0000
    25 N5        33.5448    37.3652    34.3011 N.pl3      2 BB2          0.0000
    26 N6        33.5497    36.3980    35.3097 N.2        2 BB2          0.0000
    27 C7        32.4349    36.4867    35.9985 C.2        2 BB2          0.0000
    28 C8        32.0424    35.6458    37.1542 C.2        2 BB2          0.0000
    29 C9        31.2345    36.1148    38.1891 C.2        2 BB2          0.0000
    30 C10       30.9793    35.2276    39.1469 C.2        2 BB2          0.0000
    31 S11       31.7729    33.7026    38.7790 S.3        2 BB2          0.0000
    32 C12       32.4319    34.3638    37.2889 C.2        2 BB2          0.0000
    33 H14       32.1291    38.8795    33.6954 H          2 BB2          0.0000
    34 H15       30.8455    37.1220    38.2117 H          2 BB2          0.0000
    35 H16       30.3745    35.4165    40.0216 H          2 BB2          0.0000
    36 H17       33.0565    33.8258    36.5911 H          2 BB2          0.0000
    37 H18       34.2588    37.5059    33.6597 H          2 BB2          0.0000
@<TRIPOS>BOND
     1      1      2 1
     2      1     19 1
     3      1     20 1
     4      1     21 1
     5      2      3 1
     6      2     12 1
     7      2     13 1
     8      3      4 1
     9      3     14 1
    10      3     15 1
    11      4      5 ar
    12      4     11 ar
    13      5      6 ar
    14      5     16 1
    15      6      7 ar
    16      6     17 1
    17      7      8 1
    18      7      9 ar
    19      9     10 1
    20      9     11 ar
    21     11     18 1
    22     22     23 1
    23     23     24 2
    24     23     27 1
    25     24     25 1
    26     24     33 1
    27     25     26 1
    28     25     37 1
    29     26     27 2
    30     27     28 1
    31     28     29 1
    32     28     32 2
    33     29     30 2
    34     29     34 1
    35     30     31 1
    36     30     35 1
    37     31     32 1
    38     32     36 1
    39     10     22 2
    40      8     22 1
@<TRIPOS>SUBSTRUCTURE
     1 BB1           8
     2 BB2          22
@<TRIPOS>MOLECULE
EN300-7455669_i001_EN300-104126_i001_8_20_27
  35   38   2   0   0
SMALL
USER_CHARGES
@<TRIPOS>ATOM
     1 N1        24.8063    36.1446    41.6303 N.4        1 BB1          1.0000
     2 C2        25.6769    37.0958    40.9265 C.3        1 BB1          0.0000
     3 C3        25.8005    36.6839    39.4581 C.3        1 BB1          0.0000
     4 C4        27.2242    36.8728    39.0017 C.ar       1 BB1          0.0000
     5 C5        28.2473    36.1906    39.6337 C.ar       1 BB1          0.0000
     6 C6        29.5556    36.3601    39.2195 C.ar       1 BB1          0.0000
     7 C7        29.8446    37.2147    38.1686 C.ar       1 BB1          0.0000
     8 O8        31.1310    37.3821    37.7599 O.3        1 BB1          0.0000
     9 C9        28.8143    37.9022    37.5308 C.ar       1 BB1          0.0000
    10 N10       29.1003    38.7671    36.4683 N.2        1 BB1          0.0000
    11 C11       27.5035    37.7232    37.9484 C.ar       1 BB1          0.0000
    12 H12       25.2475    38.0957    40.9885 H          1 BB1          0.0000
    13 H13       26.6642    37.0950    41.3885 H          1 BB1          0.0000
    14 H14       25.5201    35.6363    39.3498 H          1 BB1          0.0000
    15 H15       25.1393    37.3018    38.8506 H          1 BB1          0.0000
    16 H16       28.0240    35.5237    40.4534 H          1 BB1          0.0000
    17 H17       30.3525    35.8262    39.7159 H          1 BB1          0.0000
    18 H18       26.7025    38.2546    37.4562 H          1 BB1          0.0000
    19 H19       24.1872    35.7017    40.9679 H          1 BB1          0.0000
    20 H20       25.3720    35.4426    42.0832 H          1 BB1          0.0000
    21 H21       24.2617    36.6362    42.3230 H          1 BB1          0.0000
    22 C2        30.0615    39.2160    35.6561 C.2        2 BB2          0.0000
    23 C3        31.2267    38.4699    35.3469 C.2        2 BB2          0.0000
    24 C4        32.0647    38.6519    34.2665 C.2        2 BB2          0.0000
    25 N5        33.0653    37.7514    34.3128 N.pl3      2 BB2          0.0000
    26 C6        32.9389    36.9374    35.4162 C.ar       2 BB2          0.0000
    27 N7        33.6603    35.9262    35.8830 N.ar       2 BB2          0.0000
    28 C8        33.2942    35.3134    36.9932 C.ar       2 BB2          0.0000
    29 C9        32.1594    35.7157    37.6807 C.ar       2 BB2          0.0000
    30 N10       31.4297    36.7196    37.2304 N.ar       2 BB2          0.0000
    31 C11       31.7907    37.3469    36.1193 C.ar       2 BB2          0.0000
    32 H13       31.9376    39.4019    33.4999 H          2 BB2          0.0000
    33 H14       33.8840    34.4906    37.3694 H          2 BB2          0.0000
    34 H15       31.8711    35.2056    38.5879 H          2 BB2          0.0000
    35 H16       33.7777    37.6851    33.6578 H          2 BB2          0.0000
@<TRIPOS>BOND
     1      1      2 1
     2      1     19 1
     3      1     20 1
     4      1     21 1
     5      2      3 1
     6      2     12 1
     7      2     13 1
     8      3      4 1
     9      3     14 1
    10      3     15 1
    11      4      5 ar
    12      4     11 ar
    13      5      6 ar
    14      5     16 1
    15      6      7 ar
    16      6     17 1
    17      7      8 1
    18      7      9 ar
    19      9     10 1
    20      9     11 ar
    21     11     18 1
    22     22     23 1
    23     23     24 2
    24     23     31 1
    25     24     25 1
    26     24     32 1
    27     25     26 1
    28     25     35 1
    29     26     27 ar
    30     26     31 ar
    31     27     28 ar
    32     28     29 ar
    33     28     33 1
    34     29     30 ar
    35     29     34 1
    36     30     31 ar
    37     10     22 2
    38      8     22 1
@<TRIPOS>SUBSTRUCTURE
     1 BB1           8
     2 BB2          22
@<TRIPOS>MOLECULE
EN300-189362_i001_EN300-18990_i001_16_19_27
  24   26   2   0   0
SMALL
USER_CHARGES
@<TRIPOS>ATOM
     1 C1        26.0650    36.6836    41.3627 C.3        1 BB1          0.0000
     2 C2        27.0837    36.6950    40.2522 C.ar       1 BB1          0.0000
     3 C3        28.3554    36.2007    40.4773 C.ar       1 BB1          0.0000
     4 C4        29.2938    36.2106    39.4567 C.ar       1 BB1          0.0000
     5 N5        30.5826    35.7100    39.6833 N.2        1 BB1          0.0000
     6 C6        28.9525    36.7188    38.2051 C.ar       1 BB1          0.0000
     7 O7        29.8697    36.7300    37.2009 O.3        1 BB1          0.0000
     8 C8        27.6774    37.2121    37.9855 C.ar       1 BB1          0.0000
     9 C9        26.7429    37.1951    39.0076 C.ar       1 BB1          0.0000
    10 F10       25.4992    37.6767    38.7920 F          1 BB1          0.0000
    11 H11       26.1303    37.6149    41.9253 H          1 BB1          0.0000
    12 H12       25.0659    36.5848    40.9381 H          1 BB1          0.0000
    13 H13       26.2620    35.8427    42.0277 H          1 BB1          0.0000
    14 H14       28.6178    35.8072    41.4483 H          1 BB1          0.0000
    15 H15       27.4106    37.6068    37.0162 H          1 BB1          0.0000
    16 C2        32.2490    34.9523    37.6090 C.2        2 BB2          0.0000
    17 C3        32.3597    35.9124    36.5791 C.2        2 BB2          0.0000
    18 C4        31.4120    36.8519    36.2610 C.2        2 BB2          0.0000
    19 C5        31.7801    37.6596    35.2149 C.2        2 BB2          0.0000
    20 C6        32.9849    37.3976    34.6896 C.2        2 BB2          0.0000
    21 S7        33.7377    36.1007    35.5033 S.3        2 BB2          0.0000
    22 H9        30.4704    36.9459    36.7815 H          2 BB2          0.0000
    23 H10       31.1449    38.4493    34.8416 H          2 BB2          0.0000
    24 H11       33.4230    37.9386    33.8639 H          2 BB2          0.0000
@<TRIPOS>BOND
     1      1      2 1
     2      1     11 1
     3      1     12 1
     4      1     13 1
     5      2      3 ar
     6      2      9 ar
     7      3      4 ar
     8      3     14 1
     9      4      5 1
    10      4      6 ar
    11      6      7 1
    12      6      8 ar
    13      8      9 ar
    14      8     15 1
    15      9     10 1
    16     16     17 1
    17     17     18 2
    18     17     21 1
    19     18     19 1
    20     18     22 1
    21     19     20 2
    22     19     23 1
    23     20     21 1
    24     20     24 1
    25      5     16 2
    26      7     16 1
@<TRIPOS>SUBSTRUCTURE
     1 BB1           7
     2 BB2          16
@<TRIPOS>MOLECULE
EN300-153159_i001_EN300-76468_i001_19_9_27
  38   41   2   0   0
SMALL
USER_CHARGES
@<TRIPOS>ATOM
     1 C1        27.4400    34.7495    40.7395 C.3        1 BB1          0.0000
     2 C2        27.3294    36.2713    40.8537 C.3        1 BB1          0.0000
     3 C3        25.8737    36.6580    41.1232 C.3        1 BB1          0.0000
     4 C4        28.2089    36.7616    42.0056 C.3        1 BB1          0.0000
     5 C5        27.7877    36.9063    39.5662 C.ar       1 BB1          0.0000
     6 C6        26.8886    37.6069    38.7824 C.ar       1 BB1          0.0000
     7 C7        27.3048    38.1912    37.6011 C.ar       1 BB1          0.0000
     8 C8        28.6222    38.0784    37.1967 C.ar       1 BB1          0.0000
     9 C9        29.5291    37.3774    37.9773 C.ar       1 BB1          0.0000
    10 N10       30.8632    37.2617    37.5699 N.2        1 BB1          0.0000
    11 C11       29.1098    36.7930    39.1709 C.ar       1 BB1          0.0000
    12 O12       29.9949    36.1044    39.9406 O.3        1 BB1          0.0000
    13 H13       26.8133    34.4002    39.9189 H          1 BB1          0.0000
    14 H14       28.4769    34.4740    40.5476 H          1 BB1          0.0000
    15 H15       27.1084    34.2903    41.6708 H          1 BB1          0.0000
    16 H16       25.5422    36.1987    42.0544 H          1 BB1          0.0000
    17 H17       25.7949    37.7421    41.2044 H          1 BB1          0.0000
    18 H18       25.2471    36.3087    40.3026 H          1 BB1          0.0000
    19 H19       29.2459    36.4861    41.8137 H          1 BB1          0.0000
    20 H20       28.1301    37.8457    42.0870 H          1 BB1          0.0000
    21 H21       27.8774    36.3022    42.9369 H          1 BB1          0.0000
    22 H22       25.8586    37.6973    39.0944 H          1 BB1          0.0000
    23 H23       26.5993    38.7370    36.9922 H          1 BB1          0.0000
    24 H24       28.9446    38.5356    36.2728 H          1 BB1          0.0000
    25 C2        30.3496    36.6805    38.6479 C.2        2 BB2          0.0000
    26 C3        31.3912    36.5879    37.6980 C.2        2 BB2          0.0000
    27 C4        32.5733    35.8280    37.8174 C.2        2 BB2          0.0000
    28 N5        33.2896    35.9968    36.7391 N.2        2 BB2          0.0000
    29 N6        32.6265    36.8646    35.8647 N.pl3      2 BB2          0.0000
    30 C7        32.9541    37.3459    34.6326 C.2        2 BB2          0.0000
    31 C8        32.0983    38.1925    34.0037 C.2        2 BB2          0.0000
    32 C9        30.9019    38.5507    34.6341 C.2        2 BB2          0.0000
    33 N10       30.6140    38.0695    35.8243 N.2        2 BB2          0.0000
    34 C11       31.4466    37.2335    36.4433 C.2        2 BB2          0.0000
    35 H13       32.8416    35.2095    38.6610 H          2 BB2          0.0000
    36 H14       33.8828    37.0580    34.1622 H          2 BB2          0.0000
    37 H15       32.3391    38.5855    33.0270 H          2 BB2          0.0000
    38 H16       30.2139    39.2233    34.1433 H          2 BB2          0.0000
@<TRIPOS>BOND
     1      1      2 1
     2      1     13 1
     3      1     14 1
     4      1     15 1
     5      2      3 1
     6      2      4 1
     7      2      5 1
     8      3     16 1
     9      3     17 1
    10      3     18 1
    11      4     19 1
    12      4     20 1
    13      4     21 1
    14      5      6 ar
    15      5     11 ar
    16      6      7 ar
    17      6     22 1
    18      7      8 ar
    19      7     23 1
    20      8      9 ar
    21      8     24 1
    22      9     10 1
    23      9     11 ar
    24     11     12 1
    25     25     26 1
    26     26     27 1
    27     26     34 2
    28     27     28 2
    29     27     35 1
    30     28     29 1
    31     29     30 1
    32     29     34 1
    33     30     31 2
    34     30     36 1
    35     31     32 1
    36     31     37 1
    37     32     33 2
    38     32     38 1
    39     33     34 1
    40     10     25 2
    41     12     25 1
@<TRIPOS>SUBSTRUCTURE
     1 BB1          12
     2 BB2          25
@<TRIPOS>MOLECULE
EN300-78391_i001_EN300-92356_i001_10_6_27
  27   29   2   0   0
SMALL
USER_CHARGES
@<TRIPOS>ATOM
     1 C1        25.7124    37.5103    38.8091 C.3        1 BB1          0.0000
     2 C2        26.6958    36.9978    39.8296 C.ar       1 BB1          0.0000
     3 C3        26.3242    36.8979    41.1583 C.ar       1 BB1          0.0000
     4 C4        27.2228    36.4280    42.0975 C.ar       1 BB1          0.0000
     5 C5        28.4977    36.0552    41.7136 C.ar       1 BB1          0.0000
     6 C6        28.8772    36.1526    40.3833 C.ar       1 BB1          0.0000
     7 N7        30.1672    35.7760    39.9922 N.2        1 BB1          0.0000
     8 C8        27.9689    36.6216    39.4361 C.ar       1 BB1          0.0000
     9 O9        28.3354    36.7193    38.1300 O.3        1 BB1          0.0000
    10 H10       25.8050    38.5933    38.7273 H          1 BB1          0.0000
    11 H11       25.9217    37.0537    37.8417 H          1 BB1          0.0000
    12 H12       24.6996    37.2547    39.1201 H          1 BB1          0.0000
    13 H13       25.3295    37.1883    41.4627 H          1 BB1          0.0000
    14 H14       26.9284    36.3520    43.1338 H          1 BB1          0.0000
    15 H15       29.1979    35.6886    42.4496 H          1 BB1          0.0000
    16 C1        33.0032    37.1739    35.0927 C.3        2 BB2          0.0000
    17 N2        32.4043    36.4703    36.2296 N.pl3      2 BB2          0.0000
    18 C3        32.6383    35.1728    36.5506 C.2        2 BB2          0.0000
    19 C4        31.9070    34.8957    37.6557 C.2        2 BB2          0.0000
    20 Cl5       31.8203    33.3850    38.5066 Cl         2 BB2          0.0000
    21 C6        31.2271    36.0990    37.9722 C.2        2 BB2          0.0000
    22 C7        30.3034    36.3115    39.0951 C.2        2 BB2          0.0000
    23 N9        31.5860    36.9943    37.0700 N.2        2 BB2          0.0000
    24 H10       32.3642    37.0595    34.2171 H          2 BB2          0.0000
    25 H11       33.1046    38.2323    35.3328 H          2 BB2          0.0000
    26 H12       33.9865    36.7532    34.8822 H          2 BB2          0.0000
    27 H13       33.2865    34.4888    36.0228 H          2 BB2          0.0000
@<TRIPOS>BOND
     1      1      2 1
     2      1     10 1
     3      1     11 1
     4      1     12 1
     5      2      3 ar
     6      2      8 ar
     7      3      4 ar
     8      3     13 1
     9      4      5 ar
    10      4     14 1
    11      5      6 ar
    12      5     15 1
    13      6      7 1
    14      6      8 ar
    15      8      9 1
    16     16     17 1
    17     16     24 1
    18     16     25 1
    19     16     26 1
    20     17     18 1
    21     17     23 1
    22     18     19 2
    23     18     27 1
    24     19     20 1
    25     19     21 1
    26     21     22 1
    27     21     23 2
    28      7     22 2
    29      9     22 1
@<TRIPOS>SUBSTRUCTURE
     1 BB1           9
     2 BB2          22
@<TRIPOS>MOLECULE
EN300-78391_i001_EN300-76468_i001_10_5_27
  29   32   2   0   0
SMALL
USER_CHARGES
@<TRIPOS>ATOM
     1 C1        25.7124    37.5103    38.8091 C.3        1 BB1          0.0000
     2 C2        26.6958    36.9978    39.8296 C.ar       1 BB1          0.0000
     3 C3        26.3242    36.8979    41.1583 C.ar       1 BB1          0.0000
     4 C4        27.2228    36.4280    42.0975 C.ar       1 BB1          0.0000
     5 C5        28.4977    36.0552    41.7136 C.ar       1 BB1          0.0000
     6 C6        28.8772    36.1526    40.3833 C.ar       1 BB1          0.0000
     7 N7        30.1672    35.7760    39.9922 N.2        1 BB1          0.0000
     8 C8        27.9689    36.6216    39.4361 C.ar       1 BB1          0.0000
     9 O9        28.3354    36.7193    38.1300 O.3        1 BB1          0.0000
    10 H10       25.8050    38.5933    38.7273 H          1 BB1          0.0000
    11 H11       25.9217    37.0537    37.8417 H          1 BB1          0.0000
    12 H12       24.6996    37.2547    39.1201 H          1 BB1          0.0000
    13 H13       25.3295    37.1883    41.4627 H          1 BB1          0.0000
    14 H14       26.9284    36.3520    43.1338 H          1 BB1          0.0000
    15 H15       29.1979    35.6886    42.4496 H          1 BB1          0.0000
    16 C2        29.7266    37.1224    38.9485 C.2        2 BB2          0.0000
    17 C3        30.8024    36.4735    38.3023 C.2        2 BB2          0.0000
    18 C4        31.4626    35.3051    38.7358 C.2        2 BB2          0.0000
    19 N5        32.4013    35.0123    37.8772 N.2        2 BB2          0.0000
    20 N6        32.4091    35.9590    36.8472 N.pl3      2 BB2          0.0000
    21 C7        33.1844    36.0917    35.7345 C.2        2 BB2          0.0000
    22 C8        32.9604    37.1332    34.8920 C.2        2 BB2          0.0000
    23 C9        31.9404    38.0447    35.1853 C.2        2 BB2          0.0000
    24 N10       31.2090    37.8898    36.2679 N.2        2 BB2          0.0000
    25 C11       31.4198    36.8663    37.0946 C.2        2 BB2          0.0000
    26 H13       31.2303    34.7456    39.6299 H          2 BB2          0.0000
    27 H14       33.9675    35.3779    35.5252 H          2 BB2          0.0000
    28 H15       33.5638    37.2568    34.0049 H          2 BB2          0.0000
    29 H16       31.7534    38.8767    34.5224 H          2 BB2          0.0000
@<TRIPOS>BOND
     1      1      2 1
     2      1     10 1
     3      1     11 1
     4      1     12 1
     5      2      3 ar
     6      2      8 ar
     7      3      4 ar
     8      3     13 1
     9      4      5 ar
    10      4     14 1
    11      5      6 ar
    12      5     15 1
    13      6      7 1
    14      6      8 ar
    15      8      9 1
    16     16     17 1
    17     17     18 1
    18     17     25 2
    19     18     19 2
    20     18     26 1
    21     19     20 1
    22     20     21 1
    23     20     25 1
    24     21     22 2
    25     21     27 1
    26     22     23 1
    27     22     28 1
    28     23     24 2
    29     23     29 1
    30     24     25 1
    31      7     16 2
    32      9     16 1
@<TRIPOS>SUBSTRUCTURE
     1 BB1           9
     2 BB2          16
@<TRIPOS>MOLECULE
EN300-78391_i001_EN300-76468_i001_10_6_27
  29   32   2   0   0
SMALL
USER_CHARGES
@<TRIPOS>ATOM
     1 C1        25.7124    37.5103    38.8091 C.3        1 BB1          0.0000
     2 C2        26.6958    36.9978    39.8296 C.ar       1 BB1          0.0000
     3 C3        26.3242    36.8979    41.1583 C.ar       1 BB1          0.0000
     4 C4        27.2228    36.4280    42.0975 C.ar       1 BB1          0.0000
     5 C5        28.4977    36.0552    41.7136 C.ar       1 BB1          0.0000
     6 C6        28.8772    36.1526    40.3833 C.ar       1 BB1          0.0000
     7 N7        30.1672    35.7760    39.9922 N.2        1 BB1          0.0000
     8 C8        27.9689    36.6216    39.4361 C.ar       1 BB1          0.0000
     9 O9        28.3354    36.7193    38.1300 O.3        1 BB1          0.0000
    10 H10       25.8050    38.5933    38.7273 H          1 BB1          0.0000
    11 H11       25.9217    37.0537    37.8417 H          1 BB1          0.0000
    12 H12       24.6996    37.2547    39.1201 H          1 BB1          0.0000
    13 H13       25.3295    37.1883    41.4627 H          1 BB1          0.0000
    14 H14       26.9284    36.3520    43.1338 H          1 BB1          0.0000
    15 H15       29.1979    35.6886    42.4496 H          1 BB1          0.0000
    16 C2        29.5979    37.5613    38.3484 C.2        2 BB2          0.0000
    17 C3        30.7337    36.7857    38.0253 C.2        2 BB2          0.0000
    18 C4        31.2794    35.7340    38.7902 C.2        2 BB2          0.0000
    19 N5        32.3242    35.2617    38.1662 N.2        2 BB2          0.0000
    20 N6        32.5193    35.9672    36.9740 N.pl3      2 BB2          0.0000
    21 C7        33.4558    35.8570    35.9902 C.2        2 BB2          0.0000
    22 C8        33.3973    36.6960    34.9238 C.2        2 BB2          0.0000
    23 C9        32.3787    37.6528    34.8596 C.2        2 BB2          0.0000
    24 N10       31.4892    37.7347    35.8256 N.2        2 BB2          0.0000
    25 C11       31.5377    36.9100    36.8711 C.2        2 BB2          0.0000
    26 H13       30.8967    35.3787    39.7355 H          2 BB2          0.0000
    27 H14       34.2349    35.1121    36.0578 H          2 BB2          0.0000
    28 H15       34.1299    36.6255    34.1334 H          2 BB2          0.0000
    29 H16       32.3225    38.3251    34.0162 H          2 BB2          0.0000
@<TRIPOS>BOND
     1      1      2 1
     2      1     10 1
     3      1     11 1
     4      1     12 1
     5      2      3 ar
     6      2      8 ar
     7      3      4 ar
     8      3     13 1
     9      4      5 ar
    10      4     14 1
    11      5      6 ar
    12      5     15 1
    13      6      7 1
    14      6      8 ar
    15      8      9 1
    16     16     17 1
    17     17     18 1
    18     17     25 2
    19     18     19 2
    20     18     26 1
    21     19     20 1
    22     20     21 1
    23     20     25 1
    24     21     22 2
    25     21     27 1
    26     22     23 1
    27     22     28 1
    28     23     24 2
    29     23     29 1
    30     24     25 1
    31      7     16 2
    32      9     16 1
@<TRIPOS>SUBSTRUCTURE
     1 BB1           9
     2 BB2          16
@<TRIPOS>MOLECULE
EN300-78391_i001_EN300-76468_i001_10_9_27
  29   32   2   0   0
SMALL
USER_CHARGES
@<TRIPOS>ATOM
     1 C1        25.7124    37.5103    38.8091 C.3        1 BB1          0.0000
     2 C2        26.6958    36.9978    39.8296 C.ar       1 BB1          0.0000
     3 C3        26.3242    36.8979    41.1583 C.ar       1 BB1          0.0000
     4 C4        27.2228    36.4280    42.0975 C.ar       1 BB1          0.0000
     5 C5        28.4977    36.0552    41.7136 C.ar       1 BB1          0.0000
     6 C6        28.8772    36.1526    40.3833 C.ar       1 BB1          0.0000
     7 N7        30.1672    35.7760    39.9922 N.2        1 BB1          0.0000
     8 C8        27.9689    36.6216    39.4361 C.ar       1 BB1          0.0000
     9 O9        28.3354    36.7193    38.1300 O.3        1 BB1          0.0000
    10 H10       25.8050    38.5933    38.7273 H          1 BB1          0.0000
    11 H11       25.9217    37.0537    37.8417 H          1 BB1          0.0000
    12 H12       24.6996    37.2547    39.1201 H          1 BB1          0.0000
    13 H13       25.3295    37.1883    41.4627 H          1 BB1          0.0000
    14 H14       26.9284    36.3520    43.1338 H          1 BB1          0.0000
    15 H15       29.1979    35.6886    42.4496 H          1 BB1          0.0000
    16 C2        30.3496    36.6805    38.6479 C.2        2 BB2          0.0000
    17 C3        31.3912    36.5879    37.6980 C.2        2 BB2          0.0000
    18 C4        32.5733    35.8280    37.8174 C.2        2 BB2          0.0000
    19 N5        33.2896    35.9968    36.7391 N.2        2 BB2          0.0000
    20 N6        32.6265    36.8646    35.8647 N.pl3      2 BB2          0.0000
    21 C7        32.9541    37.3459    34.6326 C.2        2 BB2          0.0000
    22 C8        32.0983    38.1925    34.0037 C.2        2 BB2          0.0000
    23 C9        30.9019    38.5507    34.6341 C.2        2 BB2          0.0000
    24 N10       30.6140    38.0695    35.8243 N.2        2 BB2          0.0000
    25 C11       31.4466    37.2335    36.4433 C.2        2 BB2          0.0000
    26 H13       32.8416    35.2095    38.6610 H          2 BB2          0.0000
    27 H14       33.8828    37.0580    34.1622 H          2 BB2          0.0000
    28 H15       32.3391    38.5855    33.0270 H          2 BB2          0.0000
    29 H16       30.2139    39.2233    34.1433 H          2 BB2          0.0000
@<TRIPOS>BOND
     1      1      2 1
     2      1     10 1
     3      1     11 1
     4      1     12 1
     5      2      3 ar
     6      2      8 ar
     7      3      4 ar
     8      3     13 1
     9      4      5 ar
    10      4     14 1
    11      5      6 ar
    12      5     15 1
    13      6      7 1
    14      6      8 ar
    15      8      9 1
    16     16     17 1
    17     17     18 1
    18     17     25 2
    19     18     19 2
    20     18     26 1
    21     19     20 1
    22     20     21 1
    23     20     25 1
    24     21     22 2
    25     21     27 1
    26     22     23 1
    27     22     28 1
    28     23     24 2
    29     23     29 1
    30     24     25 1
    31      7     16 2
    32      9     16 1
@<TRIPOS>SUBSTRUCTURE
     1 BB1           9
     2 BB2          16
@<TRIPOS>MOLECULE
EN300-78391_i001_EN300-110529_i001_10_11_27
  34   36   2   0   0
SMALL
USER_CHARGES
@<TRIPOS>ATOM
     1 C1        25.7124    37.5103    38.8091 C.3        1 BB1          0.0000
     2 C2        26.6958    36.9978    39.8296 C.ar       1 BB1          0.0000
     3 C3        26.3242    36.8979    41.1583 C.ar       1 BB1          0.0000
     4 C4        27.2228    36.4280    42.0975 C.ar       1 BB1          0.0000
     5 C5        28.4977    36.0552    41.7136 C.ar       1 BB1          0.0000
     6 C6        28.8772    36.1526    40.3833 C.ar       1 BB1          0.0000
     7 N7        30.1672    35.7760    39.9922 N.2        1 BB1          0.0000
     8 C8        27.9689    36.6216    39.4361 C.ar       1 BB1          0.0000
     9 O9        28.3354    36.7193    38.1300 O.3        1 BB1          0.0000
    10 H10       25.8050    38.5933    38.7273 H          1 BB1          0.0000
    11 H11       25.9217    37.0537    37.8417 H          1 BB1          0.0000
    12 H12       24.6996    37.2547    39.1201 H          1 BB1          0.0000
    13 H13       25.3295    37.1883    41.4627 H          1 BB1          0.0000
    14 H14       26.9284    36.3520    43.1338 H          1 BB1          0.0000
    15 H15       29.1979    35.6886    42.4496 H          1 BB1          0.0000
    16 C1        31.8028    33.3968    38.3902 C.3        2 BB2          0.0000
    17 O2        31.3632    34.6843    38.8276 O.3        2 BB2          0.0000
    18 C3        31.4792    35.7071    37.9449 C.ar       2 BB2          0.0000
    19 C4        32.4088    35.6394    36.9179 C.ar       2 BB2          0.0000
    20 C5        32.5258    36.6815    36.0199 C.ar       2 BB2          0.0000
    21 C6        33.5385    36.5999    34.9069 C.3        2 BB2          0.0000
    22 C7        31.7179    37.8021    36.1348 C.ar       2 BB2          0.0000
    23 C8        30.7890    37.8888    37.1472 C.ar       2 BB2          0.0000
    24 C9        30.6546    36.8379    38.0626 C.ar       2 BB2          0.0000
    25 C10       29.6666    36.9225    39.1448 C.2        2 BB2          0.0000
    26 H12       31.6548    32.6713    39.1900 H          2 BB2          0.0000
    27 H13       31.2280    33.0948    37.5147 H          2 BB2          0.0000
    28 H14       32.8608    33.4425    38.1322 H          2 BB2          0.0000
    29 H15       33.0425    34.7702    36.8207 H          2 BB2          0.0000
    30 H16       33.0810    36.1369    34.0325 H          2 BB2          0.0000
    31 H17       33.8783    37.6034    34.6505 H          2 BB2          0.0000
    32 H18       34.3887    36.0005    35.2323 H          2 BB2          0.0000
    33 H19       31.8181    38.6114    35.4267 H          2 BB2          0.0000
    34 H20       30.1621    38.7641    37.2326 H          2 BB2          0.0000
@<TRIPOS>BOND
     1      1      2 1
     2      1     10 1
     3      1     11 1
     4      1     12 1
     5      2      3 ar
     6      2      8 ar
     7      3      4 ar
     8      3     13 1
     9      4      5 ar
    10      4     14 1
    11      5      6 ar
    12      5     15 1
    13      6      7 1
    14      6      8 ar
    15      8      9 1
    16     16     17 1
    17     16     26 1
    18     16     27 1
    19     16     28 1
    20     17     18 1
    21     18     19 ar
    22     18     24 ar
    23     19     20 ar
    24     19     29 1
    25     20     21 1
    26     20     22 ar
    27     21     30 1
    28     21     31 1
    29     21     32 1
    30     22     23 ar
    31     22     33 1
    32     23     24 ar
    33     23     34 1
    34     24     25 1
    35      7     25 2
    36      9     25 1
@<TRIPOS>SUBSTRUCTURE
     1 BB1           9
     2 BB2          25
@<TRIPOS>MOLECULE
EN300-78391_i001_EN300-83792_i001_10_19_27
  32   35   2   0   0
SMALL
USER_CHARGES
@<TRIPOS>ATOM
     1 C1        25.7124    37.5103    38.8091 C.3        1 BB1          0.0000
     2 C2        26.6958    36.9978    39.8296 C.ar       1 BB1          0.0000
     3 C3        26.3242    36.8979    41.1583 C.ar       1 BB1          0.0000
     4 C4        27.2228    36.4280    42.0975 C.ar       1 BB1          0.0000
     5 C5        28.4977    36.0552    41.7136 C.ar       1 BB1          0.0000
     6 C6        28.8772    36.1526    40.3833 C.ar       1 BB1          0.0000
     7 N7        30.1672    35.7760    39.9922 N.2        1 BB1          0.0000
     8 C8        27.9689    36.6216    39.4361 C.ar       1 BB1          0.0000
     9 O9        28.3354    36.7193    38.1300 O.3        1 BB1          0.0000
    10 H10       25.8050    38.5933    38.7273 H          1 BB1          0.0000
    11 H11       25.9217    37.0537    37.8417 H          1 BB1          0.0000
    12 H12       24.6996    37.2547    39.1201 H          1 BB1          0.0000
    13 H13       25.3295    37.1883    41.4627 H          1 BB1          0.0000
    14 H14       26.9284    36.3520    43.1338 H          1 BB1          0.0000
    15 H15       29.1979    35.6886    42.4496 H          1 BB1          0.0000
    16 C2        29.2738    37.3066    38.0893 C.2        2 BB2          0.0000
    17 C3        30.5834    36.7691    37.6843 C.ar       2 BB2          0.0000
    18 N4        31.2140    35.9020    38.4608 N.ar       2 BB2          0.0000
    19 C5        32.3882    35.3887    38.1479 C.ar       2 BB2          0.0000
    20 C6        33.0419    35.7240    36.9817 C.ar       2 BB2          0.0000
    21 C7        32.4353    36.6394    36.1050 C.ar       2 BB2          0.0000
    22 C8        33.0375    37.0313    34.8994 C.ar       2 BB2          0.0000
    23 C9        32.3997    37.9230    34.0912 C.ar       2 BB2          0.0000
    24 C10       31.1594    38.4517    34.4442 C.ar       2 BB2          0.0000
    25 C11       30.5470    38.0930    35.6077 C.ar       2 BB2          0.0000
    26 C12       31.1691    37.1735    36.4608 C.ar       2 BB2          0.0000
    27 H14       32.8507    34.6859    38.8251 H          2 BB2          0.0000
    28 H15       34.0030    35.2913    36.7463 H          2 BB2          0.0000
    29 H16       33.9986    36.6293    34.6151 H          2 BB2          0.0000
    30 H17       32.8623    38.2253    33.1632 H          2 BB2          0.0000
    31 H18       30.6758    39.1574    33.7849 H          2 BB2          0.0000
    32 H19       29.5859    38.5117    35.8676 H          2 BB2          0.0000
@<TRIPOS>BOND
     1      1      2 1
     2      1     10 1
     3      1     11 1
     4      1     12 1
     5      2      3 ar
     6      2      8 ar
     7      3      4 ar
     8      3     13 1
     9      4      5 ar
    10      4     14 1
    11      5      6 ar
    12      5     15 1
    13      6      7 1
    14      6      8 ar
    15      8      9 1
    16     16     17 1
    17     17     18 ar
    18     17     26 ar
    19     18     19 ar
    20     19     20 ar
    21     19     27 1
    22     20     21 ar
    23     20     28 1
    24     21     22 ar
    25     21     26 ar
    26     22     23 ar
    27     22     29 1
    28     23     24 ar
    29     23     30 1
    30     24     25 ar
    31     24     31 1
    32     25     26 ar
    33     25     32 1
    34      7     16 2
    35      9     16 1
@<TRIPOS>SUBSTRUCTURE
     1 BB1           9
     2 BB2          16
@<TRIPOS>MOLECULE
EN300-78391_i001_EN300-83792_i001_10_5_27
  32   35   2   0   0
SMALL
USER_CHARGES
@<TRIPOS>ATOM
     1 C1        25.7124    37.5103    38.8091 C.3        1 BB1          0.0000
     2 C2        26.6958    36.9978    39.8296 C.ar       1 BB1          0.0000
     3 C3        26.3242    36.8979    41.1583 C.ar       1 BB1          0.0000
     4 C4        27.2228    36.4280    42.0975 C.ar       1 BB1          0.0000
     5 C5        28.4977    36.0552    41.7136 C.ar       1 BB1          0.0000
     6 C6        28.8772    36.1526    40.3833 C.ar       1 BB1          0.0000
     7 N7        30.1672    35.7760    39.9922 N.2        1 BB1          0.0000
     8 C8        27.9689    36.6216    39.4361 C.ar       1 BB1          0.0000
     9 O9        28.3354    36.7193    38.1300 O.3        1 BB1          0.0000
    10 H10       25.8050    38.5933    38.7273 H          1 BB1          0.0000
    11 H11       25.9217    37.0537    37.8417 H          1 BB1          0.0000
    12 H12       24.6996    37.2547    39.1201 H          1 BB1          0.0000
    13 H13       25.3295    37.1883    41.4627 H          1 BB1          0.0000
    14 H14       26.9284    36.3520    43.1338 H          1 BB1          0.0000
    15 H15       29.1979    35.6886    42.4496 H          1 BB1          0.0000
    16 C2        29.6786    37.2693    38.9586 C.2        2 BB2          0.0000
    17 C3        30.6705    36.3563    38.3665 C.ar       2 BB2          0.0000
    18 N4        30.9235    35.1896    38.9384 N.ar       2 BB2          0.0000
    19 C5        31.8012    34.3335    38.4518 C.ar       2 BB2          0.0000
    20 C6        32.5192    34.5993    37.3057 C.ar       2 BB2          0.0000
    21 C7        32.3058    35.8188    36.6410 C.ar       2 BB2          0.0000
    22 C8        32.9978    36.1625    35.4694 C.ar       2 BB2          0.0000
    23 C9        32.7473    37.3601    34.8707 C.ar       2 BB2          0.0000
    24 C10       31.8152    38.2481    35.4047 C.ar       2 BB2          0.0000
    25 C11       31.1261    37.9459    36.5410 C.ar       2 BB2          0.0000
    26 C12       31.3519    36.7210    37.1807 C.ar       2 BB2          0.0000
    27 H14       31.9621    33.3977    38.9664 H          2 BB2          0.0000
    28 H15       33.2329    33.8834    36.9257 H          2 BB2          0.0000
    29 H16       33.7230    35.4834    35.0463 H          2 BB2          0.0000
    30 H17       33.2793    37.6257    33.9691 H          2 BB2          0.0000
    31 H18       31.6362    39.1913    34.9098 H          2 BB2          0.0000
    32 H19       30.4072    38.6446    36.9428 H          2 BB2          0.0000
@<TRIPOS>BOND
     1      1      2 1
     2      1     10 1
     3      1     11 1
     4      1     12 1
     5      2      3 ar
     6      2      8 ar
     7      3      4 ar
     8      3     13 1
     9      4      5 ar
    10      4     14 1
    11      5      6 ar
    12      5     15 1
    13      6      7 1
    14      6      8 ar
    15      8      9 1
    16     16     17 1
    17     17     18 ar
    18     17     26 ar
    19     18     19 ar
    20     19     20 ar
    21     19     27 1
    22     20     21 ar
    23     20     28 1
    24     21     22 ar
    25     21     26 ar
    26     22     23 ar
    27     22     29 1
    28     23     24 ar
    29     23     30 1
    30     24     25 ar
    31     24     31 1
    32     25     26 ar
    33     25     32 1
    34      7     16 2
    35      9     16 1
@<TRIPOS>SUBSTRUCTURE
     1 BB1           9
     2 BB2          16
@<TRIPOS>MOLECULE
EN300-78391_i001_EN300-83792_i001_10_7_27
  32   35   2   0   0
SMALL
USER_CHARGES
@<TRIPOS>ATOM
     1 C1        25.7124    37.5103    38.8091 C.3        1 BB1          0.0000
     2 C2        26.6958    36.9978    39.8296 C.ar       1 BB1          0.0000
     3 C3        26.3242    36.8979    41.1583 C.ar       1 BB1          0.0000
     4 C4        27.2228    36.4280    42.0975 C.ar       1 BB1          0.0000
     5 C5        28.4977    36.0552    41.7136 C.ar       1 BB1          0.0000
     6 C6        28.8772    36.1526    40.3833 C.ar       1 BB1          0.0000
     7 N7        30.1672    35.7760    39.9922 N.2        1 BB1          0.0000
     8 C8        27.9689    36.6216    39.4361 C.ar       1 BB1          0.0000
     9 O9        28.3354    36.7193    38.1300 O.3        1 BB1          0.0000
    10 H10       25.8050    38.5933    38.7273 H          1 BB1          0.0000
    11 H11       25.9217    37.0537    37.8417 H          1 BB1          0.0000
    12 H12       24.6996    37.2547    39.1201 H          1 BB1          0.0000
    13 H13       25.3295    37.1883    41.4627 H          1 BB1          0.0000
    14 H14       26.9284    36.3520    43.1338 H          1 BB1          0.0000
    15 H15       29.1979    35.6886    42.4496 H          1 BB1          0.0000
    16 C2        30.0075    36.6634    38.7307 C.2        2 BB2          0.0000
    17 C3        30.1955    37.6334    37.6391 C.ar       2 BB2          0.0000
    18 N4        29.4500    38.7261    37.5864 N.ar       2 BB2          0.0000
    19 C5        29.5753    39.6282    36.6322 C.ar       2 BB2          0.0000
    20 C6        30.4986    39.4917    35.6180 C.ar       2 BB2          0.0000
    21 C7        31.3274    38.3570    35.6055 C.ar       2 BB2          0.0000
    22 C8        32.2908    38.1461    34.6071 C.ar       2 BB2          0.0000
    23 C9        33.0645    37.0258    34.6490 C.ar       2 BB2          0.0000
    24 C10       32.9127    36.0868    35.6679 C.ar       2 BB2          0.0000
    25 C11       31.9867    36.2605    36.6526 C.ar       2 BB2          0.0000
    26 C12       31.1777    37.4034    36.6463 C.ar       2 BB2          0.0000
    27 H14       28.9358    40.4984    36.6457 H          2 BB2          0.0000
    28 H15       30.5833    40.2430    34.8468 H          2 BB2          0.0000
    29 H16       32.4176    38.8658    33.8120 H          2 BB2          0.0000
    30 H17       33.8062    36.8624    33.8812 H          2 BB2          0.0000
    31 H18       33.5392    35.2071    35.6770 H          2 BB2          0.0000
    32 H19       31.8807    35.5238    37.4352 H          2 BB2          0.0000
@<TRIPOS>BOND
     1      1      2 1
     2      1     10 1
     3      1     11 1
     4      1     12 1
     5      2      3 ar
     6      2      8 ar
     7      3      4 ar
     8      3     13 1
     9      4      5 ar
    10      4     14 1
    11      5      6 ar
    12      5     15 1
    13      6      7 1
    14      6      8 ar
    15      8      9 1
    16     16     17 1
    17     17     18 ar
    18     17     26 ar
    19     18     19 ar
    20     19     20 ar
    21     19     27 1
    22     20     21 ar
    23     20     28 1
    24     21     22 ar
    25     21     26 ar
    26     22     23 ar
    27     22     29 1
    28     23     24 ar
    29     23     30 1
    30     24     25 ar
    31     24     31 1
    32     25     26 ar
    33     25     32 1
    34      7     16 2
    35      9     16 1
@<TRIPOS>SUBSTRUCTURE
     1 BB1           9
     2 BB2          16
@<TRIPOS>MOLECULE
EN300-78391_i001_EN300-100613_i001_10_15_27
  31   34   2   0   0
SMALL
USER_CHARGES
@<TRIPOS>ATOM
     1 C1        25.7124    37.5103    38.8091 C.3        1 BB1          0.0000
     2 C2        26.6958    36.9978    39.8296 C.ar       1 BB1          0.0000
     3 C3        26.3242    36.8979    41.1583 C.ar       1 BB1          0.0000
     4 C4        27.2228    36.4280    42.0975 C.ar       1 BB1          0.0000
     5 C5        28.4977    36.0552    41.7136 C.ar       1 BB1          0.0000
     6 C6        28.8772    36.1526    40.3833 C.ar       1 BB1          0.0000
     7 N7        30.1672    35.7760    39.9922 N.2        1 BB1          0.0000
     8 C8        27.9689    36.6216    39.4361 C.ar       1 BB1          0.0000
     9 O9        28.3354    36.7193    38.1300 O.3        1 BB1          0.0000
    10 H10       25.8050    38.5933    38.7273 H          1 BB1          0.0000
    11 H11       25.9217    37.0537    37.8417 H          1 BB1          0.0000
    12 H12       24.6996    37.2547    39.1201 H          1 BB1          0.0000
    13 H13       25.3295    37.1883    41.4627 H          1 BB1          0.0000
    14 H14       26.9284    36.3520    43.1338 H          1 BB1          0.0000
    15 H15       29.1979    35.6886    42.4496 H          1 BB1          0.0000
    16 F1        30.0559    38.5856    35.6803 F          2 BB2          0.0000
    17 C2        31.1321    37.7709    35.7393 C.ar       2 BB2          0.0000
    18 C3        32.0623    37.7746    34.7192 C.ar       2 BB2          0.0000
    19 C4        33.1673    36.9389    34.7786 C.ar       2 BB2          0.0000
    20 C5        33.3531    36.0950    35.8521 C.ar       2 BB2          0.0000
    21 C6        32.4272    36.0763    36.8906 C.ar       2 BB2          0.0000
    22 N7        32.3452    35.3579    38.0663 N.pl3      2 BB2          0.0000
    23 C8        31.2398    35.6988    38.7565 C.2        2 BB2          0.0000
    24 C9        30.5398    36.6624    38.0629 C.2        2 BB2          0.0000
    25 C10       29.3254    37.2796    38.4542 C.2        2 BB2          0.0000
    26 C12       31.3124    36.9265    36.8329 C.ar       2 BB2          0.0000
    27 H13       31.9288    38.4305    33.8715 H          2 BB2          0.0000
    28 H14       33.8893    36.9493    33.9754 H          2 BB2          0.0000
    29 H15       34.2172    35.4481    35.8873 H          2 BB2          0.0000
    30 H16       30.9467    35.2808    39.7083 H          2 BB2          0.0000
    31 H18       32.9943    34.6978    38.3555 H          2 BB2          0.0000
@<TRIPOS>BOND
     1      1      2 1
     2      1     10 1
     3      1     11 1
     4      1     12 1
     5      2      3 ar
     6      2      8 ar
     7      3      4 ar
     8      3     13 1
     9      4      5 ar
    10      4     14 1
    11      5      6 ar
    12      5     15 1
    13      6      7 1
    14      6      8 ar
    15      8      9 1
    16     16     17 1
    17     17     18 ar
    18     17     26 ar
    19     18     19 ar
    20     18     27 1
    21     19     20 ar
    22     19     28 1
    23     20     21 ar
    24     20     29 1
    25     21     22 1
    26     21     26 ar
    27     22     23 1
    28     22     31 1
    29     23     24 2
    30     23     30 1
    31     24     25 1
    32     24     26 1
    33      7     25 2
    34      9     25 1
@<TRIPOS>SUBSTRUCTURE
     1 BB1           9
     2 BB2          25
@<TRIPOS>MOLECULE
EN300-78391_i001_EN300-126376_i001_10_16_27
  34   36   2   0   0
SMALL
USER_CHARGES
@<TRIPOS>ATOM
     1 C1        25.7124    37.5103    38.8091 C.3        1 BB1          0.0000
     2 C2        26.6958    36.9978    39.8296 C.ar       1 BB1          0.0000
     3 C3        26.3242    36.8979    41.1583 C.ar       1 BB1          0.0000
     4 C4        27.2228    36.4280    42.0975 C.ar       1 BB1          0.0000
     5 C5        28.4977    36.0552    41.7136 C.ar       1 BB1          0.0000
     6 C6        28.8772    36.1526    40.3833 C.ar       1 BB1          0.0000
     7 N7        30.1672    35.7760    39.9922 N.2        1 BB1          0.0000
     8 C8        27.9689    36.6216    39.4361 C.ar       1 BB1          0.0000
     9 O9        28.3354    36.7193    38.1300 O.3        1 BB1          0.0000
    10 H10       25.8050    38.5933    38.7273 H          1 BB1          0.0000
    11 H11       25.9217    37.0537    37.8417 H          1 BB1          0.0000
    12 H12       24.6996    37.2547    39.1201 H          1 BB1          0.0000
    13 H13       25.3295    37.1883    41.4627 H          1 BB1          0.0000
    14 H14       26.9284    36.3520    43.1338 H          1 BB1          0.0000
    15 H15       29.1979    35.6886    42.4496 H          1 BB1          0.0000
    16 C1        32.1060    38.1833    34.0007 C.3        2 BB2          0.0000
    17 O2        32.1362    38.1355    35.4516 O.3        2 BB2          0.0000
    18 C3        32.6012    37.0092    36.0147 C.2        2 BB2          0.0000
    19 O4        32.9905    36.1018    35.3183 O.2        2 BB2          0.0000
    20 C5        32.6379    36.8766    37.5154 C.3        2 BB2          0.0000
    21 N6        31.9900    35.6236    37.9109 N.pl3      2 BB2          0.0000
    22 C7        32.4321    34.3835    37.6178 C.2        2 BB2          0.0000
    23 C8        31.5781    33.4723    38.1473 C.2        2 BB2          0.0000
    24 C9        30.5583    34.1678    38.7991 C.2        2 BB2          0.0000
    25 C10       30.8306    35.5167    38.6491 C.2        2 BB2          0.0000
    26 C11       30.0570    36.5875    39.1521 C.2        2 BB2          0.0000
    27 H13       31.7097    39.1457    33.6770 H          2 BB2          0.0000
    28 H14       33.1165    38.0571    33.6119 H          2 BB2          0.0000
    29 H15       31.4692    37.3829    33.6240 H          2 BB2          0.0000
    30 H16       33.6738    36.8728    37.8546 H          2 BB2          0.0000
    31 H17       32.1107    37.7167    37.9673 H          2 BB2          0.0000
    32 H18       33.3228    34.1531    37.0524 H          2 BB2          0.0000
    33 H19       31.6707    32.3985    38.0766 H          2 BB2          0.0000
    34 H20       29.7191    33.7356    39.3237 H          2 BB2          0.0000
@<TRIPOS>BOND
     1      1      2 1
     2      1     10 1
     3      1     11 1
     4      1     12 1
     5      2      3 ar
     6      2      8 ar
     7      3      4 ar
     8      3     13 1
     9      4      5 ar
    10      4     14 1
    11      5      6 ar
    12      5     15 1
    13      6      7 1
    14      6      8 ar
    15      8      9 1
    16     16     17 1
    17     16     27 1
    18     16     28 1
    19     16     29 1
    20     17     18 1
    21     18     19 2
    22     18     20 1
    23     20     21 1
    24     20     30 1
    25     20     31 1
    26     21     22 1
    27     21     25 1
    28     22     23 2
    29     22     32 1
    30     23     24 1
    31     23     33 1
    32     24     25 2
    33     24     34 1
    34     25     26 1
    35      7     26 2
    36      9     26 1
@<TRIPOS>SUBSTRUCTURE
     1 BB1           9
     2 BB2          26
@<TRIPOS>MOLECULE
EN300-78391_i001_EN300-104126_i001_10_3_27
  29   32   2   0   0
SMALL
USER_CHARGES
@<TRIPOS>ATOM
     1 C1        25.7124    37.5103    38.8091 C.3        1 BB1          0.0000
     2 C2        26.6958    36.9978    39.8296 C.ar       1 BB1          0.0000
     3 C3        26.3242    36.8979    41.1583 C.ar       1 BB1          0.0000
     4 C4        27.2228    36.4280    42.0975 C.ar       1 BB1          0.0000
     5 C5        28.4977    36.0552    41.7136 C.ar       1 BB1          0.0000
     6 C6        28.8772    36.1526    40.3833 C.ar       1 BB1          0.0000
     7 N7        30.1672    35.7760    39.9922 N.2        1 BB1          0.0000
     8 C8        27.9689    36.6216    39.4361 C.ar       1 BB1          0.0000
     9 O9        28.3354    36.7193    38.1300 O.3        1 BB1          0.0000
    10 H10       25.8050    38.5933    38.7273 H          1 BB1          0.0000
    11 H11       25.9217    37.0537    37.8417 H          1 BB1          0.0000
    12 H12       24.6996    37.2547    39.1201 H          1 BB1          0.0000
    13 H13       25.3295    37.1883    41.4627 H          1 BB1          0.0000
    14 H14       26.9284    36.3520    43.1338 H          1 BB1          0.0000
    15 H15       29.1979    35.6886    42.4496 H          1 BB1          0.0000
    16 C2        29.6763    37.0906    38.7134 C.2        2 BB2          0.0000
    17 C3        30.8165    36.4318    38.1879 C.2        2 BB2          0.0000
    18 C4        31.4619    35.3374    38.7247 C.2        2 BB2          0.0000
    19 N5        32.5033    34.9966    37.9414 N.pl3      2 BB2          0.0000
    20 C6        32.5964    35.8415    36.8581 C.ar       2 BB2          0.0000
    21 N7        33.4345    35.9088    35.8315 N.ar       2 BB2          0.0000
    22 C8        33.2814    36.8480    34.9169 C.ar       2 BB2          0.0000
    23 C9        32.2502    37.7694    35.0166 C.ar       2 BB2          0.0000
    24 N10       31.4073    37.7174    36.0314 N.ar       2 BB2          0.0000
    25 C11       31.5474    36.7748    36.9534 C.ar       2 BB2          0.0000
    26 H13       31.1761    34.8311    39.6349 H          2 BB2          0.0000
    27 H14       33.9660    36.8994    34.0832 H          2 BB2          0.0000
    28 H15       32.1363    38.5328    34.2612 H          2 BB2          0.0000
    29 H16       33.1059    34.2570    38.1168 H          2 BB2          0.0000
@<TRIPOS>BOND
     1      1      2 1
     2      1     10 1
     3      1     11 1
     4      1     12 1
     5      2      3 ar
     6      2      8 ar
     7      3      4 ar
     8      3     13 1
     9      4      5 ar
    10      4     14 1
    11      5      6 ar
    12      5     15 1
    13      6      7 1
    14      6      8 ar
    15      8      9 1
    16     16     17 1
    17     17     18 2
    18     17     25 1
    19     18     19 1
    20     18     26 1
    21     19     20 1
    22     19     29 1
    23     20     21 ar
    24     20     25 ar
    25     21     22 ar
    26     22     23 ar
    27     22     27 1
    28     23     24 ar
    29     23     28 1
    30     24     25 ar
    31      7     16 2
    32      9     16 1
@<TRIPOS>SUBSTRUCTURE
     1 BB1           9
     2 BB2          16
@<TRIPOS>MOLECULE
EN300-7549830_i001_EN300-76468_i001_11_15_27
  30   33   2   0   0
SMALL
USER_CHARGES
@<TRIPOS>ATOM
     1 C1        25.4984    37.3226    39.1002 C.3        1 BB1          0.0000
     2 C2        26.8257    36.7879    39.5731 C.ar       1 BB1          0.0000
     3 C3        26.9049    36.0832    40.7654 C.ar       1 BB1          0.0000
     4 O4        25.7842    35.8747    41.5070 O.3        1 BB1          0.0000
     5 C5        28.1254    35.5907    41.2015 C.ar       1 BB1          0.0000
     6 C6        29.2666    35.8006    40.4495 C.ar       1 BB1          0.0000
     7 C7        29.1924    36.5046    39.2575 C.ar       1 BB1          0.0000
     8 N8        30.3497    36.7175    38.4949 N.2        1 BB1          0.0000
     9 C9        27.9656    36.9948    38.8149 C.ar       1 BB1          0.0000
    10 O10       27.8898    37.6854    37.6457 O.3        1 BB1          0.0000
    11 H11       25.3513    38.3286    39.4931 H          1 BB1          0.0000
    12 H12       25.4863    37.3527    38.0107 H          1 BB1          0.0000
    13 H13       24.6980    36.6734    39.4548 H          1 BB1          0.0000
    14 H14       28.1849    35.0427    42.1301 H          1 BB1          0.0000
    15 H15       30.2164    35.4161    40.7910 H          1 BB1          0.0000
    16 H16       25.9446    35.4108    42.3401 H          1 BB1          0.0000
    17 C2        29.0599    37.8977    37.9044 C.2        2 BB2          0.0000
    18 C3        29.9631    38.2444    36.8749 C.2        2 BB2          0.0000
    19 C4        29.9322    39.4140    36.0874 C.2        2 BB2          0.0000
    20 N5        30.9282    39.3768    35.2443 N.2        2 BB2          0.0000
    21 N6        31.6576    38.1974    35.4293 N.pl3      2 BB2          0.0000
    22 C7        32.7648    37.7014    34.8086 C.2        2 BB2          0.0000
    23 C8        33.2656    36.5032    35.2063 C.2        2 BB2          0.0000
    24 C9        32.6344    35.8065    36.2422 C.2        2 BB2          0.0000
    25 N10       31.5665    36.3115    36.8216 N.2        2 BB2          0.0000
    26 C11       31.0746    37.4896    36.4402 C.2        2 BB2          0.0000
    27 H13       29.2050    40.2084    36.1682 H          2 BB2          0.0000
    28 H14       33.2380    38.2541    34.0104 H          2 BB2          0.0000
    29 H15       34.1420    36.0922    34.7274 H          2 BB2          0.0000
    30 H16       33.0239    34.8527    36.5666 H          2 BB2          0.0000
@<TRIPOS>BOND
     1      1      2 1
     2      1     11 1
     3      1     12 1
     4      1     13 1
     5      2      3 ar
     6      2      9 ar
     7      3      4 1
     8      3      5 ar
     9      4     16 1
    10      5      6 ar
    11      5     14 1
    12      6      7 ar
    13      6     15 1
    14      7      8 1
    15      7      9 ar
    16      9     10 1
    17     17     18 1
    18     18     19 1
    19     18     26 2
    20     19     20 2
    21     19     27 1
    22     20     21 1
    23     21     22 1
    24     21     26 1
    25     22     23 2
    26     22     28 1
    27     23     24 1
    28     23     29 1
    29     24     25 2
    30     24     30 1
    31     25     26 1
    32      8     17 2
    33     10     17 1
@<TRIPOS>SUBSTRUCTURE
     1 BB1          10
     2 BB2          17
@<TRIPOS>MOLECULE
EN300-7549830_i001_EN300-83792_i001_11_19_27
  33   36   2   0   0
SMALL
USER_CHARGES
@<TRIPOS>ATOM
     1 C1        25.4984    37.3226    39.1002 C.3        1 BB1          0.0000
     2 C2        26.8257    36.7879    39.5731 C.ar       1 BB1          0.0000
     3 C3        26.9049    36.0832    40.7654 C.ar       1 BB1          0.0000
     4 O4        25.7842    35.8747    41.5070 O.3        1 BB1          0.0000
     5 C5        28.1254    35.5907    41.2015 C.ar       1 BB1          0.0000
     6 C6        29.2666    35.8006    40.4495 C.ar       1 BB1          0.0000
     7 C7        29.1924    36.5046    39.2575 C.ar       1 BB1          0.0000
     8 N8        30.3497    36.7175    38.4949 N.2        1 BB1          0.0000
     9 C9        27.9656    36.9948    38.8149 C.ar       1 BB1          0.0000
    10 O10       27.8898    37.6854    37.6457 O.3        1 BB1          0.0000
    11 H11       25.3513    38.3286    39.4931 H          1 BB1          0.0000
    12 H12       25.4863    37.3527    38.0107 H          1 BB1          0.0000
    13 H13       24.6980    36.6734    39.4548 H          1 BB1          0.0000
    14 H14       28.1849    35.0427    42.1301 H          1 BB1          0.0000
    15 H15       30.2164    35.4161    40.7910 H          1 BB1          0.0000
    16 H16       25.9446    35.4108    42.3401 H          1 BB1          0.0000
    17 C2        29.2738    37.3066    38.0893 C.2        2 BB2          0.0000
    18 C3        30.5834    36.7691    37.6843 C.ar       2 BB2          0.0000
    19 N4        31.2140    35.9020    38.4608 N.ar       2 BB2          0.0000
    20 C5        32.3882    35.3887    38.1479 C.ar       2 BB2          0.0000
    21 C6        33.0419    35.7240    36.9817 C.ar       2 BB2          0.0000
    22 C7        32.4353    36.6394    36.1050 C.ar       2 BB2          0.0000
    23 C8        33.0375    37.0313    34.8994 C.ar       2 BB2          0.0000
    24 C9        32.3997    37.9230    34.0912 C.ar       2 BB2          0.0000
    25 C10       31.1594    38.4517    34.4442 C.ar       2 BB2          0.0000
    26 C11       30.5470    38.0930    35.6077 C.ar       2 BB2          0.0000
    27 C12       31.1691    37.1735    36.4608 C.ar       2 BB2          0.0000
    28 H14       32.8507    34.6859    38.8251 H          2 BB2          0.0000
    29 H15       34.0030    35.2913    36.7463 H          2 BB2          0.0000
    30 H16       33.9986    36.6293    34.6151 H          2 BB2          0.0000
    31 H17       32.8623    38.2253    33.1632 H          2 BB2          0.0000
    32 H18       30.6758    39.1574    33.7849 H          2 BB2          0.0000
    33 H19       29.5859    38.5117    35.8676 H          2 BB2          0.0000
@<TRIPOS>BOND
     1      1      2 1
     2      1     11 1
     3      1     12 1
     4      1     13 1
     5      2      3 ar
     6      2      9 ar
     7      3      4 1
     8      3      5 ar
     9      4     16 1
    10      5      6 ar
    11      5     14 1
    12      6      7 ar
    13      6     15 1
    14      7      8 1
    15      7      9 ar
    16      9     10 1
    17     17     18 1
    18     18     19 ar
    19     18     27 ar
    20     19     20 ar
    21     20     21 ar
    22     20     28 1
    23     21     22 ar
    24     21     29 1
    25     22     23 ar
    26     22     27 ar
    27     23     24 ar
    28     23     30 1
    29     24     25 ar
    30     24     31 1
    31     25     26 ar
    32     25     32 1
    33     26     27 ar
    34     26     33 1
    35      8     17 2
    36     10     17 1
@<TRIPOS>SUBSTRUCTURE
     1 BB1          10
     2 BB2          17
@<TRIPOS>MOLECULE
EN300-7549830_i001_EN300-18990_i001_12_11_27
  25   27   2   0   0
SMALL
USER_CHARGES
@<TRIPOS>ATOM
     1 C1        30.6837    37.9943    34.8610 C.3        1 BB1          0.0000
     2 C2        31.3747    37.0661    35.8264 C.ar       1 BB1          0.0000
     3 C3        32.5570    36.4392    35.4608 C.ar       1 BB1          0.0000
     4 O4        33.0924    36.6631    34.2309 O.3        1 BB1          0.0000
     5 C5        33.1937    35.5851    36.3482 C.ar       1 BB1          0.0000
     6 C6        32.6521    35.3558    37.5995 C.ar       1 BB1          0.0000
     7 C7        31.4706    35.9797    37.9693 C.ar       1 BB1          0.0000
     8 N8        30.9213    35.7471    39.2383 N.2        1 BB1          0.0000
     9 C9        30.8329    36.8430    37.0809 C.ar       1 BB1          0.0000
    10 O10       29.6739    37.4567    37.4411 O.3        1 BB1          0.0000
    11 H11       29.9809    37.4265    34.2512 H          1 BB1          0.0000
    12 H12       30.1450    38.7615    35.4171 H          1 BB1          0.0000
    13 H13       31.4254    38.4660    34.2165 H          1 BB1          0.0000
    14 H14       34.1138    35.0979    36.0614 H          1 BB1          0.0000
    15 H15       33.1497    34.6901    38.2893 H          1 BB1          0.0000
    16 H16       32.5477    36.3399    33.5001 H          1 BB1          0.0000
    17 C2        29.2537    36.2421    39.6992 C.2        2 BB2          0.0000
    18 C3        27.8787    36.5567    39.7706 C.2        2 BB2          0.0000
    19 C4        27.1148    37.0282    38.7331 C.2        2 BB2          0.0000
    20 C5        25.8065    37.2503    39.0815 C.2        2 BB2          0.0000
    21 C6        25.5017    36.9730    40.3567 C.2        2 BB2          0.0000
    22 S7        26.8688    36.3999    41.2013 S.3        2 BB2          0.0000
    23 H9        27.5043    37.2070    37.7419 H          2 BB2          0.0000
    24 H10       25.0752    37.6220    38.3789 H          2 BB2          0.0000
    25 H11       24.5200    37.0920    40.7909 H          2 BB2          0.0000
@<TRIPOS>BOND
     1      1      2 1
     2      1     11 1
     3      1     12 1
     4      1     13 1
     5      2      3 ar
     6      2      9 ar
     7      3      4 1
     8      3      5 ar
     9      4     16 1
    10      5      6 ar
    11      5     14 1
    12      6      7 ar
    13      6     15 1
    14      7      8 1
    15      7      9 ar
    16      9     10 1
    17     17     18 1
    18     18     19 2
    19     18     22 1
    20     19     20 1
    21     19     23 1
    22     20     21 2
    23     20     24 1
    24     21     22 1
    25     21     25 1
    26      8     17 2
    27     10     17 1
@<TRIPOS>SUBSTRUCTURE
     1 BB1          10
     2 BB2          17
@<TRIPOS>MOLECULE
EN300-7549830_i001_EN300-18990_i001_12_2_27
  25   27   2   0   0
SMALL
USER_CHARGES
@<TRIPOS>ATOM
     1 C1        30.6837    37.9943    34.8610 C.3        1 BB1          0.0000
     2 C2        31.3747    37.0661    35.8264 C.ar       1 BB1          0.0000
     3 C3        32.5570    36.4392    35.4608 C.ar       1 BB1          0.0000
     4 O4        33.0924    36.6631    34.2309 O.3        1 BB1          0.0000
     5 C5        33.1937    35.5851    36.3482 C.ar       1 BB1          0.0000
     6 C6        32.6521    35.3558    37.5995 C.ar       1 BB1          0.0000
     7 C7        31.4706    35.9797    37.9693 C.ar       1 BB1          0.0000
     8 N8        30.9213    35.7471    39.2383 N.2        1 BB1          0.0000
     9 C9        30.8329    36.8430    37.0809 C.ar       1 BB1          0.0000
    10 O10       29.6739    37.4567    37.4411 O.3        1 BB1          0.0000
    11 H11       29.9809    37.4265    34.2512 H          1 BB1          0.0000
    12 H12       30.1450    38.7615    35.4171 H          1 BB1          0.0000
    13 H13       31.4254    38.4660    34.2165 H          1 BB1          0.0000
    14 H14       34.1138    35.0979    36.0614 H          1 BB1          0.0000
    15 H15       33.1497    34.6901    38.2893 H          1 BB1          0.0000
    16 H16       32.5477    36.3399    33.5001 H          1 BB1          0.0000
    17 C2        29.1518    36.9995    38.3491 C.2        2 BB2          0.0000
    18 C3        28.0128    36.8098    39.1624 C.2        2 BB2          0.0000
    19 C4        26.7129    37.0079    38.7710 C.2        2 BB2          0.0000
    20 C5        25.8029    36.7484    39.7644 C.2        2 BB2          0.0000
    21 C6        26.3306    36.3515    40.9307 C.2        2 BB2          0.0000
    22 S7        28.0324    36.2745    40.8371 S.3        2 BB2          0.0000
    23 H9        26.4340    37.3356    37.7805 H          2 BB2          0.0000
    24 H10       24.7384    36.8565    39.6173 H          2 BB2          0.0000
    25 H11       25.7547    36.1081    41.8113 H          2 BB2          0.0000
@<TRIPOS>BOND
     1      1      2 1
     2      1     11 1
     3      1     12 1
     4      1     13 1
     5      2      3 ar
     6      2      9 ar
     7      3      4 1
     8      3      5 ar
     9      4     16 1
    10      5      6 ar
    11      5     14 1
    12      6      7 ar
    13      6     15 1
    14      7      8 1
    15      7      9 ar
    16      9     10 1
    17     17     18 1
    18     18     19 2
    19     18     22 1
    20     19     20 1
    21     19     23 1
    22     20     21 2
    23     20     24 1
    24     21     22 1
    25     21     25 1
    26      8     17 2
    27     10     17 1
@<TRIPOS>SUBSTRUCTURE
     1 BB1          10
     2 BB2          17
@<TRIPOS>MOLECULE
EN300-7549830_i001_EN300-18990_i001_12_3_27
  25   27   2   0   0
SMALL
USER_CHARGES
@<TRIPOS>ATOM
     1 C1        30.6837    37.9943    34.8610 C.3        1 BB1          0.0000
     2 C2        31.3747    37.0661    35.8264 C.ar       1 BB1          0.0000
     3 C3        32.5570    36.4392    35.4608 C.ar       1 BB1          0.0000
     4 O4        33.0924    36.6631    34.2309 O.3        1 BB1          0.0000
     5 C5        33.1937    35.5851    36.3482 C.ar       1 BB1          0.0000
     6 C6        32.6521    35.3558    37.5995 C.ar       1 BB1          0.0000
     7 C7        31.4706    35.9797    37.9693 C.ar       1 BB1          0.0000
     8 N8        30.9213    35.7471    39.2383 N.2        1 BB1          0.0000
     9 C9        30.8329    36.8430    37.0809 C.ar       1 BB1          0.0000
    10 O10       29.6739    37.4567    37.4411 O.3        1 BB1          0.0000
    11 H11       29.9809    37.4265    34.2512 H          1 BB1          0.0000
    12 H12       30.1450    38.7615    35.4171 H          1 BB1          0.0000
    13 H13       31.4254    38.4660    34.2165 H          1 BB1          0.0000
    14 H14       34.1138    35.0979    36.0614 H          1 BB1          0.0000
    15 H15       33.1497    34.6901    38.2893 H          1 BB1          0.0000
    16 H16       32.5477    36.3399    33.5001 H          1 BB1          0.0000
    17 C2        29.4486    36.0021    39.7439 C.2        2 BB2          0.0000
    18 C3        28.1009    36.3373    40.0009 C.2        2 BB2          0.0000
    19 C4        27.5216    36.4117    41.2423 C.2        2 BB2          0.0000
    20 C5        26.1952    36.7596    41.2008 C.2        2 BB2          0.0000
    21 C6        25.6983    36.9646    39.9731 C.2        2 BB2          0.0000
    22 S7        26.8975    36.7336    38.7817 S.3        2 BB2          0.0000
    23 H9        28.0561    36.2156    42.1600 H          2 BB2          0.0000
    24 H10       25.5948    36.8607    42.0928 H          2 BB2          0.0000
    25 H11       24.6758    37.2436    39.7658 H          2 BB2          0.0000
@<TRIPOS>BOND
     1      1      2 1
     2      1     11 1
     3      1     12 1
     4      1     13 1
     5      2      3 ar
     6      2      9 ar
     7      3      4 1
     8      3      5 ar
     9      4     16 1
    10      5      6 ar
    11      5     14 1
    12      6      7 ar
    13      6     15 1
    14      7      8 1
    15      7      9 ar
    16      9     10 1
    17     17     18 1
    18     18     19 2
    19     18     22 1
    20     19     20 1
    21     19     23 1
    22     20     21 2
    23     20     24 1
    24     21     22 1
    25     21     25 1
    26      8     17 2
    27     10     17 1
@<TRIPOS>SUBSTRUCTURE
     1 BB1          10
     2 BB2          17
@<TRIPOS>MOLECULE
EN300-7549830_i001_EN300-18990_i001_13_12_27
  25   27   2   0   0
SMALL
USER_CHARGES
@<TRIPOS>ATOM
     1 C1        32.9176    35.8982    36.8715 C.3        1 BB1          0.0000
     2 C2        32.2179    36.9496    36.0493 C.ar       1 BB1          0.0000
     3 C3        32.7187    37.3047    34.8052 C.ar       1 BB1          0.0000
     4 O4        33.8409    36.7030    34.3278 O.3        1 BB1          0.0000
     5 C5        32.0758    38.2719    34.0478 C.ar       1 BB1          0.0000
     6 C6        30.9343    38.8851    34.5303 C.ar       1 BB1          0.0000
     7 C7        30.4304    38.5339    35.7732 C.ar       1 BB1          0.0000
     8 N8        29.2728    39.1558    36.2625 N.2        1 BB1          0.0000
     9 C9        31.0719    37.5577    36.5327 C.ar       1 BB1          0.0000
    10 O10       30.5795    37.2110    37.7522 O.3        1 BB1          0.0000
    11 H11       33.6632    36.3726    37.5096 H          1 BB1          0.0000
    12 H12       32.1881    35.3765    37.4910 H          1 BB1          0.0000
    13 H13       33.4076    35.1851    36.2086 H          1 BB1          0.0000
    14 H14       32.4675    38.5470    33.0798 H          1 BB1          0.0000
    15 H15       30.4351    39.6383    33.9387 H          1 BB1          0.0000
    16 H16       34.4085    37.2868    33.8060 H          1 BB1          0.0000
    17 C2        29.0931    37.5734    38.1617 C.2        2 BB2          0.0000
    18 C3        28.4599    36.9064    39.2336 C.2        2 BB2          0.0000
    19 C4        29.1014    36.2604    40.2599 C.2        2 BB2          0.0000
    20 C5        28.2404    35.6975    41.1675 C.2        2 BB2          0.0000
    21 C6        26.9384    35.8718    40.9014 C.2        2 BB2          0.0000
    22 S7        26.7226    36.7769    39.4714 S.3        2 BB2          0.0000
    23 H9        30.1764    36.2007    40.3445 H          2 BB2          0.0000
    24 H10       28.5865    35.1530    42.0337 H          2 BB2          0.0000
    25 H11       26.1330    35.4936    41.5135 H          2 BB2          0.0000
@<TRIPOS>BOND
     1      1      2 1
     2      1     11 1
     3      1     12 1
     4      1     13 1
     5      2      3 ar
     6      2      9 ar
     7      3      4 1
     8      3      5 ar
     9      4     16 1
    10      5      6 ar
    11      5     14 1
    12      6      7 ar
    13      6     15 1
    14      7      8 1
    15      7      9 ar
    16      9     10 1
    17     17     18 1
    18     18     19 2
    19     18     22 1
    20     19     20 1
    21     19     23 1
    22     20     21 2
    23     20     24 1
    24     21     22 1
    25     21     25 1
    26      8     17 2
    27     10     17 1
@<TRIPOS>SUBSTRUCTURE
     1 BB1          10
     2 BB2          17
@<TRIPOS>MOLECULE
EN300-7549830_i001_EN300-18990_i001_13_15_27
  25   27   2   0   0
SMALL
USER_CHARGES
@<TRIPOS>ATOM
     1 C1        32.9176    35.8982    36.8715 C.3        1 BB1          0.0000
     2 C2        32.2179    36.9496    36.0493 C.ar       1 BB1          0.0000
     3 C3        32.7187    37.3047    34.8052 C.ar       1 BB1          0.0000
     4 O4        33.8409    36.7030    34.3278 O.3        1 BB1          0.0000
     5 C5        32.0758    38.2719    34.0478 C.ar       1 BB1          0.0000
     6 C6        30.9343    38.8851    34.5303 C.ar       1 BB1          0.0000
     7 C7        30.4304    38.5339    35.7732 C.ar       1 BB1          0.0000
     8 N8        29.2728    39.1558    36.2625 N.2        1 BB1          0.0000
     9 C9        31.0719    37.5577    36.5327 C.ar       1 BB1          0.0000
    10 O10       30.5795    37.2110    37.7522 O.3        1 BB1          0.0000
    11 H11       33.6632    36.3726    37.5096 H          1 BB1          0.0000
    12 H12       32.1881    35.3765    37.4910 H          1 BB1          0.0000
    13 H13       33.4076    35.1851    36.2086 H          1 BB1          0.0000
    14 H14       32.4675    38.5470    33.0798 H          1 BB1          0.0000
    15 H15       30.4351    39.6383    33.9387 H          1 BB1          0.0000
    16 H16       34.4085    37.2868    33.8060 H          1 BB1          0.0000
    17 C2        28.7197    37.3211    37.5666 C.2        2 BB2          0.0000
    18 C3        27.9568    36.8336    38.6506 C.2        2 BB2          0.0000
    19 C4        26.6006    36.9781    38.7987 C.2        2 BB2          0.0000
    20 C5        26.1175    36.4061    39.9483 C.2        2 BB2          0.0000
    21 C6        27.0387    35.8122    40.7196 C.2        2 BB2          0.0000
    22 S7        28.5914    35.9372    40.0237 S.3        2 BB2          0.0000
    23 H9        25.9761    37.4911    38.0823 H          2 BB2          0.0000
    24 H10       25.0707    36.4327    40.2127 H          2 BB2          0.0000
    25 H11       26.8257    35.3164    41.6551 H          2 BB2          0.0000
@<TRIPOS>BOND
     1      1      2 1
     2      1     11 1
     3      1     12 1
     4      1     13 1
     5      2      3 ar
     6      2      9 ar
     7      3      4 1
     8      3      5 ar
     9      4     16 1
    10      5      6 ar
    11      5     14 1
    12      6      7 ar
    13      6     15 1
    14      7      8 1
    15      7      9 ar
    16      9     10 1
    17     17     18 1
    18     18     19 2
    19     18     22 1
    20     19     20 1
    21     19     23 1
    22     20     21 2
    23     20     24 1
    24     21     22 1
    25     21     25 1
    26      8     17 2
    27     10     17 1
@<TRIPOS>SUBSTRUCTURE
     1 BB1          10
     2 BB2          17
@<TRIPOS>MOLECULE
EN300-7549830_i001_EN300-18990_i001_13_16_27
  25   27   2   0   0
SMALL
USER_CHARGES
@<TRIPOS>ATOM
     1 C1        32.9176    35.8982    36.8715 C.3        1 BB1          0.0000
     2 C2        32.2179    36.9496    36.0493 C.ar       1 BB1          0.0000
     3 C3        32.7187    37.3047    34.8052 C.ar       1 BB1          0.0000
     4 O4        33.8409    36.7030    34.3278 O.3        1 BB1          0.0000
     5 C5        32.0758    38.2719    34.0478 C.ar       1 BB1          0.0000
     6 C6        30.9343    38.8851    34.5303 C.ar       1 BB1          0.0000
     7 C7        30.4304    38.5339    35.7732 C.ar       1 BB1          0.0000
     8 N8        29.2728    39.1558    36.2625 N.2        1 BB1          0.0000
     9 C9        31.0719    37.5577    36.5327 C.ar       1 BB1          0.0000
    10 O10       30.5795    37.2110    37.7522 O.3        1 BB1          0.0000
    11 H11       33.6632    36.3726    37.5096 H          1 BB1          0.0000
    12 H12       32.1881    35.3765    37.4910 H          1 BB1          0.0000
    13 H13       33.4076    35.1851    36.2086 H          1 BB1          0.0000
    14 H14       32.4675    38.5470    33.0798 H          1 BB1          0.0000
    15 H15       30.4351    39.6383    33.9387 H          1 BB1          0.0000
    16 H16       34.4085    37.2868    33.8060 H          1 BB1          0.0000
    17 C2        28.9538    37.3204    37.9905 C.2        2 BB2          0.0000
    18 C3        28.3086    36.9688    39.1968 C.2        2 BB2          0.0000
    19 C4        26.9613    36.7591    39.3474 C.2        2 BB2          0.0000
    20 C5        26.6049    36.4284    40.6303 C.2        2 BB2          0.0000
    21 C6        27.6184    36.3672    41.5051 C.2        2 BB2          0.0000
    22 S7        29.1042    36.7220    40.7452 S.3        2 BB2          0.0000
    23 H9        26.2522    36.8462    38.5375 H          2 BB2          0.0000
    24 H10       25.5817    36.2319    40.9148 H          2 BB2          0.0000
    25 H11       27.5096    36.1213    42.5511 H          2 BB2          0.0000
@<TRIPOS>BOND
     1      1      2 1
     2      1     11 1
     3      1     12 1
     4      1     13 1
     5      2      3 ar
     6      2      9 ar
     7      3      4 1
     8      3      5 ar
     9      4     16 1
    10      5      6 ar
    11      5     14 1
    12      6      7 ar
    13      6     15 1
    14      7      8 1
    15      7      9 ar
    16      9     10 1
    17     17     18 1
    18     18     19 2
    19     18     22 1
    20     19     20 1
    21     19     23 1
    22     20     21 2
    23     20     24 1
    24     21     22 1
    25     21     25 1
    26      8     17 2
    27     10     17 1
@<TRIPOS>SUBSTRUCTURE
     1 BB1          10
     2 BB2          17
@<TRIPOS>MOLECULE
EN300-7549830_i001_EN300-18990_i001_13_4_27
  25   27   2   0   0
SMALL
USER_CHARGES
@<TRIPOS>ATOM
     1 C1        32.9176    35.8982    36.8715 C.3        1 BB1          0.0000
     2 C2        32.2179    36.9496    36.0493 C.ar       1 BB1          0.0000
     3 C3        32.7187    37.3047    34.8052 C.ar       1 BB1          0.0000
     4 O4        33.8409    36.7030    34.3278 O.3        1 BB1          0.0000
     5 C5        32.0758    38.2719    34.0478 C.ar       1 BB1          0.0000
     6 C6        30.9343    38.8851    34.5303 C.ar       1 BB1          0.0000
     7 C7        30.4304    38.5339    35.7732 C.ar       1 BB1          0.0000
     8 N8        29.2728    39.1558    36.2625 N.2        1 BB1          0.0000
     9 C9        31.0719    37.5577    36.5327 C.ar       1 BB1          0.0000
    10 O10       30.5795    37.2110    37.7522 O.3        1 BB1          0.0000
    11 H11       33.6632    36.3726    37.5096 H          1 BB1          0.0000
    12 H12       32.1881    35.3765    37.4910 H          1 BB1          0.0000
    13 H13       33.4076    35.1851    36.2086 H          1 BB1          0.0000
    14 H14       32.4675    38.5470    33.0798 H          1 BB1          0.0000
    15 H15       30.4351    39.6383    33.9387 H          1 BB1          0.0000
    16 H16       34.4085    37.2868    33.8060 H          1 BB1          0.0000
    17 C2        29.3523    37.1673    38.1401 C.2        2 BB2          0.0000
    18 C3        28.6277    36.6944    39.2564 C.2        2 BB2          0.0000
    19 C4        29.1072    36.6092    40.5390 C.2        2 BB2          0.0000
    20 C5        28.1882    36.1129    41.4286 C.2        2 BB2          0.0000
    21 C6        26.9963    35.8005    40.9015 C.2        2 BB2          0.0000
    22 S7        26.9637    36.1272    39.2273 S.3        2 BB2          0.0000
    23 H9        30.1077    36.9028    40.8200 H          2 BB2          0.0000
    24 H10       28.4093    35.9831    42.4778 H          2 BB2          0.0000
    25 H11       26.1652    35.3997    41.4628 H          2 BB2          0.0000
@<TRIPOS>BOND
     1      1      2 1
     2      1     11 1
     3      1     12 1
     4      1     13 1
     5      2      3 ar
     6      2      9 ar
     7      3      4 1
     8      3      5 ar
     9      4     16 1
    10      5      6 ar
    11      5     14 1
    12      6      7 ar
    13      6     15 1
    14      7      8 1
    15      7      9 ar
    16      9     10 1
    17     17     18 1
    18     18     19 2
    19     18     22 1
    20     19     20 1
    21     19     23 1
    22     20     21 2
    23     20     24 1
    24     21     22 1
    25     21     25 1
    26      8     17 2
    27     10     17 1
@<TRIPOS>SUBSTRUCTURE
     1 BB1          10
     2 BB2          17
@<TRIPOS>MOLECULE
EN300-7549830_i001_EN300-18990_i001_13_7_27
  25   27   2   0   0
SMALL
USER_CHARGES
@<TRIPOS>ATOM
     1 C1        32.9176    35.8982    36.8715 C.3        1 BB1          0.0000
     2 C2        32.2179    36.9496    36.0493 C.ar       1 BB1          0.0000
     3 C3        32.7187    37.3047    34.8052 C.ar       1 BB1          0.0000
     4 O4        33.8409    36.7030    34.3278 O.3        1 BB1          0.0000
     5 C5        32.0758    38.2719    34.0478 C.ar       1 BB1          0.0000
     6 C6        30.9343    38.8851    34.5303 C.ar       1 BB1          0.0000
     7 C7        30.4304    38.5339    35.7732 C.ar       1 BB1          0.0000
     8 N8        29.2728    39.1558    36.2625 N.2        1 BB1          0.0000
     9 C9        31.0719    37.5577    36.5327 C.ar       1 BB1          0.0000
    10 O10       30.5795    37.2110    37.7522 O.3        1 BB1          0.0000
    11 H11       33.6632    36.3726    37.5096 H          1 BB1          0.0000
    12 H12       32.1881    35.3765    37.4910 H          1 BB1          0.0000
    13 H13       33.4076    35.1851    36.2086 H          1 BB1          0.0000
    14 H14       32.4675    38.5470    33.0798 H          1 BB1          0.0000
    15 H15       30.4351    39.6383    33.9387 H          1 BB1          0.0000
    16 H16       34.4085    37.2868    33.8060 H          1 BB1          0.0000
    17 C2        29.0819    37.2854    38.2007 C.2        2 BB2          0.0000
    18 C3        27.9826    36.9818    39.0338 C.2        2 BB2          0.0000
    19 C4        28.0339    36.2209    40.1742 C.2        2 BB2          0.0000
    20 C5        26.8156    36.0862    40.7904 C.2        2 BB2          0.0000
    21 C6        25.7978    36.7115    40.1828 C.2        2 BB2          0.0000
    22 S7        26.3295    37.5245    38.7803 S.3        2 BB2          0.0000
    23 H9        28.9421    35.7725    40.5489 H          2 BB2          0.0000
    24 H10       26.6860    35.5172    41.6993 H          2 BB2          0.0000
    25 H11       24.7774    36.7054    40.5366 H          2 BB2          0.0000
@<TRIPOS>BOND
     1      1      2 1
     2      1     11 1
     3      1     12 1
     4      1     13 1
     5      2      3 ar
     6      2      9 ar
     7      3      4 1
     8      3      5 ar
     9      4     16 1
    10      5      6 ar
    11      5     14 1
    12      6      7 ar
    13      6     15 1
    14      7      8 1
    15      7      9 ar
    16      9     10 1
    17     17     18 1
    18     18     19 2
    19     18     22 1
    20     19     20 1
    21     19     23 1
    22     20     21 2
    23     20     24 1
    24     21     22 1
    25     21     25 1
    26      8     17 2
    27     10     17 1
@<TRIPOS>SUBSTRUCTURE
     1 BB1          10
     2 BB2          17
@<TRIPOS>MOLECULE
EN300-7549830_i001_EN300-76468_i001_13_20_27
  30   33   2   0   0
SMALL
USER_CHARGES
@<TRIPOS>ATOM
     1 C1        32.9176    35.8982    36.8715 C.3        1 BB1          0.0000
     2 C2        32.2179    36.9496    36.0493 C.ar       1 BB1          0.0000
     3 C3        32.7187    37.3047    34.8052 C.ar       1 BB1          0.0000
     4 O4        33.8409    36.7030    34.3278 O.3        1 BB1          0.0000
     5 C5        32.0758    38.2719    34.0478 C.ar       1 BB1          0.0000
     6 C6        30.9343    38.8851    34.5303 C.ar       1 BB1          0.0000
     7 C7        30.4304    38.5339    35.7732 C.ar       1 BB1          0.0000
     8 N8        29.2728    39.1558    36.2625 N.2        1 BB1          0.0000
     9 C9        31.0719    37.5577    36.5327 C.ar       1 BB1          0.0000
    10 O10       30.5795    37.2110    37.7522 O.3        1 BB1          0.0000
    11 H11       33.6632    36.3726    37.5096 H          1 BB1          0.0000
    12 H12       32.1881    35.3765    37.4910 H          1 BB1          0.0000
    13 H13       33.4076    35.1851    36.2086 H          1 BB1          0.0000
    14 H14       32.4675    38.5470    33.0798 H          1 BB1          0.0000
    15 H15       30.4351    39.6383    33.9387 H          1 BB1          0.0000
    16 H16       34.4085    37.2868    33.8060 H          1 BB1          0.0000
    17 C2        28.5200    38.5519    37.0033 C.2        2 BB2          0.0000
    18 C3        28.7585    37.6159    38.0343 C.2        2 BB2          0.0000
    19 C4        29.9928    37.0136    38.3545 C.2        2 BB2          0.0000
    20 N5        29.8146    36.2067    39.3652 N.2        2 BB2          0.0000
    21 N6        28.4724    36.2345    39.7587 N.pl3      2 BB2          0.0000
    22 C7        27.7961    35.5817    40.7453 C.2        2 BB2          0.0000
    23 C8        26.4660    35.8096    40.8986 C.2        2 BB2          0.0000
    24 C9        25.8214    36.7077    40.0414 C.2        2 BB2          0.0000
    25 N10       26.5018    37.3224    39.0978 N.2        2 BB2          0.0000
    26 C11       27.8081    37.1078    38.9468 C.2        2 BB2          0.0000
    27 H13       30.9299    37.1902    37.8475 H          2 BB2          0.0000
    28 H14       28.3114    34.8916    41.3971 H          2 BB2          0.0000
    29 H15       25.9115    35.3022    41.6741 H          2 BB2          0.0000
    30 H16       24.7640    36.8966    40.1541 H          2 BB2          0.0000
@<TRIPOS>BOND
     1      1      2 1
     2      1     11 1
     3      1     12 1
     4      1     13 1
     5      2      3 ar
     6      2      9 ar
     7      3      4 1
     8      3      5 ar
     9      4     16 1
    10      5      6 ar
    11      5     14 1
    12      6      7 ar
    13      6     15 1
    14      7      8 1
    15      7      9 ar
    16      9     10 1
    17     17     18 1
    18     18     19 1
    19     18     26 2
    20     19     20 2
    21     19     27 1
    22     20     21 1
    23     21     22 1
    24     21     26 1
    25     22     23 2
    26     22     28 1
    27     23     24 1
    28     23     29 1
    29     24     25 2
    30     24     30 1
    31     25     26 1
    32      8     17 2
    33     10     17 1
@<TRIPOS>SUBSTRUCTURE
     1 BB1          10
     2 BB2          17
@<TRIPOS>MOLECULE
EN300-7549830_i001_EN300-114233_i001_13_5_27
  29   31   2   0   0
SMALL
USER_CHARGES
@<TRIPOS>ATOM
     1 C1        32.9176    35.8982    36.8715 C.3        1 BB1          0.0000
     2 C2        32.2179    36.9496    36.0493 C.ar       1 BB1          0.0000
     3 C3        32.7187    37.3047    34.8052 C.ar       1 BB1          0.0000
     4 O4        33.8409    36.7030    34.3278 O.3        1 BB1          0.0000
     5 C5        32.0758    38.2719    34.0478 C.ar       1 BB1          0.0000
     6 C6        30.9343    38.8851    34.5303 C.ar       1 BB1          0.0000
     7 C7        30.4304    38.5339    35.7732 C.ar       1 BB1          0.0000
     8 N8        29.2728    39.1558    36.2625 N.2        1 BB1          0.0000
     9 C9        31.0719    37.5577    36.5327 C.ar       1 BB1          0.0000
    10 O10       30.5795    37.2110    37.7522 O.3        1 BB1          0.0000
    11 H11       33.6632    36.3726    37.5096 H          1 BB1          0.0000
    12 H12       32.1881    35.3765    37.4910 H          1 BB1          0.0000
    13 H13       33.4076    35.1851    36.2086 H          1 BB1          0.0000
    14 H14       32.4675    38.5470    33.0798 H          1 BB1          0.0000
    15 H15       30.4351    39.6383    33.9387 H          1 BB1          0.0000
    16 H16       34.4085    37.2868    33.8060 H          1 BB1          0.0000
    17 C1        25.6293    37.0551    41.0027 C.3        2 BB2          0.0000
    18 O2        26.0784    36.4255    39.8011 O.3        2 BB2          0.0000
    19 C3        27.2997    36.7849    39.3379 C.2        2 BB2          0.0000
    20 S4        27.5983    37.4147    37.7808 S.3        2 BB2          0.0000
    21 C5        29.3196    37.5523    38.1106 C.2        2 BB2          0.0000
    22 C6        30.2838    38.0375    37.2099 C.2        2 BB2          0.0000
    23 C8        29.5743    37.1118    39.3871 C.2        2 BB2          0.0000
    24 C9        28.4533    36.6979    40.0534 C.2        2 BB2          0.0000
    25 Br10      28.5056    36.0425    41.8264 Br         2 BB2          0.0000
    26 H11       24.6399    36.6786    41.2623 H          2 BB2          0.0000
    27 H12       26.3260    36.8338    41.8113 H          2 BB2          0.0000
    28 H13       25.5794    38.1335    40.8511 H          2 BB2          0.0000
    29 H15       30.5624    37.0976    39.8232 H          2 BB2          0.0000
@<TRIPOS>BOND
     1      1      2 1
     2      1     11 1
     3      1     12 1
     4      1     13 1
     5      2      3 ar
     6      2      9 ar
     7      3      4 1
     8      3      5 ar
     9      4     16 1
    10      5      6 ar
    11      5     14 1
    12      6      7 ar
    13      6     15 1
    14      7      8 1
    15      7      9 ar
    16      9     10 1
    17     17     18 1
    18     17     26 1
    19     17     27 1
    20     17     28 1
    21     18     19 1
    22     19     20 1
    23     19     24 2
    24     20     21 1
    25     21     22 1
    26     21     23 2
    27     23     24 1
    28     23     29 1
    29     24     25 1
    30      8     22 2
    31     10     22 1
@<TRIPOS>SUBSTRUCTURE
     1 BB1          10
     2 BB2          22
@<TRIPOS>MOLECULE
EN300-7549830_i001_EN300-21300_i001_13_10_27
  28   30   2   0   0
SMALL
USER_CHARGES
@<TRIPOS>ATOM
     1 C1        32.9176    35.8982    36.8715 C.3        1 BB1          0.0000
     2 C2        32.2179    36.9496    36.0493 C.ar       1 BB1          0.0000
     3 C3        32.7187    37.3047    34.8052 C.ar       1 BB1          0.0000
     4 O4        33.8409    36.7030    34.3278 O.3        1 BB1          0.0000
     5 C5        32.0758    38.2719    34.0478 C.ar       1 BB1          0.0000
     6 C6        30.9343    38.8851    34.5303 C.ar       1 BB1          0.0000
     7 C7        30.4304    38.5339    35.7732 C.ar       1 BB1          0.0000
     8 N8        29.2728    39.1558    36.2625 N.2        1 BB1          0.0000
     9 C9        31.0719    37.5577    36.5327 C.ar       1 BB1          0.0000
    10 O10       30.5795    37.2110    37.7522 O.3        1 BB1          0.0000
    11 H11       33.6632    36.3726    37.5096 H          1 BB1          0.0000
    12 H12       32.1881    35.3765    37.4910 H          1 BB1          0.0000
    13 H13       33.4076    35.1851    36.2086 H          1 BB1          0.0000
    14 H14       32.4675    38.5470    33.0798 H          1 BB1          0.0000
    15 H15       30.4351    39.6383    33.9387 H          1 BB1          0.0000
    16 H16       34.4085    37.2868    33.8060 H          1 BB1          0.0000
    17 F1        25.5000    36.7359    41.3496 F          2 BB2          0.0000
    18 C2        26.3910    36.8873    40.3454 C.ar       2 BB2          0.0000
    19 C3        25.9985    37.4930    39.1593 C.ar       2 BB2          0.0000
    20 C4        26.8993    37.6511    38.1309 C.ar       2 BB2          0.0000
    21 C5        28.2164    37.1998    38.2817 C.ar       2 BB2          0.0000
    22 C6        29.1829    37.3656    37.1889 C.2        2 BB2          0.0000
    23 C8        28.6075    36.5893    39.4818 C.ar       2 BB2          0.0000
    24 F9        29.8760    36.1510    39.6372 F          2 BB2          0.0000
    25 C10       27.6931    36.4427    40.5067 C.ar       2 BB2          0.0000
    26 H11       24.9826    37.8409    39.0433 H          2 BB2          0.0000
    27 H12       26.5909    38.1219    37.2092 H          2 BB2          0.0000
    28 H14       27.9916    35.9731    41.4323 H          2 BB2          0.0000
@<TRIPOS>BOND
     1      1      2 1
     2      1     11 1
     3      1     12 1
     4      1     13 1
     5      2      3 ar
     6      2      9 ar
     7      3      4 1
     8      3      5 ar
     9      4     16 1
    10      5      6 ar
    11      5     14 1
    12      6      7 ar
    13      6     15 1
    14      7      8 1
    15      7      9 ar
    16      9     10 1
    17     17     18 1
    18     18     19 ar
    19     18     25 ar
    20     19     20 ar
    21     19     26 1
    22     20     21 ar
    23     20     27 1
    24     21     22 1
    25     21     23 ar
    26     23     24 1
    27     23     25 ar
    28     25     28 1
    29      8     22 2
    30     10     22 1
@<TRIPOS>SUBSTRUCTURE
     1 BB1          10
     2 BB2          22
@<TRIPOS>MOLECULE
EN300-7549830_i001_EN300-21300_i001_13_20_27
  28   30   2   0   0
SMALL
USER_CHARGES
@<TRIPOS>ATOM
     1 C1        32.9176    35.8982    36.8715 C.3        1 BB1          0.0000
     2 C2        32.2179    36.9496    36.0493 C.ar       1 BB1          0.0000
     3 C3        32.7187    37.3047    34.8052 C.ar       1 BB1          0.0000
     4 O4        33.8409    36.7030    34.3278 O.3        1 BB1          0.0000
     5 C5        32.0758    38.2719    34.0478 C.ar       1 BB1          0.0000
     6 C6        30.9343    38.8851    34.5303 C.ar       1 BB1          0.0000
     7 C7        30.4304    38.5339    35.7732 C.ar       1 BB1          0.0000
     8 N8        29.2728    39.1558    36.2625 N.2        1 BB1          0.0000
     9 C9        31.0719    37.5577    36.5327 C.ar       1 BB1          0.0000
    10 O10       30.5795    37.2110    37.7522 O.3        1 BB1          0.0000
    11 H11       33.6632    36.3726    37.5096 H          1 BB1          0.0000
    12 H12       32.1881    35.3765    37.4910 H          1 BB1          0.0000
    13 H13       33.4076    35.1851    36.2086 H          1 BB1          0.0000
    14 H14       32.4675    38.5470    33.0798 H          1 BB1          0.0000
    15 H15       30.4351    39.6383    33.9387 H          1 BB1          0.0000
    16 H16       34.4085    37.2868    33.8060 H          1 BB1          0.0000
    17 F1        25.1848    36.4217    41.4240 F          2 BB2          0.0000
    18 C2        26.2283    36.6136    40.5876 C.ar       2 BB2          0.0000
    19 C3        27.4446    35.9968    40.8481 C.ar       2 BB2          0.0000
    20 C4        28.5131    36.1870    40.0018 C.ar       2 BB2          0.0000
    21 C5        28.3727    37.0051    38.8739 C.ar       2 BB2          0.0000
    22 C6        29.5083    37.2121    37.9664 C.2        2 BB2          0.0000
    23 C8        27.1420    37.6252    38.6154 C.ar       2 BB2          0.0000
    24 F9        26.9963    38.4159    37.5297 F          2 BB2          0.0000
    25 C10       26.0774    37.4202    39.4715 C.ar       2 BB2          0.0000
    26 H11       27.5527    35.3660    41.7180 H          2 BB2          0.0000
    27 H12       29.4582    35.7065    40.2074 H          2 BB2          0.0000
    28 H14       25.1282    37.8962    39.2747 H          2 BB2          0.0000
@<TRIPOS>BOND
     1      1      2 1
     2      1     11 1
     3      1     12 1
     4      1     13 1
     5      2      3 ar
     6      2      9 ar
     7      3      4 1
     8      3      5 ar
     9      4     16 1
    10      5      6 ar
    11      5     14 1
    12      6      7 ar
    13      6     15 1
    14      7      8 1
    15      7      9 ar
    16      9     10 1
    17     17     18 1
    18     18     19 ar
    19     18     25 ar
    20     19     20 ar
    21     19     26 1
    22     20     21 ar
    23     20     27 1
    24     21     22 1
    25     21     23 ar
    26     23     24 1
    27     23     25 ar
    28     25     28 1
    29      8     22 2
    30     10     22 1
@<TRIPOS>SUBSTRUCTURE
     1 BB1          10
     2 BB2          22
@<TRIPOS>MOLECULE
EN300-7549830_i001_EN300-100613_i001_13_17_27
  32   35   2   0   0
SMALL
USER_CHARGES
@<TRIPOS>ATOM
     1 C1        32.9176    35.8982    36.8715 C.3        1 BB1          0.0000
     2 C2        32.2179    36.9496    36.0493 C.ar       1 BB1          0.0000
     3 C3        32.7187    37.3047    34.8052 C.ar       1 BB1          0.0000
     4 O4        33.8409    36.7030    34.3278 O.3        1 BB1          0.0000
     5 C5        32.0758    38.2719    34.0478 C.ar       1 BB1          0.0000
     6 C6        30.9343    38.8851    34.5303 C.ar       1 BB1          0.0000
     7 C7        30.4304    38.5339    35.7732 C.ar       1 BB1          0.0000
     8 N8        29.2728    39.1558    36.2625 N.2        1 BB1          0.0000
     9 C9        31.0719    37.5577    36.5327 C.ar       1 BB1          0.0000
    10 O10       30.5795    37.2110    37.7522 O.3        1 BB1          0.0000
    11 H11       33.6632    36.3726    37.5096 H          1 BB1          0.0000
    12 H12       32.1881    35.3765    37.4910 H          1 BB1          0.0000
    13 H13       33.4076    35.1851    36.2086 H          1 BB1          0.0000
    14 H14       32.4675    38.5470    33.0798 H          1 BB1          0.0000
    15 H15       30.4351    39.6383    33.9387 H          1 BB1          0.0000
    16 H16       34.4085    37.2868    33.8060 H          1 BB1          0.0000
    17 F1        25.7992    37.6014    39.1280 F          2 BB2          0.0000
    18 C2        26.6288    37.0009    40.0092 C.ar       2 BB2          0.0000
    19 C3        26.1514    36.5749    41.2326 C.ar       2 BB2          0.0000
    20 C4        27.0019    35.9584    42.1378 C.ar       2 BB2          0.0000
    21 C5        28.3313    35.7626    41.8320 C.ar       2 BB2          0.0000
    22 C6        28.8320    36.1846    40.6042 C.ar       2 BB2          0.0000
    23 N7        30.0852    36.1281    40.0287 N.pl3      2 BB2          0.0000
    24 C8        30.0702    36.6796    38.7998 C.2        2 BB2          0.0000
    25 C9        28.7993    37.1268    38.5087 C.2        2 BB2          0.0000
    26 C10       28.3735    37.7645    37.3168 C.2        2 BB2          0.0000
    27 C12       27.9696    36.8028    39.6861 C.ar       2 BB2          0.0000
    28 H13       25.1118    36.7226    41.4856 H          2 BB2          0.0000
    29 H14       26.6187    35.6287    43.0923 H          2 BB2          0.0000
    30 H15       28.9844    35.2818    42.5452 H          2 BB2          0.0000
    31 H16       30.9237    36.7592    38.1428 H          2 BB2          0.0000
    32 H18       30.8693    35.7443    40.4513 H          2 BB2          0.0000
@<TRIPOS>BOND
     1      1      2 1
     2      1     11 1
     3      1     12 1
     4      1     13 1
     5      2      3 ar
     6      2      9 ar
     7      3      4 1
     8      3      5 ar
     9      4     16 1
    10      5      6 ar
    11      5     14 1
    12      6      7 ar
    13      6     15 1
    14      7      8 1
    15      7      9 ar
    16      9     10 1
    17     17     18 1
    18     18     19 ar
    19     18     27 ar
    20     19     20 ar
    21     19     28 1
    22     20     21 ar
    23     20     29 1
    24     21     22 ar
    25     21     30 1
    26     22     23 1
    27     22     27 ar
    28     23     24 1
    29     23     32 1
    30     24     25 2
    31     24     31 1
    32     25     26 1
    33     25     27 1
    34      8     26 2
    35     10     26 1
@<TRIPOS>SUBSTRUCTURE
     1 BB1          10
     2 BB2          26
@<TRIPOS>MOLECULE
EN300-7549830_i001_EN300-100613_i001_13_2_27
  32   35   2   0   0
SMALL
USER_CHARGES
@<TRIPOS>ATOM
     1 C1        32.9176    35.8982    36.8715 C.3        1 BB1          0.0000
     2 C2        32.2179    36.9496    36.0493 C.ar       1 BB1          0.0000
     3 C3        32.7187    37.3047    34.8052 C.ar       1 BB1          0.0000
     4 O4        33.8409    36.7030    34.3278 O.3        1 BB1          0.0000
     5 C5        32.0758    38.2719    34.0478 C.ar       1 BB1          0.0000
     6 C6        30.9343    38.8851    34.5303 C.ar       1 BB1          0.0000
     7 C7        30.4304    38.5339    35.7732 C.ar       1 BB1          0.0000
     8 N8        29.2728    39.1558    36.2625 N.2        1 BB1          0.0000
     9 C9        31.0719    37.5577    36.5327 C.ar       1 BB1          0.0000
    10 O10       30.5795    37.2110    37.7522 O.3        1 BB1          0.0000
    11 H11       33.6632    36.3726    37.5096 H          1 BB1          0.0000
    12 H12       32.1881    35.3765    37.4910 H          1 BB1          0.0000
    13 H13       33.4076    35.1851    36.2086 H          1 BB1          0.0000
    14 H14       32.4675    38.5470    33.0798 H          1 BB1          0.0000
    15 H15       30.4351    39.6383    33.9387 H          1 BB1          0.0000
    16 H16       34.4085    37.2868    33.8060 H          1 BB1          0.0000
    17 F1        26.2458    37.8938    37.8882 F          2 BB2          0.0000
    18 C2        26.6744    37.3976    39.0695 C.ar       2 BB2          0.0000
    19 C3        25.8037    37.2942    40.1359 C.ar       2 BB2          0.0000
    20 C4        26.2424    36.7851    41.3488 C.ar       2 BB2          0.0000
    21 C5        27.5488    36.3764    41.5081 C.ar       2 BB2          0.0000
    22 C6        28.4421    36.4723    40.4455 C.ar       2 BB2          0.0000
    23 N7        29.7772    36.1516    40.3059 N.pl3      2 BB2          0.0000
    24 C8        30.2069    36.4329    39.0606 C.2        2 BB2          0.0000
    25 C9        29.1683    36.9546    38.3196 C.2        2 BB2          0.0000
    26 C10       29.2150    37.3752    36.9669 C.2        2 BB2          0.0000
    27 C12       27.9961    36.9818    39.2166 C.ar       2 BB2          0.0000
    28 H13       24.7772    37.6114    40.0252 H          2 BB2          0.0000
    29 H14       25.5534    36.7083    42.1770 H          2 BB2          0.0000
    30 H15       27.8794    35.9821    42.4577 H          2 BB2          0.0000
    31 H16       31.2118    36.2740    38.6980 H          2 BB2          0.0000
    32 H18       30.3305    35.7756    41.0083 H          2 BB2          0.0000
@<TRIPOS>BOND
     1      1      2 1
     2      1     11 1
     3      1     12 1
     4      1     13 1
     5      2      3 ar
     6      2      9 ar
     7      3      4 1
     8      3      5 ar
     9      4     16 1
    10      5      6 ar
    11      5     14 1
    12      6      7 ar
    13      6     15 1
    14      7      8 1
    15      7      9 ar
    16      9     10 1
    17     17     18 1
    18     18     19 ar
    19     18     27 ar
    20     19     20 ar
    21     19     28 1
    22     20     21 ar
    23     20     29 1
    24     21     22 ar
    25     21     30 1
    26     22     23 1
    27     22     27 ar
    28     23     24 1
    29     23     32 1
    30     24     25 2
    31     24     31 1
    32     25     26 1
    33     25     27 1
    34      8     26 2
    35     10     26 1
@<TRIPOS>SUBSTRUCTURE
     1 BB1          10
     2 BB2          26
@<TRIPOS>MOLECULE
EN300-7549830_i001_EN300-128560_i001_13_12_27
  33   35   2   0   0
SMALL
USER_CHARGES
@<TRIPOS>ATOM
     1 C1        32.9176    35.8982    36.8715 C.3        1 BB1          0.0000
     2 C2        32.2179    36.9496    36.0493 C.ar       1 BB1          0.0000
     3 C3        32.7187    37.3047    34.8052 C.ar       1 BB1          0.0000
     4 O4        33.8409    36.7030    34.3278 O.3        1 BB1          0.0000
     5 C5        32.0758    38.2719    34.0478 C.ar       1 BB1          0.0000
     6 C6        30.9343    38.8851    34.5303 C.ar       1 BB1          0.0000
     7 C7        30.4304    38.5339    35.7732 C.ar       1 BB1          0.0000
     8 N8        29.2728    39.1558    36.2625 N.2        1 BB1          0.0000
     9 C9        31.0719    37.5577    36.5327 C.ar       1 BB1          0.0000
    10 O10       30.5795    37.2110    37.7522 O.3        1 BB1          0.0000
    11 H11       33.6632    36.3726    37.5096 H          1 BB1          0.0000
    12 H12       32.1881    35.3765    37.4910 H          1 BB1          0.0000
    13 H13       33.4076    35.1851    36.2086 H          1 BB1          0.0000
    14 H14       32.4675    38.5470    33.0798 H          1 BB1          0.0000
    15 H15       30.4351    39.6383    33.9387 H          1 BB1          0.0000
    16 H16       34.4085    37.2868    33.8060 H          1 BB1          0.0000
    17 C1        28.5086    36.3641    42.0748 C.3        2 BB2          0.0000
    18 C2        28.0345    36.6995    40.6842 C.ar       2 BB2          0.0000
    19 C3        28.9289    36.7013    39.6345 C.ar       2 BB2          0.0000
    20 C4        28.4869    37.0124    38.3448 C.ar       2 BB2          0.0000
    21 C5        29.4345    37.0160    37.2188 C.2        2 BB2          0.0000
    22 C7        27.1392    37.3196    38.1304 C.ar       2 BB2          0.0000
    23 C8        26.2575    37.3136    39.1902 C.ar       2 BB2          0.0000
    24 C9        26.7018    36.9995    40.4630 C.ar       2 BB2          0.0000
    25 N10       25.7486    36.9953    41.5953 N.pl3      2 BB2          0.0000
    26 O11       26.0213    37.5891    42.6232 O.2        2 BB2          0.0000
    27 O12       24.6913    36.3982    41.4991 O.2        2 BB2          0.0000
    28 H13       28.7262    37.2847    42.6164 H          2 BB2          0.0000
    29 H14       27.7312    35.8088    42.5996 H          2 BB2          0.0000
    30 H15       29.4113    35.7563    42.0142 H          2 BB2          0.0000
    31 H16       29.9679    36.4634    39.8080 H          2 BB2          0.0000
    32 H18       26.7904    37.5612    37.1373 H          2 BB2          0.0000
    33 H19       25.2167    37.5506    39.0263 H          2 BB2          0.0000
@<TRIPOS>BOND
     1      1      2 1
     2      1     11 1
     3      1     12 1
     4      1     13 1
     5      2      3 ar
     6      2      9 ar
     7      3      4 1
     8      3      5 ar
     9      4     16 1
    10      5      6 ar
    11      5     14 1
    12      6      7 ar
    13      6     15 1
    14      7      8 1
    15      7      9 ar
    16      9     10 1
    17     17     18 1
    18     17     28 1
    19     17     29 1
    20     17     30 1
    21     18     19 ar
    22     18     24 ar
    23     19     20 ar
    24     19     31 1
    25     20     21 1
    26     20     22 ar
    27     22     23 ar
    28     22     32 1
    29     23     24 ar
    30     23     33 1
    31     24     25 1
    32     25     26 2
    33     25     27 2
    34      8     21 2
    35     10     21 1
@<TRIPOS>SUBSTRUCTURE
     1 BB1          10
     2 BB2          21
@<TRIPOS>MOLECULE
EN300-7549830_i001_EN300-177026_i002_13_20_27
  31   33   2   0   0
SMALL
USER_CHARGES
@<TRIPOS>ATOM
     1 C1        32.9176    35.8982    36.8715 C.3        1 BB1          0.0000
     2 C2        32.2179    36.9496    36.0493 C.ar       1 BB1          0.0000
     3 C3        32.7187    37.3047    34.8052 C.ar       1 BB1          0.0000
     4 O4        33.8409    36.7030    34.3278 O.3        1 BB1          0.0000
     5 C5        32.0758    38.2719    34.0478 C.ar       1 BB1          0.0000
     6 C6        30.9343    38.8851    34.5303 C.ar       1 BB1          0.0000
     7 C7        30.4304    38.5339    35.7732 C.ar       1 BB1          0.0000
     8 N8        29.2728    39.1558    36.2625 N.2        1 BB1          0.0000
     9 C9        31.0719    37.5577    36.5327 C.ar       1 BB1          0.0000
    10 O10       30.5795    37.2110    37.7522 O.3        1 BB1          0.0000
    11 H11       33.6632    36.3726    37.5096 H          1 BB1          0.0000
    12 H12       32.1881    35.3765    37.4910 H          1 BB1          0.0000
    13 H13       33.4076    35.1851    36.2086 H          1 BB1          0.0000
    14 H14       32.4675    38.5470    33.0798 H          1 BB1          0.0000
    15 H15       30.4351    39.6383    33.9387 H          1 BB1          0.0000
    16 H16       34.4085    37.2868    33.8060 H          1 BB1          0.0000
    17 C1        25.7943    36.8831    40.8639 C.3        2 BB2          0.0000
    18 C2        27.2366    36.5215    41.2240 C.3        2 BB2          0.0000
    19 O3        27.2933    35.1600    41.6542 O.3        2 BB2          0.0000
    20 C4        28.1171    36.7031    40.0145 C.2        2 BB2          0.0000
    21 N5        29.3975    36.5120    40.0000 N.2        2 BB2          0.0000
    22 C6        30.0252    36.7107    38.8702 C.2        2 BB2          0.0000
    23 C7        29.2062    37.1031    37.8418 C.2        2 BB2          0.0000
    24 C8        29.6079    37.3871    36.5163 C.2        2 BB2          0.0000
    25 S10       27.5619    37.1823    38.4706 S.3        2 BB2          0.0000
    26 H11       25.7511    37.9216    40.5357 H          2 BB2          0.0000
    27 H12       25.4466    36.2335    40.0606 H          2 BB2          0.0000
    28 H13       25.1575    36.7516    41.7387 H          2 BB2          0.0000
    29 H14       27.5843    37.1711    42.0273 H          2 BB2          0.0000
    30 H15       31.0911    36.5784    38.7570 H          2 BB2          0.0000
    31 H17       26.8654    34.9986    42.5063 H          2 BB2          0.0000
@<TRIPOS>BOND
     1      1      2 1
     2      1     11 1
     3      1     12 1
     4      1     13 1
     5      2      3 ar
     6      2      9 ar
     7      3      4 1
     8      3      5 ar
     9      4     16 1
    10      5      6 ar
    11      5     14 1
    12      6      7 ar
    13      6     15 1
    14      7      8 1
    15      7      9 ar
    16      9     10 1
    17     17     18 1
    18     17     26 1
    19     17     27 1
    20     17     28 1
    21     18     19 1
    22     18     20 1
    23     18     29 1
    24     19     31 1
    25     20     21 2
    26     20     25 1
    27     21     22 1
    28     22     23 2
    29     22     30 1
    30     23     24 1
    31     23     25 1
    32      8     24 2
    33     10     24 1
@<TRIPOS>SUBSTRUCTURE
     1 BB1          10
     2 BB2          24
@<TRIPOS>MOLECULE
EN300-7549830_i001_EN300-104126_i001_13_12_27
  30   33   2   0   0
SMALL
USER_CHARGES
@<TRIPOS>ATOM
     1 C1        32.9176    35.8982    36.8715 C.3        1 BB1          0.0000
     2 C2        32.2179    36.9496    36.0493 C.ar       1 BB1          0.0000
     3 C3        32.7187    37.3047    34.8052 C.ar       1 BB1          0.0000
     4 O4        33.8409    36.7030    34.3278 O.3        1 BB1          0.0000
     5 C5        32.0758    38.2719    34.0478 C.ar       1 BB1          0.0000
     6 C6        30.9343    38.8851    34.5303 C.ar       1 BB1          0.0000
     7 C7        30.4304    38.5339    35.7732 C.ar       1 BB1          0.0000
     8 N8        29.2728    39.1558    36.2625 N.2        1 BB1          0.0000
     9 C9        31.0719    37.5577    36.5327 C.ar       1 BB1          0.0000
    10 O10       30.5795    37.2110    37.7522 O.3        1 BB1          0.0000
    11 H11       33.6632    36.3726    37.5096 H          1 BB1          0.0000
    12 H12       32.1881    35.3765    37.4910 H          1 BB1          0.0000
    13 H13       33.4076    35.1851    36.2086 H          1 BB1          0.0000
    14 H14       32.4675    38.5470    33.0798 H          1 BB1          0.0000
    15 H15       30.4351    39.6383    33.9387 H          1 BB1          0.0000
    16 H16       34.4085    37.2868    33.8060 H          1 BB1          0.0000
    17 C2        28.5987    37.8047    37.2590 C.2        2 BB2          0.0000
    18 C3        28.7637    37.2945    38.5715 C.2        2 BB2          0.0000
    19 C4        29.9479    36.9220    39.1728 C.2        2 BB2          0.0000
    20 N5        29.7032    36.4869    40.4238 N.pl3      2 BB2          0.0000
    21 C6        28.3573    36.5500    40.7081 C.ar       2 BB2          0.0000
    22 N7        27.6433    36.2399    41.7828 N.ar       2 BB2          0.0000
    23 C8        26.3342    36.4077    41.7745 C.ar       2 BB2          0.0000
    24 C9        25.6932    36.9066    40.6508 C.ar       2 BB2          0.0000
    25 N10       26.3880    37.2200    39.5728 N.ar       2 BB2          0.0000
    26 C11       27.7045    37.0613    39.5712 C.ar       2 BB2          0.0000
    27 H13       30.9228    36.9711    38.7106 H          2 BB2          0.0000
    28 H14       25.7568    36.1538    42.6511 H          2 BB2          0.0000
    29 H15       24.6214    37.0390    40.6574 H          2 BB2          0.0000
    30 H16       30.3824    36.1716    41.0403 H          2 BB2          0.0000
@<TRIPOS>BOND
     1      1      2 1
     2      1     11 1
     3      1     12 1
     4      1     13 1
     5      2      3 ar
     6      2      9 ar
     7      3      4 1
     8      3      5 ar
     9      4     16 1
    10      5      6 ar
    11      5     14 1
    12      6      7 ar
    13      6     15 1
    14      7      8 1
    15      7      9 ar
    16      9     10 1
    17     17     18 1
    18     18     19 2
    19     18     26 1
    20     19     20 1
    21     19     27 1
    22     20     21 1
    23     20     30 1
    24     21     22 ar
    25     21     26 ar
    26     22     23 ar
    27     23     24 ar
    28     23     28 1
    29     24     25 ar
    30     24     29 1
    31     25     26 ar
    32      8     17 2
    33     10     17 1
@<TRIPOS>SUBSTRUCTURE
     1 BB1          10
     2 BB2          17
@<TRIPOS>MOLECULE
EN300-7549830_i001_EN300-92356_i001_3_6_27
  28   30   2   0   0
SMALL
USER_CHARGES
@<TRIPOS>ATOM
     1 C1        25.5024    37.4938    38.8266 C.3        1 BB1          0.0000
     2 C2        26.4731    36.9930    39.8649 C.ar       1 BB1          0.0000
     3 C3        26.0375    36.7410    41.1577 C.ar       1 BB1          0.0000
     4 O4        24.7342    36.9456    41.4874 O.3        1 BB1          0.0000
     5 C5        26.9296    36.2801    42.1139 C.ar       1 BB1          0.0000
     6 C6        28.2553    36.0707    41.7816 C.ar       1 BB1          0.0000
     7 C7        28.6953    36.3215    40.4911 C.ar       1 BB1          0.0000
     8 N8        30.0398    36.1091    40.1542 N.2        1 BB1          0.0000
     9 C9        27.7987    36.7788    39.5276 C.ar       1 BB1          0.0000
    10 O10       28.2275    37.0253    38.2607 O.3        1 BB1          0.0000
    11 H11       25.4875    38.5837    38.8390 H          1 BB1          0.0000
    12 H12       25.8129    37.1459    37.8414 H          1 BB1          0.0000
    13 H13       24.5051    37.1142    39.0485 H          1 BB1          0.0000
    14 H14       26.5885    36.0850    43.1198 H          1 BB1          0.0000
    15 H15       28.9486    35.7116    42.5280 H          1 BB1          0.0000
    16 H16       24.1075    36.6660    40.8060 H          1 BB1          0.0000
    17 C1        33.0032    37.1739    35.0927 C.3        2 BB2          0.0000
    18 N2        32.4043    36.4703    36.2296 N.pl3      2 BB2          0.0000
    19 C3        32.6383    35.1728    36.5506 C.2        2 BB2          0.0000
    20 C4        31.9070    34.8957    37.6557 C.2        2 BB2          0.0000
    21 Cl5       31.8203    33.3850    38.5066 Cl         2 BB2          0.0000
    22 C6        31.2271    36.0990    37.9722 C.2        2 BB2          0.0000
    23 C7        30.3034    36.3115    39.0951 C.2        2 BB2          0.0000
    24 N9        31.5860    36.9943    37.0700 N.2        2 BB2          0.0000
    25 H10       32.3642    37.0595    34.2171 H          2 BB2          0.0000
    26 H11       33.1046    38.2323    35.3328 H          2 BB2          0.0000
    27 H12       33.9865    36.7532    34.8822 H          2 BB2          0.0000
    28 H13       33.2865    34.4888    36.0228 H          2 BB2          0.0000
@<TRIPOS>BOND
     1      1      2 1
     2      1     11 1
     3      1     12 1
     4      1     13 1
     5      2      3 ar
     6      2      9 ar
     7      3      4 1
     8      3      5 ar
     9      4     16 1
    10      5      6 ar
    11      5     14 1
    12      6      7 ar
    13      6     15 1
    14      7      8 1
    15      7      9 ar
    16      9     10 1
    17     17     18 1
    18     17     25 1
    19     17     26 1
    20     17     27 1
    21     18     19 1
    22     18     24 1
    23     19     20 2
    24     19     28 1
    25     20     21 1
    26     20     22 1
    27     22     23 1
    28     22     24 2
    29      8     23 2
    30     10     23 1
@<TRIPOS>SUBSTRUCTURE
     1 BB1          10
     2 BB2          23
@<TRIPOS>MOLECULE
EN300-7549830_i001_EN300-00978_i001_3_11_27
  34   37   2   0   0
SMALL
USER_CHARGES
@<TRIPOS>ATOM
     1 C1        25.5024    37.4938    38.8266 C.3        1 BB1          0.0000
     2 C2        26.4731    36.9930    39.8649 C.ar       1 BB1          0.0000
     3 C3        26.0375    36.7410    41.1577 C.ar       1 BB1          0.0000
     4 O4        24.7342    36.9456    41.4874 O.3        1 BB1          0.0000
     5 C5        26.9296    36.2801    42.1139 C.ar       1 BB1          0.0000
     6 C6        28.2553    36.0707    41.7816 C.ar       1 BB1          0.0000
     7 C7        28.6953    36.3215    40.4911 C.ar       1 BB1          0.0000
     8 N8        30.0398    36.1091    40.1542 N.2        1 BB1          0.0000
     9 C9        27.7987    36.7788    39.5276 C.ar       1 BB1          0.0000
    10 O10       28.2275    37.0253    38.2607 O.3        1 BB1          0.0000
    11 H11       25.4875    38.5837    38.8390 H          1 BB1          0.0000
    12 H12       25.8129    37.1459    37.8414 H          1 BB1          0.0000
    13 H13       24.5051    37.1142    39.0485 H          1 BB1          0.0000
    14 H14       26.5885    36.0850    43.1198 H          1 BB1          0.0000
    15 H15       28.9486    35.7116    42.5280 H          1 BB1          0.0000
    16 H16       24.1075    36.6660    40.8060 H          1 BB1          0.0000
    17 C1        32.9957    35.7341    37.2459 C.3        2 BB2          0.0000
    18 C2        32.5546    36.6407    36.1258 C.2        2 BB2          0.0000
    19 C3        33.2787    36.7533    35.0237 C.2        2 BB2          0.0000
    20 S4        32.3999    37.9026    33.9992 S.3        2 BB2          0.0000
    21 C5        31.0915    38.1469    35.1681 C.2        2 BB2          0.0000
    22 N6        29.9588    38.7931    35.3824 N.2        2 BB2          0.0000
    23 C7        29.4780    38.4691    36.5727 C.2        2 BB2          0.0000
    24 C8        28.2050    38.9912    37.1876 C.3        2 BB2          0.0000
    25 C9        30.3528    37.5644    37.1523 C.2        2 BB2          0.0000
    26 C10       30.2247    36.9633    38.4151 C.2        2 BB2          0.0000
    27 N12       31.3913    37.3617    36.2258 N.pl3      2 BB2          0.0000
    28 H13       33.9342    35.2509    36.9741 H          2 BB2          0.0000
    29 H14       33.1386    36.3207    38.1533 H          2 BB2          0.0000
    30 H15       32.2334    34.9747    37.4203 H          2 BB2          0.0000
    31 H16       34.2077    36.2516    34.7966 H          2 BB2          0.0000
    32 H17       27.3751    38.3403    36.9127 H          2 BB2          0.0000
    33 H18       28.3072    39.0112    38.2726 H          2 BB2          0.0000
    34 H19       28.0121    39.9999    36.8222 H          2 BB2          0.0000
@<TRIPOS>BOND
     1      1      2 1
     2      1     11 1
     3      1     12 1
     4      1     13 1
     5      2      3 ar
     6      2      9 ar
     7      3      4 1
     8      3      5 ar
     9      4     16 1
    10      5      6 ar
    11      5     14 1
    12      6      7 ar
    13      6     15 1
    14      7      8 1
    15      7      9 ar
    16      9     10 1
    17     17     18 1
    18     17     28 1
    19     17     29 1
    20     17     30 1
    21     18     19 2
    22     18     27 1
    23     19     20 1
    24     19     31 1
    25     20     21 1
    26     21     22 2
    27     21     27 1
    28     22     23 1
    29     23     24 1
    30     23     25 2
    31     24     32 1
    32     24     33 1
    33     24     34 1
    34     25     26 1
    35     25     27 1
    36      8     26 2
    37     10     26 1
@<TRIPOS>SUBSTRUCTURE
     1 BB1          10
     2 BB2          26
@<TRIPOS>MOLECULE
EN300-7549830_i001_EN300-00978_i001_3_15_27
  34   37   2   0   0
SMALL
USER_CHARGES
@<TRIPOS>ATOM
     1 C1        25.5024    37.4938    38.8266 C.3        1 BB1          0.0000
     2 C2        26.4731    36.9930    39.8649 C.ar       1 BB1          0.0000
     3 C3        26.0375    36.7410    41.1577 C.ar       1 BB1          0.0000
     4 O4        24.7342    36.9456    41.4874 O.3        1 BB1          0.0000
     5 C5        26.9296    36.2801    42.1139 C.ar       1 BB1          0.0000
     6 C6        28.2553    36.0707    41.7816 C.ar       1 BB1          0.0000
     7 C7        28.6953    36.3215    40.4911 C.ar       1 BB1          0.0000
     8 N8        30.0398    36.1091    40.1542 N.2        1 BB1          0.0000
     9 C9        27.7987    36.7788    39.5276 C.ar       1 BB1          0.0000
    10 O10       28.2275    37.0253    38.2607 O.3        1 BB1          0.0000
    11 H11       25.4875    38.5837    38.8390 H          1 BB1          0.0000
    12 H12       25.8129    37.1459    37.8414 H          1 BB1          0.0000
    13 H13       24.5051    37.1142    39.0485 H          1 BB1          0.0000
    14 H14       26.5885    36.0850    43.1198 H          1 BB1          0.0000
    15 H15       28.9486    35.7116    42.5280 H          1 BB1          0.0000
    16 H16       24.1075    36.6660    40.8060 H          1 BB1          0.0000
    17 C1        30.7672    39.3826    35.4951 C.3        2 BB2          0.0000
    18 C2        31.7365    38.2289    35.4679 C.2        2 BB2          0.0000
    19 C3        32.7026    38.1802    34.5646 C.2        2 BB2          0.0000
    20 S4        33.5841    36.6790    34.8997 S.3        2 BB2          0.0000
    21 C5        32.5537    36.2238    36.2668 C.2        2 BB2          0.0000
    22 N6        32.3552    35.3024    37.1931 N.2        2 BB2          0.0000
    23 C7        31.3150    35.6373    37.9406 C.2        2 BB2          0.0000
    24 C8        30.7667    34.8493    39.1024 C.3        2 BB2          0.0000
    25 C9        30.8203    36.8411    37.4653 C.2        2 BB2          0.0000
    26 C10       29.7209    37.5550    37.9692 C.2        2 BB2          0.0000
    27 N12       31.6386    37.2108    36.3829 N.pl3      2 BB2          0.0000
    28 H13       31.0134    40.0829    34.6969 H          2 BB2          0.0000
    29 H14       29.7535    39.0089    35.3506 H          2 BB2          0.0000
    30 H15       30.8337    39.8904    36.4573 H          2 BB2          0.0000
    31 H16       32.9099    38.9017    33.7882 H          2 BB2          0.0000
    32 H17       31.2581    35.1679    40.0217 H          2 BB2          0.0000
    33 H18       29.6938    35.0227    39.1849 H          2 BB2          0.0000
    34 H19       30.9517    33.7874    38.9406 H          2 BB2          0.0000
@<TRIPOS>BOND
     1      1      2 1
     2      1     11 1
     3      1     12 1
     4      1     13 1
     5      2      3 ar
     6      2      9 ar
     7      3      4 1
     8      3      5 ar
     9      4     16 1
    10      5      6 ar
    11      5     14 1
    12      6      7 ar
    13      6     15 1
    14      7      8 1
    15      7      9 ar
    16      9     10 1
    17     17     18 1
    18     17     28 1
    19     17     29 1
    20     17     30 1
    21     18     19 2
    22     18     27 1
    23     19     20 1
    24     19     31 1
    25     20     21 1
    26     21     22 2
    27     21     27 1
    28     22     23 1
    29     23     24 1
    30     23     25 2
    31     24     32 1
    32     24     33 1
    33     24     34 1
    34     25     26 1
    35     25     27 1
    36      8     26 2
    37     10     26 1
@<TRIPOS>SUBSTRUCTURE
     1 BB1          10
     2 BB2          26
@<TRIPOS>MOLECULE
EN300-7549830_i001_EN300-00978_i001_3_5_27
  34   37   2   0   0
SMALL
USER_CHARGES
@<TRIPOS>ATOM
     1 C1        25.5024    37.4938    38.8266 C.3        1 BB1          0.0000
     2 C2        26.4731    36.9930    39.8649 C.ar       1 BB1          0.0000
     3 C3        26.0375    36.7410    41.1577 C.ar       1 BB1          0.0000
     4 O4        24.7342    36.9456    41.4874 O.3        1 BB1          0.0000
     5 C5        26.9296    36.2801    42.1139 C.ar       1 BB1          0.0000
     6 C6        28.2553    36.0707    41.7816 C.ar       1 BB1          0.0000
     7 C7        28.6953    36.3215    40.4911 C.ar       1 BB1          0.0000
     8 N8        30.0398    36.1091    40.1542 N.2        1 BB1          0.0000
     9 C9        27.7987    36.7788    39.5276 C.ar       1 BB1          0.0000
    10 O10       28.2275    37.0253    38.2607 O.3        1 BB1          0.0000
    11 H11       25.4875    38.5837    38.8390 H          1 BB1          0.0000
    12 H12       25.8129    37.1459    37.8414 H          1 BB1          0.0000
    13 H13       24.5051    37.1142    39.0485 H          1 BB1          0.0000
    14 H14       26.5885    36.0850    43.1198 H          1 BB1          0.0000
    15 H15       28.9486    35.7116    42.5280 H          1 BB1          0.0000
    16 H16       24.1075    36.6660    40.8060 H          1 BB1          0.0000
    17 C1        30.3001    39.0404    36.6361 C.3        2 BB2          0.0000
    18 C2        31.3054    38.0877    36.0420 C.2        2 BB2          0.0000
    19 C3        31.9464    38.3930    34.9251 C.2        2 BB2          0.0000
    20 S4        33.0089    37.0116    34.6003 S.3        2 BB2          0.0000
    21 C5        32.4916    36.1080    36.0335 C.2        2 BB2          0.0000
    22 N6        32.6652    34.9840    36.7065 N.2        2 BB2          0.0000
    23 C7        31.8823    34.9772    37.7742 C.2        2 BB2          0.0000
    24 C8        31.7860    33.8745    38.7969 C.3        2 BB2          0.0000
    25 C9        31.1677    36.1642    37.7845 C.2        2 BB2          0.0000
    26 C10       30.2222    36.5671    38.7417 C.2        2 BB2          0.0000
    27 N12       31.5788    36.8889    36.6515 N.pl3      2 BB2          0.0000
    28 H13       30.2294    39.9305    36.0110 H          2 BB2          0.0000
    29 H14       29.3257    38.5545    36.6878 H          2 BB2          0.0000
    30 H15       30.6178    39.3251    37.6391 H          2 BB2          0.0000
    31 H16       31.8439    39.2926    34.3364 H          2 BB2          0.0000
    32 H17       32.5089    34.0531    39.5929 H          2 BB2          0.0000
    33 H18       30.7804    33.8553    39.2169 H          2 BB2          0.0000
    34 H19       31.9991    32.9176    38.3205 H          2 BB2          0.0000
@<TRIPOS>BOND
     1      1      2 1
     2      1     11 1
     3      1     12 1
     4      1     13 1
     5      2      3 ar
     6      2      9 ar
     7      3      4 1
     8      3      5 ar
     9      4     16 1
    10      5      6 ar
    11      5     14 1
    12      6      7 ar
    13      6     15 1
    14      7      8 1
    15      7      9 ar
    16      9     10 1
    17     17     18 1
    18     17     28 1
    19     17     29 1
    20     17     30 1
    21     18     19 2
    22     18     27 1
    23     19     20 1
    24     19     31 1
    25     20     21 1
    26     21     22 2
    27     21     27 1
    28     22     23 1
    29     23     24 1
    30     23     25 2
    31     24     32 1
    32     24     33 1
    33     24     34 1
    34     25     26 1
    35     25     27 1
    36      8     26 2
    37     10     26 1
@<TRIPOS>SUBSTRUCTURE
     1 BB1          10
     2 BB2          26
@<TRIPOS>MOLECULE
EN300-7549830_i001_EN300-40334_i001_3_10_27
  40   43   2   0   0
SMALL
USER_CHARGES
@<TRIPOS>ATOM
     1 C1        25.5024    37.4938    38.8266 C.3        1 BB1          0.0000
     2 C2        26.4731    36.9930    39.8649 C.ar       1 BB1          0.0000
     3 C3        26.0375    36.7410    41.1577 C.ar       1 BB1          0.0000
     4 O4        24.7342    36.9456    41.4874 O.3        1 BB1          0.0000
     5 C5        26.9296    36.2801    42.1139 C.ar       1 BB1          0.0000
     6 C6        28.2553    36.0707    41.7816 C.ar       1 BB1          0.0000
     7 C7        28.6953    36.3215    40.4911 C.ar       1 BB1          0.0000
     8 N8        30.0398    36.1091    40.1542 N.2        1 BB1          0.0000
     9 C9        27.7987    36.7788    39.5276 C.ar       1 BB1          0.0000
    10 O10       28.2275    37.0253    38.2607 O.3        1 BB1          0.0000
    11 H11       25.4875    38.5837    38.8390 H          1 BB1          0.0000
    12 H12       25.8129    37.1459    37.8414 H          1 BB1          0.0000
    13 H13       24.5051    37.1142    39.0485 H          1 BB1          0.0000
    14 H14       26.5885    36.0850    43.1198 H          1 BB1          0.0000
    15 H15       28.9486    35.7116    42.5280 H          1 BB1          0.0000
    16 H16       24.1075    36.6660    40.8060 H          1 BB1          0.0000
    17 C1        30.3067    40.3188    36.9427 C.3        2 BB2          0.0000
    18 C2        29.5114    39.1279    37.4814 C.3        2 BB2          0.0000
    19 C3        28.2703    38.9092    36.6138 C.3        2 BB2          0.0000
    20 N4        30.3486    37.9261    37.4477 N.pl3      2 BB2          0.0000
    21 C5        30.3514    36.9078    38.3672 C.2        2 BB2          0.0000
    22 C6        29.4997    36.8458    39.5663 C.2        2 BB2          0.0000
    23 N8        31.2281    35.9982    38.0157 N.2        2 BB2          0.0000
    24 C9        31.8309    36.3657    36.8735 C.ar       2 BB2          0.0000
    25 C10       32.8227    35.7772    36.0750 C.ar       2 BB2          0.0000
    26 C11       33.2428    36.4058    34.9402 C.ar       2 BB2          0.0000
    27 C12       32.6991    37.6278    34.5617 C.ar       2 BB2          0.0000
    28 C13       31.7241    38.2275    35.3275 C.ar       2 BB2          0.0000
    29 C14       31.2758    37.6026    36.4853 C.ar       2 BB2          0.0000
    30 H15       29.6839    41.2129    36.9678 H          2 BB2          0.0000
    31 H16       31.1910    40.4746    37.5608 H          2 BB2          0.0000
    32 H17       30.6121    40.1173    35.9160 H          2 BB2          0.0000
    33 H18       29.2061    39.3293    38.5081 H          2 BB2          0.0000
    34 H19       28.5756    38.7077    35.5869 H          2 BB2          0.0000
    35 H20       27.7036    38.0607    36.9974 H          2 BB2          0.0000
    36 H21       27.6474    39.8033    36.6388 H          2 BB2          0.0000
    37 H23       33.2531    34.8281    36.3587 H          2 BB2          0.0000
    38 H24       34.0068    35.9491    34.3287 H          2 BB2          0.0000
    39 H25       33.0444    38.1112    33.6597 H          2 BB2          0.0000
    40 H26       31.3065    39.1771    35.0273 H          2 BB2          0.0000
@<TRIPOS>BOND
     1      1      2 1
     2      1     11 1
     3      1     12 1
     4      1     13 1
     5      2      3 ar
     6      2      9 ar
     7      3      4 1
     8      3      5 ar
     9      4     16 1
    10      5      6 ar
    11      5     14 1
    12      6      7 ar
    13      6     15 1
    14      7      8 1
    15      7      9 ar
    16      9     10 1
    17     17     18 1
    18     17     30 1
    19     17     31 1
    20     17     32 1
    21     18     19 1
    22     18     20 1
    23     18     33 1
    24     19     34 1
    25     19     35 1
    26     19     36 1
    27     20     21 1
    28     20     29 1
    29     21     22 1
    30     21     23 2
    31     23     24 1
    32     24     25 ar
    33     24     29 ar
    34     25     26 ar
    35     25     37 1
    36     26     27 ar
    37     26     38 1
    38     27     28 ar
    39     27     39 1
    40     28     29 ar
    41     28     40 1
    42      8     22 2
    43     10     22 1
@<TRIPOS>SUBSTRUCTURE
     1 BB1          10
     2 BB2          22
@<TRIPOS>MOLECULE
EN300-7549830_i001_EN300-40334_i001_3_17_27
  40   43   2   0   0
SMALL
USER_CHARGES
@<TRIPOS>ATOM
     1 C1        25.5024    37.4938    38.8266 C.3        1 BB1          0.0000
     2 C2        26.4731    36.9930    39.8649 C.ar       1 BB1          0.0000
     3 C3        26.0375    36.7410    41.1577 C.ar       1 BB1          0.0000
     4 O4        24.7342    36.9456    41.4874 O.3        1 BB1          0.0000
     5 C5        26.9296    36.2801    42.1139 C.ar       1 BB1          0.0000
     6 C6        28.2553    36.0707    41.7816 C.ar       1 BB1          0.0000
     7 C7        28.6953    36.3215    40.4911 C.ar       1 BB1          0.0000
     8 N8        30.0398    36.1091    40.1542 N.2        1 BB1          0.0000
     9 C9        27.7987    36.7788    39.5276 C.ar       1 BB1          0.0000
    10 O10       28.2275    37.0253    38.2607 O.3        1 BB1          0.0000
    11 H11       25.4875    38.5837    38.8390 H          1 BB1          0.0000
    12 H12       25.8129    37.1459    37.8414 H          1 BB1          0.0000
    13 H13       24.5051    37.1142    39.0485 H          1 BB1          0.0000
    14 H14       26.5885    36.0850    43.1198 H          1 BB1          0.0000
    15 H15       28.9486    35.7116    42.5280 H          1 BB1          0.0000
    16 H16       24.1075    36.6660    40.8060 H          1 BB1          0.0000
    17 C1        32.1968    35.7095    35.7685 C.3        2 BB2          0.0000
    18 C2        32.0084    35.8703    37.2783 C.3        2 BB2          0.0000
    19 C3        33.3009    36.4037    37.8995 C.3        2 BB2          0.0000
    20 N4        30.9172    36.8131    37.5367 N.pl3      2 BB2          0.0000
    21 C5        29.9079    36.6614    38.4536 C.2        2 BB2          0.0000
    22 C6        29.7442    35.5060    39.3510 C.2        2 BB2          0.0000
    23 N8        29.1111    37.7018    38.4091 N.2        2 BB2          0.0000
    24 C9        29.5479    38.5691    37.4816 C.ar       2 BB2          0.0000
    25 C10       29.0840    39.8147    37.0330 C.ar       2 BB2          0.0000
    26 C11       29.7584    40.4767    36.0501 C.ar       2 BB2          0.0000
    27 C12       30.9048    39.9319    35.4836 C.ar       2 BB2          0.0000
    28 C13       31.3818    38.7108    35.9054 C.ar       2 BB2          0.0000
    29 C14       30.7144    38.0202    36.9103 C.ar       2 BB2          0.0000
    30 H15       33.0086    35.0081    35.5763 H          2 BB2          0.0000
    31 H16       31.2759    35.3296    35.3259 H          2 BB2          0.0000
    32 H17       32.4398    36.6763    35.3276 H          2 BB2          0.0000
    33 H18       31.7654    34.9036    37.7192 H          2 BB2          0.0000
    34 H19       33.5440    37.3705    37.4587 H          2 BB2          0.0000
    35 H20       33.1668    36.5184    38.9752 H          2 BB2          0.0000
    36 H21       34.1128    35.7023    37.7073 H          2 BB2          0.0000
    37 H23       28.1942    40.2482    37.4652 H          2 BB2          0.0000
    38 H24       29.3974    41.4352    35.7076 H          2 BB2          0.0000
    39 H25       31.4257    40.4707    34.7057 H          2 BB2          0.0000
    40 H26       32.2729    38.2936    35.4604 H          2 BB2          0.0000
@<TRIPOS>BOND
     1      1      2 1
     2      1     11 1
     3      1     12 1
     4      1     13 1
     5      2      3 ar
     6      2      9 ar
     7      3      4 1
     8      3      5 ar
     9      4     16 1
    10      5      6 ar
    11      5     14 1
    12      6      7 ar
    13      6     15 1
    14      7      8 1
    15      7      9 ar
    16      9     10 1
    17     17     18 1
    18     17     30 1
    19     17     31 1
    20     17     32 1
    21     18     19 1
    22     18     20 1
    23     18     33 1
    24     19     34 1
    25     19     35 1
    26     19     36 1
    27     20     21 1
    28     20     29 1
    29     21     22 1
    30     21     23 2
    31     23     24 1
    32     24     25 ar
    33     24     29 ar
    34     25     26 ar
    35     25     37 1
    36     26     27 ar
    37     26     38 1
    38     27     28 ar
    39     27     39 1
    40     28     29 ar
    41     28     40 1
    42      8     22 2
    43     10     22 1
@<TRIPOS>SUBSTRUCTURE
     1 BB1          10
     2 BB2          22
@<TRIPOS>MOLECULE
EN300-7549830_i001_EN300-40334_i001_3_18_27
  40   43   2   0   0
SMALL
USER_CHARGES
@<TRIPOS>ATOM
     1 C1        25.5024    37.4938    38.8266 C.3        1 BB1          0.0000
     2 C2        26.4731    36.9930    39.8649 C.ar       1 BB1          0.0000
     3 C3        26.0375    36.7410    41.1577 C.ar       1 BB1          0.0000
     4 O4        24.7342    36.9456    41.4874 O.3        1 BB1          0.0000
     5 C5        26.9296    36.2801    42.1139 C.ar       1 BB1          0.0000
     6 C6        28.2553    36.0707    41.7816 C.ar       1 BB1          0.0000
     7 C7        28.6953    36.3215    40.4911 C.ar       1 BB1          0.0000
     8 N8        30.0398    36.1091    40.1542 N.2        1 BB1          0.0000
     9 C9        27.7987    36.7788    39.5276 C.ar       1 BB1          0.0000
    10 O10       28.2275    37.0253    38.2607 O.3        1 BB1          0.0000
    11 H11       25.4875    38.5837    38.8390 H          1 BB1          0.0000
    12 H12       25.8129    37.1459    37.8414 H          1 BB1          0.0000
    13 H13       24.5051    37.1142    39.0485 H          1 BB1          0.0000
    14 H14       26.5885    36.0850    43.1198 H          1 BB1          0.0000
    15 H15       28.9486    35.7116    42.5280 H          1 BB1          0.0000
    16 H16       24.1075    36.6660    40.8060 H          1 BB1          0.0000
    17 C1        31.9278    33.9811    37.9103 C.3        2 BB2          0.0000
    18 C2        32.1221    35.3946    38.4625 C.3        2 BB2          0.0000
    19 C3        33.5941    35.7929    38.3377 C.3        2 BB2          0.0000
    20 N4        31.2958    36.3343    37.7007 N.pl3      2 BB2          0.0000
    21 C5        30.0641    36.8177    38.0641 C.2        2 BB2          0.0000
    22 C6        29.3484    36.4698    39.3025 C.2        2 BB2          0.0000
    23 N8        29.6213    37.6365    37.1406 N.2        2 BB2          0.0000
    24 C9        30.5201    37.7296    36.1472 C.ar       2 BB2          0.0000
    25 C10       30.5540    38.4481    34.9429 C.ar       2 BB2          0.0000
    26 C11       31.6325    38.3370    34.1159 C.ar       2 BB2          0.0000
    27 C12       32.7042    37.5178    34.4513 C.ar       2 BB2          0.0000
    28 C13       32.6964    36.8015    35.6276 C.ar       2 BB2          0.0000
    29 C14       31.6105    36.9034    36.4893 C.ar       2 BB2          0.0000
    30 H15       32.5427    33.2818    38.4771 H          2 BB2          0.0000
    31 H16       30.8791    33.6972    37.9992 H          2 BB2          0.0000
    32 H17       32.2231    33.9569    36.8614 H          2 BB2          0.0000
    33 H18       31.8269    35.4188    39.5114 H          2 BB2          0.0000
    34 H19       33.8895    35.7688    37.2887 H          2 BB2          0.0000
    35 H20       33.7326    36.8001    38.7310 H          2 BB2          0.0000
    36 H21       34.2090    35.0938    38.9045 H          2 BB2          0.0000
    37 H23       29.7273    39.0877    34.6711 H          2 BB2          0.0000
    38 H24       31.6541    38.8918    33.1896 H          2 BB2          0.0000
    39 H25       33.5498    37.4420    33.7837 H          2 BB2          0.0000
    40 H26       33.5324    36.1667    35.8814 H          2 BB2          0.0000
@<TRIPOS>BOND
     1      1      2 1
     2      1     11 1
     3      1     12 1
     4      1     13 1
     5      2      3 ar
     6      2      9 ar
     7      3      4 1
     8      3      5 ar
     9      4     16 1
    10      5      6 ar
    11      5     14 1
    12      6      7 ar
    13      6     15 1
    14      7      8 1
    15      7      9 ar
    16      9     10 1
    17     17     18 1
    18     17     30 1
    19     17     31 1
    20     17     32 1
    21     18     19 1
    22     18     20 1
    23     18     33 1
    24     19     34 1
    25     19     35 1
    26     19     36 1
    27     20     21 1
    28     20     29 1
    29     21     22 1
    30     21     23 2
    31     23     24 1
    32     24     25 ar
    33     24     29 ar
    34     25     26 ar
    35     25     37 1
    36     26     27 ar
    37     26     38 1
    38     27     28 ar
    39     27     39 1
    40     28     29 ar
    41     28     40 1
    42      8     22 2
    43     10     22 1
@<TRIPOS>SUBSTRUCTURE
     1 BB1          10
     2 BB2          22
@<TRIPOS>MOLECULE
EN300-7549830_i001_EN300-45541_i001_3_3_27
  37   40   2   0   0
SMALL
USER_CHARGES
@<TRIPOS>ATOM
     1 C1        25.5024    37.4938    38.8266 C.3        1 BB1          0.0000
     2 C2        26.4731    36.9930    39.8649 C.ar       1 BB1          0.0000
     3 C3        26.0375    36.7410    41.1577 C.ar       1 BB1          0.0000
     4 O4        24.7342    36.9456    41.4874 O.3        1 BB1          0.0000
     5 C5        26.9296    36.2801    42.1139 C.ar       1 BB1          0.0000
     6 C6        28.2553    36.0707    41.7816 C.ar       1 BB1          0.0000
     7 C7        28.6953    36.3215    40.4911 C.ar       1 BB1          0.0000
     8 N8        30.0398    36.1091    40.1542 N.2        1 BB1          0.0000
     9 C9        27.7987    36.7788    39.5276 C.ar       1 BB1          0.0000
    10 O10       28.2275    37.0253    38.2607 O.3        1 BB1          0.0000
    11 H11       25.4875    38.5837    38.8390 H          1 BB1          0.0000
    12 H12       25.8129    37.1459    37.8414 H          1 BB1          0.0000
    13 H13       24.5051    37.1142    39.0485 H          1 BB1          0.0000
    14 H14       26.5885    36.0850    43.1198 H          1 BB1          0.0000
    15 H15       28.9486    35.7116    42.5280 H          1 BB1          0.0000
    16 H16       24.1075    36.6660    40.8060 H          1 BB1          0.0000
    17 C1        29.5209    40.3028    36.6992 C.3        2 BB2          0.0000
    18 C2        28.9029    38.9342    36.9926 C.3        2 BB2          0.0000
    19 N3        29.9673    37.9371    37.1304 N.pl3      2 BB2          0.0000
    20 C4        30.1309    37.0567    38.1700 C.2        2 BB2          0.0000
    21 C5        29.2505    36.9602    39.3459 C.2        2 BB2          0.0000
    22 N7        31.1904    36.3143    37.9570 N.2        2 BB2          0.0000
    23 C8        31.7626    36.6624    36.7931 C.ar       2 BB2          0.0000
    24 C9        32.8921    36.2032    36.0995 C.ar       2 BB2          0.0000
    25 C10       33.2320    36.7678    34.9057 C.ar       2 BB2          0.0000
    26 C11       32.4711    37.7971    34.3638 C.ar       2 BB2          0.0000
    27 C12       31.3575    38.2668    35.0241 C.ar       2 BB2          0.0000
    28 C13       30.9880    37.7026    36.2395 C.ar       2 BB2          0.0000
    29 H14       28.7289    41.0447    36.5968 H          2 BB2          0.0000
    30 H15       30.1809    40.5867    37.5189 H          2 BB2          0.0000
    31 H16       30.0931    40.2519    35.7729 H          2 BB2          0.0000
    32 H17       28.3306    38.9851    37.9190 H          2 BB2          0.0000
    33 H18       28.2430    38.6503    36.1730 H          2 BB2          0.0000
    34 H20       33.4916    35.4043    36.5103 H          2 BB2          0.0000
    35 H21       34.1026    36.4113    34.3754 H          2 BB2          0.0000
    36 H22       32.7558    38.2324    33.4173 H          2 BB2          0.0000
    37 H23       30.7713    39.0671    34.5971 H          2 BB2          0.0000
@<TRIPOS>BOND
     1      1      2 1
     2      1     11 1
     3      1     12 1
     4      1     13 1
     5      2      3 ar
     6      2      9 ar
     7      3      4 1
     8      3      5 ar
     9      4     16 1
    10      5      6 ar
    11      5     14 1
    12      6      7 ar
    13      6     15 1
    14      7      8 1
    15      7      9 ar
    16      9     10 1
    17     17     18 1
    18     17     29 1
    19     17     30 1
    20     17     31 1
    21     18     19 1
    22     18     32 1
    23     18     33 1
    24     19     20 1
    25     19     28 1
    26     20     21 1
    27     20     22 2
    28     22     23 1
    29     23     24 ar
    30     23     28 ar
    31     24     25 ar
    32     24     34 1
    33     25     26 ar
    34     25     35 1
    35     26     27 ar
    36     26     36 1
    37     27     28 ar
    38     27     37 1
    39      8     21 2
    40     10     21 1
@<TRIPOS>SUBSTRUCTURE
     1 BB1          10
     2 BB2          21
@<TRIPOS>MOLECULE
EN300-7549830_i001_EN300-45541_i001_3_8_27
  37   40   2   0   0
SMALL
USER_CHARGES
@<TRIPOS>ATOM
     1 C1        25.5024    37.4938    38.8266 C.3        1 BB1          0.0000
     2 C2        26.4731    36.9930    39.8649 C.ar       1 BB1          0.0000
     3 C3        26.0375    36.7410    41.1577 C.ar       1 BB1          0.0000
     4 O4        24.7342    36.9456    41.4874 O.3        1 BB1          0.0000
     5 C5        26.9296    36.2801    42.1139 C.ar       1 BB1          0.0000
     6 C6        28.2553    36.0707    41.7816 C.ar       1 BB1          0.0000
     7 C7        28.6953    36.3215    40.4911 C.ar       1 BB1          0.0000
     8 N8        30.0398    36.1091    40.1542 N.2        1 BB1          0.0000
     9 C9        27.7987    36.7788    39.5276 C.ar       1 BB1          0.0000
    10 O10       28.2275    37.0253    38.2607 O.3        1 BB1          0.0000
    11 H11       25.4875    38.5837    38.8390 H          1 BB1          0.0000
    12 H12       25.8129    37.1459    37.8414 H          1 BB1          0.0000
    13 H13       24.5051    37.1142    39.0485 H          1 BB1          0.0000
    14 H14       26.5885    36.0850    43.1198 H          1 BB1          0.0000
    15 H15       28.9486    35.7116    42.5280 H          1 BB1          0.0000
    16 H16       24.1075    36.6660    40.8060 H          1 BB1          0.0000
    17 C1        31.0251    34.2053    38.7991 C.3        2 BB2          0.0000
    18 C2        31.9511    35.4187    38.6940 C.3        2 BB2          0.0000
    19 N3        31.3759    36.3929    37.7633 N.pl3      2 BB2          0.0000
    20 C4        30.2144    37.1019    37.9390 C.2        2 BB2          0.0000
    21 C5        29.3310    37.0046    39.1127 C.2        2 BB2          0.0000
    22 N7        30.0108    37.8792    36.9031 N.2        2 BB2          0.0000
    23 C8        31.0060    37.7229    36.0151 C.ar       2 BB2          0.0000
    24 C9        31.2805    38.2963    34.7647 C.ar       2 BB2          0.0000
    25 C10       32.4009    37.9285    34.0801 C.ar       2 BB2          0.0000
    26 C11       33.2793    36.9887    34.6065 C.ar       2 BB2          0.0000
    27 C12       33.0336    36.4103    35.8321 C.ar       2 BB2          0.0000
    28 C13       31.9009    36.7741    36.5510 C.ar       2 BB2          0.0000
    29 H14       31.4531    33.4804    39.4916 H          2 BB2          0.0000
    30 H15       30.0487    34.5239    39.1640 H          2 BB2          0.0000
    31 H16       30.9139    33.7470    37.8163 H          2 BB2          0.0000
    32 H17       32.0624    35.8770    39.6767 H          2 BB2          0.0000
    33 H18       32.9275    35.1001    38.3290 H          2 BB2          0.0000
    34 H20       30.6054    39.0274    34.3448 H          2 BB2          0.0000
    35 H21       32.6079    38.3723    33.1175 H          2 BB2          0.0000
    36 H22       34.1616    36.7094    34.0498 H          2 BB2          0.0000
    37 H23       33.7205    35.6805    36.2347 H          2 BB2          0.0000
@<TRIPOS>BOND
     1      1      2 1
     2      1     11 1
     3      1     12 1
     4      1     13 1
     5      2      3 ar
     6      2      9 ar
     7      3      4 1
     8      3      5 ar
     9      4     16 1
    10      5      6 ar
    11      5     14 1
    12      6      7 ar
    13      6     15 1
    14      7      8 1
    15      7      9 ar
    16      9     10 1
    17     17     18 1
    18     17     29 1
    19     17     30 1
    20     17     31 1
    21     18     19 1
    22     18     32 1
    23     18     33 1
    24     19     20 1
    25     19     28 1
    26     20     21 1
    27     20     22 2
    28     22     23 1
    29     23     24 ar
    30     23     28 ar
    31     24     25 ar
    32     24     34 1
    33     25     26 ar
    34     25     35 1
    35     26     27 ar
    36     26     36 1
    37     27     28 ar
    38     27     37 1
    39      8     21 2
    40     10     21 1
@<TRIPOS>SUBSTRUCTURE
     1 BB1          10
     2 BB2          21
@<TRIPOS>MOLECULE
EN300-7549830_i001_EN300-76468_i001_3_5_27
  30   33   2   0   0
SMALL
USER_CHARGES
@<TRIPOS>ATOM
     1 C1        25.5024    37.4938    38.8266 C.3        1 BB1          0.0000
     2 C2        26.4731    36.9930    39.8649 C.ar       1 BB1          0.0000
     3 C3        26.0375    36.7410    41.1577 C.ar       1 BB1          0.0000
     4 O4        24.7342    36.9456    41.4874 O.3        1 BB1          0.0000
     5 C5        26.9296    36.2801    42.1139 C.ar       1 BB1          0.0000
     6 C6        28.2553    36.0707    41.7816 C.ar       1 BB1          0.0000
     7 C7        28.6953    36.3215    40.4911 C.ar       1 BB1          0.0000
     8 N8        30.0398    36.1091    40.1542 N.2        1 BB1          0.0000
     9 C9        27.7987    36.7788    39.5276 C.ar       1 BB1          0.0000
    10 O10       28.2275    37.0253    38.2607 O.3        1 BB1          0.0000
    11 H11       25.4875    38.5837    38.8390 H          1 BB1          0.0000
    12 H12       25.8129    37.1459    37.8414 H          1 BB1          0.0000
    13 H13       24.5051    37.1142    39.0485 H          1 BB1          0.0000
    14 H14       26.5885    36.0850    43.1198 H          1 BB1          0.0000
    15 H15       28.9486    35.7116    42.5280 H          1 BB1          0.0000
    16 H16       24.1075    36.6660    40.8060 H          1 BB1          0.0000
    17 C2        29.7266    37.1224    38.9485 C.2        2 BB2          0.0000
    18 C3        30.8024    36.4735    38.3023 C.2        2 BB2          0.0000
    19 C4        31.4626    35.3051    38.7358 C.2        2 BB2          0.0000
    20 N5        32.4013    35.0123    37.8772 N.2        2 BB2          0.0000
    21 N6        32.4091    35.9590    36.8472 N.pl3      2 BB2          0.0000
    22 C7        33.1844    36.0917    35.7345 C.2        2 BB2          0.0000
    23 C8        32.9604    37.1332    34.8920 C.2        2 BB2          0.0000
    24 C9        31.9404    38.0447    35.1853 C.2        2 BB2          0.0000
    25 N10       31.2090    37.8898    36.2679 N.2        2 BB2          0.0000
    26 C11       31.4198    36.8663    37.0946 C.2        2 BB2          0.0000
    27 H13       31.2303    34.7456    39.6299 H          2 BB2          0.0000
    28 H14       33.9675    35.3779    35.5252 H          2 BB2          0.0000
    29 H15       33.5638    37.2568    34.0049 H          2 BB2          0.0000
    30 H16       31.7534    38.8767    34.5224 H          2 BB2          0.0000
@<TRIPOS>BOND
     1      1      2 1
     2      1     11 1
     3      1     12 1
     4      1     13 1
     5      2      3 ar
     6      2      9 ar
     7      3      4 1
     8      3      5 ar
     9      4     16 1
    10      5      6 ar
    11      5     14 1
    12      6      7 ar
    13      6     15 1
    14      7      8 1
    15      7      9 ar
    16      9     10 1
    17     17     18 1
    18     18     19 1
    19     18     26 2
    20     19     20 2
    21     19     27 1
    22     20     21 1
    23     21     22 1
    24     21     26 1
    25     22     23 2
    26     22     28 1
    27     23     24 1
    28     23     29 1
    29     24     25 2
    30     24     30 1
    31     25     26 1
    32      8     17 2
    33     10     17 1
@<TRIPOS>SUBSTRUCTURE
     1 BB1          10
     2 BB2          17
@<TRIPOS>MOLECULE
EN300-7549830_i001_EN300-76468_i001_3_6_27
  30   33   2   0   0
SMALL
USER_CHARGES
@<TRIPOS>ATOM
     1 C1        25.5024    37.4938    38.8266 C.3        1 BB1          0.0000
     2 C2        26.4731    36.9930    39.8649 C.ar       1 BB1          0.0000
     3 C3        26.0375    36.7410    41.1577 C.ar       1 BB1          0.0000
     4 O4        24.7342    36.9456    41.4874 O.3        1 BB1          0.0000
     5 C5        26.9296    36.2801    42.1139 C.ar       1 BB1          0.0000
     6 C6        28.2553    36.0707    41.7816 C.ar       1 BB1          0.0000
     7 C7        28.6953    36.3215    40.4911 C.ar       1 BB1          0.0000
     8 N8        30.0398    36.1091    40.1542 N.2        1 BB1          0.0000
     9 C9        27.7987    36.7788    39.5276 C.ar       1 BB1          0.0000
    10 O10       28.2275    37.0253    38.2607 O.3        1 BB1          0.0000
    11 H11       25.4875    38.5837    38.8390 H          1 BB1          0.0000
    12 H12       25.8129    37.1459    37.8414 H          1 BB1          0.0000
    13 H13       24.5051    37.1142    39.0485 H          1 BB1          0.0000
    14 H14       26.5885    36.0850    43.1198 H          1 BB1          0.0000
    15 H15       28.9486    35.7116    42.5280 H          1 BB1          0.0000
    16 H16       24.1075    36.6660    40.8060 H          1 BB1          0.0000
    17 C2        29.5979    37.5613    38.3484 C.2        2 BB2          0.0000
    18 C3        30.7337    36.7857    38.0253 C.2        2 BB2          0.0000
    19 C4        31.2794    35.7340    38.7902 C.2        2 BB2          0.0000
    20 N5        32.3242    35.2617    38.1662 N.2        2 BB2          0.0000
    21 N6        32.5193    35.9672    36.9740 N.pl3      2 BB2          0.0000
    22 C7        33.4558    35.8570    35.9902 C.2        2 BB2          0.0000
    23 C8        33.3973    36.6960    34.9238 C.2        2 BB2          0.0000
    24 C9        32.3787    37.6528    34.8596 C.2        2 BB2          0.0000
    25 N10       31.4892    37.7347    35.8256 N.2        2 BB2          0.0000
    26 C11       31.5377    36.9100    36.8711 C.2        2 BB2          0.0000
    27 H13       30.8967    35.3787    39.7355 H          2 BB2          0.0000
    28 H14       34.2349    35.1121    36.0578 H          2 BB2          0.0000
    29 H15       34.1299    36.6255    34.1334 H          2 BB2          0.0000
    30 H16       32.3225    38.3251    34.0162 H          2 BB2          0.0000
@<TRIPOS>BOND
     1      1      2 1
     2      1     11 1
     3      1     12 1
     4      1     13 1
     5      2      3 ar
     6      2      9 ar
     7      3      4 1
     8      3      5 ar
     9      4     16 1
    10      5      6 ar
    11      5     14 1
    12      6      7 ar
    13      6     15 1
    14      7      8 1
    15      7      9 ar
    16      9     10 1
    17     17     18 1
    18     18     19 1
    19     18     26 2
    20     19     20 2
    21     19     27 1
    22     20     21 1
    23     21     22 1
    24     21     26 1
    25     22     23 2
    26     22     28 1
    27     23     24 1
    28     23     29 1
    29     24     25 2
    30     24     30 1
    31     25     26 1
    32      8     17 2
    33     10     17 1
@<TRIPOS>SUBSTRUCTURE
     1 BB1          10
     2 BB2          17
@<TRIPOS>MOLECULE
EN300-7549830_i001_EN300-76468_i001_3_9_27
  30   33   2   0   0
SMALL
USER_CHARGES
@<TRIPOS>ATOM
     1 C1        25.5024    37.4938    38.8266 C.3        1 BB1          0.0000
     2 C2        26.4731    36.9930    39.8649 C.ar       1 BB1          0.0000
     3 C3        26.0375    36.7410    41.1577 C.ar       1 BB1          0.0000
     4 O4        24.7342    36.9456    41.4874 O.3        1 BB1          0.0000
     5 C5        26.9296    36.2801    42.1139 C.ar       1 BB1          0.0000
     6 C6        28.2553    36.0707    41.7816 C.ar       1 BB1          0.0000
     7 C7        28.6953    36.3215    40.4911 C.ar       1 BB1          0.0000
     8 N8        30.0398    36.1091    40.1542 N.2        1 BB1          0.0000
     9 C9        27.7987    36.7788    39.5276 C.ar       1 BB1          0.0000
    10 O10       28.2275    37.0253    38.2607 O.3        1 BB1          0.0000
    11 H11       25.4875    38.5837    38.8390 H          1 BB1          0.0000
    12 H12       25.8129    37.1459    37.8414 H          1 BB1          0.0000
    13 H13       24.5051    37.1142    39.0485 H          1 BB1          0.0000
    14 H14       26.5885    36.0850    43.1198 H          1 BB1          0.0000
    15 H15       28.9486    35.7116    42.5280 H          1 BB1          0.0000
    16 H16       24.1075    36.6660    40.8060 H          1 BB1          0.0000
    17 C2        30.3496    36.6805    38.6479 C.2        2 BB2          0.0000
    18 C3        31.3912    36.5879    37.6980 C.2        2 BB2          0.0000
    19 C4        32.5733    35.8280    37.8174 C.2        2 BB2          0.0000
    20 N5        33.2896    35.9968    36.7391 N.2        2 BB2          0.0000
    21 N6        32.6265    36.8646    35.8647 N.pl3      2 BB2          0.0000
    22 C7        32.9541    37.3459    34.6326 C.2        2 BB2          0.0000
    23 C8        32.0983    38.1925    34.0037 C.2        2 BB2          0.0000
    24 C9        30.9019    38.5507    34.6341 C.2        2 BB2          0.0000
    25 N10       30.6140    38.0695    35.8243 N.2        2 BB2          0.0000
    26 C11       31.4466    37.2335    36.4433 C.2        2 BB2          0.0000
    27 H13       32.8416    35.2095    38.6610 H          2 BB2          0.0000
    28 H14       33.8828    37.0580    34.1622 H          2 BB2          0.0000
    29 H15       32.3391    38.5855    33.0270 H          2 BB2          0.0000
    30 H16       30.2139    39.2233    34.1433 H          2 BB2          0.0000
@<TRIPOS>BOND
     1      1      2 1
     2      1     11 1
     3      1     12 1
     4      1     13 1
     5      2      3 ar
     6      2      9 ar
     7      3      4 1
     8      3      5 ar
     9      4     16 1
    10      5      6 ar
    11      5     14 1
    12      6      7 ar
    13      6     15 1
    14      7      8 1
    15      7      9 ar
    16      9     10 1
    17     17     18 1
    18     18     19 1
    19     18     26 2
    20     19     20 2
    21     19     27 1
    22     20     21 1
    23     21     22 1
    24     21     26 1
    25     22     23 2
    26     22     28 1
    27     23     24 1
    28     23     29 1
    29     24     25 2
    30     24     30 1
    31     25     26 1
    32      8     17 2
    33     10     17 1
@<TRIPOS>SUBSTRUCTURE
     1 BB1          10
     2 BB2          17
@<TRIPOS>MOLECULE
EN300-7549830_i001_EN300-110529_i001_3_11_27
  35   37   2   0   0
SMALL
USER_CHARGES
@<TRIPOS>ATOM
     1 C1        25.5024    37.4938    38.8266 C.3        1 BB1          0.0000
     2 C2        26.4731    36.9930    39.8649 C.ar       1 BB1          0.0000
     3 C3        26.0375    36.7410    41.1577 C.ar       1 BB1          0.0000
     4 O4        24.7342    36.9456    41.4874 O.3        1 BB1          0.0000
     5 C5        26.9296    36.2801    42.1139 C.ar       1 BB1          0.0000
     6 C6        28.2553    36.0707    41.7816 C.ar       1 BB1          0.0000
     7 C7        28.6953    36.3215    40.4911 C.ar       1 BB1          0.0000
     8 N8        30.0398    36.1091    40.1542 N.2        1 BB1          0.0000
     9 C9        27.7987    36.7788    39.5276 C.ar       1 BB1          0.0000
    10 O10       28.2275    37.0253    38.2607 O.3        1 BB1          0.0000
    11 H11       25.4875    38.5837    38.8390 H          1 BB1          0.0000
    12 H12       25.8129    37.1459    37.8414 H          1 BB1          0.0000
    13 H13       24.5051    37.1142    39.0485 H          1 BB1          0.0000
    14 H14       26.5885    36.0850    43.1198 H          1 BB1          0.0000
    15 H15       28.9486    35.7116    42.5280 H          1 BB1          0.0000
    16 H16       24.1075    36.6660    40.8060 H          1 BB1          0.0000
    17 C1        31.8028    33.3968    38.3902 C.3        2 BB2          0.0000
    18 O2        31.3632    34.6843    38.8276 O.3        2 BB2          0.0000
    19 C3        31.4792    35.7071    37.9449 C.ar       2 BB2          0.0000
    20 C4        32.4088    35.6394    36.9179 C.ar       2 BB2          0.0000
    21 C5        32.5258    36.6815    36.0199 C.ar       2 BB2          0.0000
    22 C6        33.5385    36.5999    34.9069 C.3        2 BB2          0.0000
    23 C7        31.7179    37.8021    36.1348 C.ar       2 BB2          0.0000
    24 C8        30.7890    37.8888    37.1472 C.ar       2 BB2          0.0000
    25 C9        30.6546    36.8379    38.0626 C.ar       2 BB2          0.0000
    26 C10       29.6666    36.9225    39.1448 C.2        2 BB2          0.0000
    27 H12       31.6548    32.6713    39.1900 H          2 BB2          0.0000
    28 H13       31.2280    33.0948    37.5147 H          2 BB2          0.0000
    29 H14       32.8608    33.4425    38.1322 H          2 BB2          0.0000
    30 H15       33.0425    34.7702    36.8207 H          2 BB2          0.0000
    31 H16       33.0810    36.1369    34.0325 H          2 BB2          0.0000
    32 H17       33.8783    37.6034    34.6505 H          2 BB2          0.0000
    33 H18       34.3887    36.0005    35.2323 H          2 BB2          0.0000
    34 H19       31.8181    38.6114    35.4267 H          2 BB2          0.0000
    35 H20       30.1621    38.7641    37.2326 H          2 BB2          0.0000
@<TRIPOS>BOND
     1      1      2 1
     2      1     11 1
     3      1     12 1
     4      1     13 1
     5      2      3 ar
     6      2      9 ar
     7      3      4 1
     8      3      5 ar
     9      4     16 1
    10      5      6 ar
    11      5     14 1
    12      6      7 ar
    13      6     15 1
    14      7      8 1
    15      7      9 ar
    16      9     10 1
    17     17     18 1
    18     17     27 1
    19     17     28 1
    20     17     29 1
    21     18     19 1
    22     19     20 ar
    23     19     25 ar
    24     20     21 ar
    25     20     30 1
    26     21     22 1
    27     21     23 ar
    28     22     31 1
    29     22     32 1
    30     22     33 1
    31     23     24 ar
    32     23     34 1
    33     24     25 ar
    34     24     35 1
    35     25     26 1
    36      8     26 2
    37     10     26 1
@<TRIPOS>SUBSTRUCTURE
     1 BB1          10
     2 BB2          26
@<TRIPOS>MOLECULE
EN300-7549830_i001_EN300-75805_i001_3_10_27
  32   34   2   0   0
SMALL
USER_CHARGES
@<TRIPOS>ATOM
     1 C1        25.5024    37.4938    38.8266 C.3        1 BB1          0.0000
     2 C2        26.4731    36.9930    39.8649 C.ar       1 BB1          0.0000
     3 C3        26.0375    36.7410    41.1577 C.ar       1 BB1          0.0000
     4 O4        24.7342    36.9456    41.4874 O.3        1 BB1          0.0000
     5 C5        26.9296    36.2801    42.1139 C.ar       1 BB1          0.0000
     6 C6        28.2553    36.0707    41.7816 C.ar       1 BB1          0.0000
     7 C7        28.6953    36.3215    40.4911 C.ar       1 BB1          0.0000
     8 N8        30.0398    36.1091    40.1542 N.2        1 BB1          0.0000
     9 C9        27.7987    36.7788    39.5276 C.ar       1 BB1          0.0000
    10 O10       28.2275    37.0253    38.2607 O.3        1 BB1          0.0000
    11 H11       25.4875    38.5837    38.8390 H          1 BB1          0.0000
    12 H12       25.8129    37.1459    37.8414 H          1 BB1          0.0000
    13 H13       24.5051    37.1142    39.0485 H          1 BB1          0.0000
    14 H14       26.5885    36.0850    43.1198 H          1 BB1          0.0000
    15 H15       28.9486    35.7116    42.5280 H          1 BB1          0.0000
    16 H16       24.1075    36.6660    40.8060 H          1 BB1          0.0000
    17 F1        32.0762    38.2354    34.5325 F          2 BB2          0.0000
    18 C2        32.3644    37.0343    35.1895 C.3        2 BB2          0.0000
    19 F3        33.6777    36.6482    34.9005 F          2 BB2          0.0000
    20 O4        32.2207    37.2161    36.5995 O.3        2 BB2          0.0000
    21 C5        31.7971    36.1470    37.3180 C.ar       2 BB2          0.0000
    22 C6        32.5304    34.9703    37.3141 C.ar       2 BB2          0.0000
    23 C7        32.0988    33.8816    38.0460 C.ar       2 BB2          0.0000
    24 C8        30.9322    33.9528    38.7900 C.ar       2 BB2          0.0000
    25 C9        30.1876    35.1129    38.8076 C.ar       2 BB2          0.0000
    26 Cl10      28.7269    35.1951    39.7421 Cl         2 BB2          0.0000
    27 C11       30.6164    36.2281    38.0748 C.ar       2 BB2          0.0000
    28 C12       29.8309    37.4668    38.0875 C.2        2 BB2          0.0000
    29 H14       31.6755    36.2605    34.8508 H          2 BB2          0.0000
    30 H15       33.4409    34.9047    36.7370 H          2 BB2          0.0000
    31 H16       32.6747    32.9680    38.0381 H          2 BB2          0.0000
    32 H17       30.6043    33.0951    39.3585 H          2 BB2          0.0000
@<TRIPOS>BOND
     1      1      2 1
     2      1     11 1
     3      1     12 1
     4      1     13 1
     5      2      3 ar
     6      2      9 ar
     7      3      4 1
     8      3      5 ar
     9      4     16 1
    10      5      6 ar
    11      5     14 1
    12      6      7 ar
    13      6     15 1
    14      7      8 1
    15      7      9 ar
    16      9     10 1
    17     17     18 1
    18     18     19 1
    19     18     20 1
    20     18     29 1
    21     20     21 1
    22     21     22 ar
    23     21     27 ar
    24     22     23 ar
    25     22     30 1
    26     23     24 ar
    27     23     31 1
    28     24     25 ar
    29     24     32 1
    30     25     26 1
    31     25     27 ar
    32     27     28 1
    33      8     28 2
    34     10     28 1
@<TRIPOS>SUBSTRUCTURE
     1 BB1          10
     2 BB2          28
@<TRIPOS>MOLECULE
EN300-7549830_i001_EN300-83792_i001_3_19_27
  33   36   2   0   0
SMALL
USER_CHARGES
@<TRIPOS>ATOM
     1 C1        25.5024    37.4938    38.8266 C.3        1 BB1          0.0000
     2 C2        26.4731    36.9930    39.8649 C.ar       1 BB1          0.0000
     3 C3        26.0375    36.7410    41.1577 C.ar       1 BB1          0.0000
     4 O4        24.7342    36.9456    41.4874 O.3        1 BB1          0.0000
     5 C5        26.9296    36.2801    42.1139 C.ar       1 BB1          0.0000
     6 C6        28.2553    36.0707    41.7816 C.ar       1 BB1          0.0000
     7 C7        28.6953    36.3215    40.4911 C.ar       1 BB1          0.0000
     8 N8        30.0398    36.1091    40.1542 N.2        1 BB1          0.0000
     9 C9        27.7987    36.7788    39.5276 C.ar       1 BB1          0.0000
    10 O10       28.2275    37.0253    38.2607 O.3        1 BB1          0.0000
    11 H11       25.4875    38.5837    38.8390 H          1 BB1          0.0000
    12 H12       25.8129    37.1459    37.8414 H          1 BB1          0.0000
    13 H13       24.5051    37.1142    39.0485 H          1 BB1          0.0000
    14 H14       26.5885    36.0850    43.1198 H          1 BB1          0.0000
    15 H15       28.9486    35.7116    42.5280 H          1 BB1          0.0000
    16 H16       24.1075    36.6660    40.8060 H          1 BB1          0.0000
    17 C2        29.2738    37.3066    38.0893 C.2        2 BB2          0.0000
    18 C3        30.5834    36.7691    37.6843 C.ar       2 BB2          0.0000
    19 N4        31.2140    35.9020    38.4608 N.ar       2 BB2          0.0000
    20 C5        32.3882    35.3887    38.1479 C.ar       2 BB2          0.0000
    21 C6        33.0419    35.7240    36.9817 C.ar       2 BB2          0.0000
    22 C7        32.4353    36.6394    36.1050 C.ar       2 BB2          0.0000
    23 C8        33.0375    37.0313    34.8994 C.ar       2 BB2          0.0000
    24 C9        32.3997    37.9230    34.0912 C.ar       2 BB2          0.0000
    25 C10       31.1594    38.4517    34.4442 C.ar       2 BB2          0.0000
    26 C11       30.5470    38.0930    35.6077 C.ar       2 BB2          0.0000
    27 C12       31.1691    37.1735    36.4608 C.ar       2 BB2          0.0000
    28 H14       32.8507    34.6859    38.8251 H          2 BB2          0.0000
    29 H15       34.0030    35.2913    36.7463 H          2 BB2          0.0000
    30 H16       33.9986    36.6293    34.6151 H          2 BB2          0.0000
    31 H17       32.8623    38.2253    33.1632 H          2 BB2          0.0000
    32 H18       30.6758    39.1574    33.7849 H          2 BB2          0.0000
    33 H19       29.5859    38.5117    35.8676 H          2 BB2          0.0000
@<TRIPOS>BOND
     1      1      2 1
     2      1     11 1
     3      1     12 1
     4      1     13 1
     5      2      3 ar
     6      2      9 ar
     7      3      4 1
     8      3      5 ar
     9      4     16 1
    10      5      6 ar
    11      5     14 1
    12      6      7 ar
    13      6     15 1
    14      7      8 1
    15      7      9 ar
    16      9     10 1
    17     17     18 1
    18     18     19 ar
    19     18     27 ar
    20     19     20 ar
    21     20     21 ar
    22     20     28 1
    23     21     22 ar
    24     21     29 1
    25     22     23 ar
    26     22     27 ar
    27     23     24 ar
    28     23     30 1
    29     24     25 ar
    30     24     31 1
    31     25     26 ar
    32     25     32 1
    33     26     27 ar
    34     26     33 1
    35      8     17 2
    36     10     17 1
@<TRIPOS>SUBSTRUCTURE
     1 BB1          10
     2 BB2          17
@<TRIPOS>MOLECULE
EN300-7549830_i001_EN300-83792_i001_3_5_27
  33   36   2   0   0
SMALL
USER_CHARGES
@<TRIPOS>ATOM
     1 C1        25.5024    37.4938    38.8266 C.3        1 BB1          0.0000
     2 C2        26.4731    36.9930    39.8649 C.ar       1 BB1          0.0000
     3 C3        26.0375    36.7410    41.1577 C.ar       1 BB1          0.0000
     4 O4        24.7342    36.9456    41.4874 O.3        1 BB1          0.0000
     5 C5        26.9296    36.2801    42.1139 C.ar       1 BB1          0.0000
     6 C6        28.2553    36.0707    41.7816 C.ar       1 BB1          0.0000
     7 C7        28.6953    36.3215    40.4911 C.ar       1 BB1          0.0000
     8 N8        30.0398    36.1091    40.1542 N.2        1 BB1          0.0000
     9 C9        27.7987    36.7788    39.5276 C.ar       1 BB1          0.0000
    10 O10       28.2275    37.0253    38.2607 O.3        1 BB1          0.0000
    11 H11       25.4875    38.5837    38.8390 H          1 BB1          0.0000
    12 H12       25.8129    37.1459    37.8414 H          1 BB1          0.0000
    13 H13       24.5051    37.1142    39.0485 H          1 BB1          0.0000
    14 H14       26.5885    36.0850    43.1198 H          1 BB1          0.0000
    15 H15       28.9486    35.7116    42.5280 H          1 BB1          0.0000
    16 H16       24.1075    36.6660    40.8060 H          1 BB1          0.0000
    17 C2        29.6786    37.2693    38.9586 C.2        2 BB2          0.0000
    18 C3        30.6705    36.3563    38.3665 C.ar       2 BB2          0.0000
    19 N4        30.9235    35.1896    38.9384 N.ar       2 BB2          0.0000
    20 C5        31.8012    34.3335    38.4518 C.ar       2 BB2          0.0000
    21 C6        32.5192    34.5993    37.3057 C.ar       2 BB2          0.0000
    22 C7        32.3058    35.8188    36.6410 C.ar       2 BB2          0.0000
    23 C8        32.9978    36.1625    35.4694 C.ar       2 BB2          0.0000
    24 C9        32.7473    37.3601    34.8707 C.ar       2 BB2          0.0000
    25 C10       31.8152    38.2481    35.4047 C.ar       2 BB2          0.0000
    26 C11       31.1261    37.9459    36.5410 C.ar       2 BB2          0.0000
    27 C12       31.3519    36.7210    37.1807 C.ar       2 BB2          0.0000
    28 H14       31.9621    33.3977    38.9664 H          2 BB2          0.0000
    29 H15       33.2329    33.8834    36.9257 H          2 BB2          0.0000
    30 H16       33.7230    35.4834    35.0463 H          2 BB2          0.0000
    31 H17       33.2793    37.6257    33.9691 H          2 BB2          0.0000
    32 H18       31.6362    39.1913    34.9098 H          2 BB2          0.0000
    33 H19       30.4072    38.6446    36.9428 H          2 BB2          0.0000
@<TRIPOS>BOND
     1      1      2 1
     2      1     11 1
     3      1     12 1
     4      1     13 1
     5      2      3 ar
     6      2      9 ar
     7      3      4 1
     8      3      5 ar
     9      4     16 1
    10      5      6 ar
    11      5     14 1
    12      6      7 ar
    13      6     15 1
    14      7      8 1
    15      7      9 ar
    16      9     10 1
    17     17     18 1
    18     18     19 ar
    19     18     27 ar
    20     19     20 ar
    21     20     21 ar
    22     20     28 1
    23     21     22 ar
    24     21     29 1
    25     22     23 ar
    26     22     27 ar
    27     23     24 ar
    28     23     30 1
    29     24     25 ar
    30     24     31 1
    31     25     26 ar
    32     25     32 1
    33     26     27 ar
    34     26     33 1
    35      8     17 2
    36     10     17 1
@<TRIPOS>SUBSTRUCTURE
     1 BB1          10
     2 BB2          17
@<TRIPOS>MOLECULE
EN300-7549830_i001_EN300-83792_i001_3_7_27
  33   36   2   0   0
SMALL
USER_CHARGES
@<TRIPOS>ATOM
     1 C1        25.5024    37.4938    38.8266 C.3        1 BB1          0.0000
     2 C2        26.4731    36.9930    39.8649 C.ar       1 BB1          0.0000
     3 C3        26.0375    36.7410    41.1577 C.ar       1 BB1          0.0000
     4 O4        24.7342    36.9456    41.4874 O.3        1 BB1          0.0000
     5 C5        26.9296    36.2801    42.1139 C.ar       1 BB1          0.0000
     6 C6        28.2553    36.0707    41.7816 C.ar       1 BB1          0.0000
     7 C7        28.6953    36.3215    40.4911 C.ar       1 BB1          0.0000
     8 N8        30.0398    36.1091    40.1542 N.2        1 BB1          0.0000
     9 C9        27.7987    36.7788    39.5276 C.ar       1 BB1          0.0000
    10 O10       28.2275    37.0253    38.2607 O.3        1 BB1          0.0000
    11 H11       25.4875    38.5837    38.8390 H          1 BB1          0.0000
    12 H12       25.8129    37.1459    37.8414 H          1 BB1          0.0000
    13 H13       24.5051    37.1142    39.0485 H          1 BB1          0.0000
    14 H14       26.5885    36.0850    43.1198 H          1 BB1          0.0000
    15 H15       28.9486    35.7116    42.5280 H          1 BB1          0.0000
    16 H16       24.1075    36.6660    40.8060 H          1 BB1          0.0000
    17 C2        30.0075    36.6634    38.7307 C.2        2 BB2          0.0000
    18 C3        30.1955    37.6334    37.6391 C.ar       2 BB2          0.0000
    19 N4        29.4500    38.7261    37.5864 N.ar       2 BB2          0.0000
    20 C5        29.5753    39.6282    36.6322 C.ar       2 BB2          0.0000
    21 C6        30.4986    39.4917    35.6180 C.ar       2 BB2          0.0000
    22 C7        31.3274    38.3570    35.6055 C.ar       2 BB2          0.0000
    23 C8        32.2908    38.1461    34.6071 C.ar       2 BB2          0.0000
    24 C9        33.0645    37.0258    34.6490 C.ar       2 BB2          0.0000
    25 C10       32.9127    36.0868    35.6679 C.ar       2 BB2          0.0000
    26 C11       31.9867    36.2605    36.6526 C.ar       2 BB2          0.0000
    27 C12       31.1777    37.4034    36.6463 C.ar       2 BB2          0.0000
    28 H14       28.9358    40.4984    36.6457 H          2 BB2          0.0000
    29 H15       30.5833    40.2430    34.8468 H          2 BB2          0.0000
    30 H16       32.4176    38.8658    33.8120 H          2 BB2          0.0000
    31 H17       33.8062    36.8624    33.8812 H          2 BB2          0.0000
    32 H18       33.5392    35.2071    35.6770 H          2 BB2          0.0000
    33 H19       31.8807    35.5238    37.4352 H          2 BB2          0.0000
@<TRIPOS>BOND
     1      1      2 1
     2      1     11 1
     3      1     12 1
     4      1     13 1
     5      2      3 ar
     6      2      9 ar
     7      3      4 1
     8      3      5 ar
     9      4     16 1
    10      5      6 ar
    11      5     14 1
    12      6      7 ar
    13      6     15 1
    14      7      8 1
    15      7      9 ar
    16      9     10 1
    17     17     18 1
    18     18     19 ar
    19     18     27 ar
    20     19     20 ar
    21     20     21 ar
    22     20     28 1
    23     21     22 ar
    24     21     29 1
    25     22     23 ar
    26     22     27 ar
    27     23     24 ar
    28     23     30 1
    29     24     25 ar
    30     24     31 1
    31     25     26 ar
    32     25     32 1
    33     26     27 ar
    34     26     33 1
    35      8     17 2
    36     10     17 1
@<TRIPOS>SUBSTRUCTURE
     1 BB1          10
     2 BB2          17
@<TRIPOS>MOLECULE
EN300-7549830_i001_EN300-100613_i001_3_10_27
  32   35   2   0   0
SMALL
USER_CHARGES
@<TRIPOS>ATOM
     1 C1        25.5024    37.4938    38.8266 C.3        1 BB1          0.0000
     2 C2        26.4731    36.9930    39.8649 C.ar       1 BB1          0.0000
     3 C3        26.0375    36.7410    41.1577 C.ar       1 BB1          0.0000
     4 O4        24.7342    36.9456    41.4874 O.3        1 BB1          0.0000
     5 C5        26.9296    36.2801    42.1139 C.ar       1 BB1          0.0000
     6 C6        28.2553    36.0707    41.7816 C.ar       1 BB1          0.0000
     7 C7        28.6953    36.3215    40.4911 C.ar       1 BB1          0.0000
     8 N8        30.0398    36.1091    40.1542 N.2        1 BB1          0.0000
     9 C9        27.7987    36.7788    39.5276 C.ar       1 BB1          0.0000
    10 O10       28.2275    37.0253    38.2607 O.3        1 BB1          0.0000
    11 H11       25.4875    38.5837    38.8390 H          1 BB1          0.0000
    12 H12       25.8129    37.1459    37.8414 H          1 BB1          0.0000
    13 H13       24.5051    37.1142    39.0485 H          1 BB1          0.0000
    14 H14       26.5885    36.0850    43.1198 H          1 BB1          0.0000
    15 H15       28.9486    35.7116    42.5280 H          1 BB1          0.0000
    16 H16       24.1075    36.6660    40.8060 H          1 BB1          0.0000
    17 F1        32.4315    35.4109    37.7051 F          2 BB2          0.0000
    18 C2        32.1714    36.3091    36.7300 C.ar       2 BB2          0.0000
    19 C3        32.9828    36.3777    35.6150 C.ar       2 BB2          0.0000
    20 C4        32.7168    37.2991    34.6135 C.ar       2 BB2          0.0000
    21 C5        31.6434    38.1573    34.7152 C.ar       2 BB2          0.0000
    22 C6        30.8136    38.1041    35.8308 C.ar       2 BB2          0.0000
    23 N7        29.6919    38.8160    36.2049 N.pl3      2 BB2          0.0000
    24 C8        29.2327    38.3893    37.3972 C.2        2 BB2          0.0000
    25 C9        30.0357    37.3714    37.8650 C.2        2 BB2          0.0000
    26 C10       29.8862    36.6600    39.0817 C.2        2 BB2          0.0000
    27 C12       31.0795    37.1674    36.8411 C.ar       2 BB2          0.0000
    28 H13       33.8279    35.7114    35.5227 H          2 BB2          0.0000
    29 H14       33.3575    37.3448    33.7452 H          2 BB2          0.0000
    30 H15       31.4465    38.8713    33.9291 H          2 BB2          0.0000
    31 H16       28.3673    38.7845    37.9086 H          2 BB2          0.0000
    32 H18       29.2897    39.5266    35.6812 H          2 BB2          0.0000
@<TRIPOS>BOND
     1      1      2 1
     2      1     11 1
     3      1     12 1
     4      1     13 1
     5      2      3 ar
     6      2      9 ar
     7      3      4 1
     8      3      5 ar
     9      4     16 1
    10      5      6 ar
    11      5     14 1
    12      6      7 ar
    13      6     15 1
    14      7      8 1
    15      7      9 ar
    16      9     10 1
    17     17     18 1
    18     18     19 ar
    19     18     27 ar
    20     19     20 ar
    21     19     28 1
    22     20     21 ar
    23     20     29 1
    24     21     22 ar
    25     21     30 1
    26     22     23 1
    27     22     27 ar
    28     23     24 1
    29     23     32 1
    30     24     25 2
    31     24     31 1
    32     25     26 1
    33     25     27 1
    34      8     26 2
    35     10     26 1
@<TRIPOS>SUBSTRUCTURE
     1 BB1          10
     2 BB2          26
@<TRIPOS>MOLECULE
EN300-7549830_i001_EN300-100613_i001_3_15_27
  32   35   2   0   0
SMALL
USER_CHARGES
@<TRIPOS>ATOM
     1 C1        25.5024    37.4938    38.8266 C.3        1 BB1          0.0000
     2 C2        26.4731    36.9930    39.8649 C.ar       1 BB1          0.0000
     3 C3        26.0375    36.7410    41.1577 C.ar       1 BB1          0.0000
     4 O4        24.7342    36.9456    41.4874 O.3        1 BB1          0.0000
     5 C5        26.9296    36.2801    42.1139 C.ar       1 BB1          0.0000
     6 C6        28.2553    36.0707    41.7816 C.ar       1 BB1          0.0000
     7 C7        28.6953    36.3215    40.4911 C.ar       1 BB1          0.0000
     8 N8        30.0398    36.1091    40.1542 N.2        1 BB1          0.0000
     9 C9        27.7987    36.7788    39.5276 C.ar       1 BB1          0.0000
    10 O10       28.2275    37.0253    38.2607 O.3        1 BB1          0.0000
    11 H11       25.4875    38.5837    38.8390 H          1 BB1          0.0000
    12 H12       25.8129    37.1459    37.8414 H          1 BB1          0.0000
    13 H13       24.5051    37.1142    39.0485 H          1 BB1          0.0000
    14 H14       26.5885    36.0850    43.1198 H          1 BB1          0.0000
    15 H15       28.9486    35.7116    42.5280 H          1 BB1          0.0000
    16 H16       24.1075    36.6660    40.8060 H          1 BB1          0.0000
    17 F1        30.0559    38.5856    35.6803 F          2 BB2          0.0000
    18 C2        31.1321    37.7709    35.7393 C.ar       2 BB2          0.0000
    19 C3        32.0623    37.7746    34.7192 C.ar       2 BB2          0.0000
    20 C4        33.1673    36.9389    34.7786 C.ar       2 BB2          0.0000
    21 C5        33.3531    36.0950    35.8521 C.ar       2 BB2          0.0000
    22 C6        32.4272    36.0763    36.8906 C.ar       2 BB2          0.0000
    23 N7        32.3452    35.3579    38.0663 N.pl3      2 BB2          0.0000
    24 C8        31.2398    35.6988    38.7565 C.2        2 BB2          0.0000
    25 C9        30.5398    36.6624    38.0629 C.2        2 BB2          0.0000
    26 C10       29.3254    37.2796    38.4542 C.2        2 BB2          0.0000
    27 C12       31.3124    36.9265    36.8329 C.ar       2 BB2          0.0000
    28 H13       31.9288    38.4305    33.8715 H          2 BB2          0.0000
    29 H14       33.8893    36.9493    33.9754 H          2 BB2          0.0000
    30 H15       34.2172    35.4481    35.8873 H          2 BB2          0.0000
    31 H16       30.9467    35.2808    39.7083 H          2 BB2          0.0000
    32 H18       32.9943    34.6978    38.3555 H          2 BB2          0.0000
@<TRIPOS>BOND
     1      1      2 1
     2      1     11 1
     3      1     12 1
     4      1     13 1
     5      2      3 ar
     6      2      9 ar
     7      3      4 1
     8      3      5 ar
     9      4     16 1
    10      5      6 ar
    11      5     14 1
    12      6      7 ar
    13      6     15 1
    14      7      8 1
    15      7      9 ar
    16      9     10 1
    17     17     18 1
    18     18     19 ar
    19     18     27 ar
    20     19     20 ar
    21     19     28 1
    22     20     21 ar
    23     20     29 1
    24     21     22 ar
    25     21     30 1
    26     22     23 1
    27     22     27 ar
    28     23     24 1
    29     23     32 1
    30     24     25 2
    31     24     31 1
    32     25     26 1
    33     25     27 1
    34      8     26 2
    35     10     26 1
@<TRIPOS>SUBSTRUCTURE
     1 BB1          10
     2 BB2          26
@<TRIPOS>MOLECULE
EN300-7549830_i001_EN300-100613_i001_3_6_27
  32   35   2   0   0
SMALL
USER_CHARGES
@<TRIPOS>ATOM
     1 C1        25.5024    37.4938    38.8266 C.3        1 BB1          0.0000
     2 C2        26.4731    36.9930    39.8649 C.ar       1 BB1          0.0000
     3 C3        26.0375    36.7410    41.1577 C.ar       1 BB1          0.0000
     4 O4        24.7342    36.9456    41.4874 O.3        1 BB1          0.0000
     5 C5        26.9296    36.2801    42.1139 C.ar       1 BB1          0.0000
     6 C6        28.2553    36.0707    41.7816 C.ar       1 BB1          0.0000
     7 C7        28.6953    36.3215    40.4911 C.ar       1 BB1          0.0000
     8 N8        30.0398    36.1091    40.1542 N.2        1 BB1          0.0000
     9 C9        27.7987    36.7788    39.5276 C.ar       1 BB1          0.0000
    10 O10       28.2275    37.0253    38.2607 O.3        1 BB1          0.0000
    11 H11       25.4875    38.5837    38.8390 H          1 BB1          0.0000
    12 H12       25.8129    37.1459    37.8414 H          1 BB1          0.0000
    13 H13       24.5051    37.1142    39.0485 H          1 BB1          0.0000
    14 H14       26.5885    36.0850    43.1198 H          1 BB1          0.0000
    15 H15       28.9486    35.7116    42.5280 H          1 BB1          0.0000
    16 H16       24.1075    36.6660    40.8060 H          1 BB1          0.0000
    17 F1        30.0623    38.9640    36.6439 F          2 BB2          0.0000
    18 C2        31.0553    38.1022    36.3333 C.ar       2 BB2          0.0000
    19 C3        31.8108    38.2952    35.1940 C.ar       2 BB2          0.0000
    20 C4        32.8302    37.4113    34.8741 C.ar       2 BB2          0.0000
    21 C5        33.1038    36.3309    35.6847 C.ar       2 BB2          0.0000
    22 C6        32.3539    36.1189    36.8375 C.ar       2 BB2          0.0000
    23 N7        32.3915    35.1507    37.8205 N.pl3      2 BB2          0.0000
    24 C8        31.4436    35.3787    38.7500 C.2        2 BB2          0.0000
    25 C9        30.7349    36.5137    38.4195 C.2        2 BB2          0.0000
    26 C10       29.6584    37.0857    39.1425 C.2        2 BB2          0.0000
    27 C12       31.3265    37.0170    37.1640 C.ar       2 BB2          0.0000
    28 H13       31.6068    39.1374    34.5493 H          2 BB2          0.0000
    29 H14       33.4156    37.5710    33.9806 H          2 BB2          0.0000
    30 H15       33.8998    35.6488    35.4251 H          2 BB2          0.0000
    31 H16       31.2661    34.7657    39.6213 H          2 BB2          0.0000
    32 H18       33.0147    34.4076    37.8390 H          2 BB2          0.0000
@<TRIPOS>BOND
     1      1      2 1
     2      1     11 1
     3      1     12 1
     4      1     13 1
     5      2      3 ar
     6      2      9 ar
     7      3      4 1
     8      3      5 ar
     9      4     16 1
    10      5      6 ar
    11      5     14 1
    12      6      7 ar
    13      6     15 1
    14      7      8 1
    15      7      9 ar
    16      9     10 1
    17     17     18 1
    18     18     19 ar
    19     18     27 ar
    20     19     20 ar
    21     19     28 1
    22     20     21 ar
    23     20     29 1
    24     21     22 ar
    25     21     30 1
    26     22     23 1
    27     22     27 ar
    28     23     24 1
    29     23     32 1
    30     24     25 2
    31     24     31 1
    32     25     26 1
    33     25     27 1
    34      8     26 2
    35     10     26 1
@<TRIPOS>SUBSTRUCTURE
     1 BB1          10
     2 BB2          26
@<TRIPOS>MOLECULE
EN300-7549830_i001_EN300-126376_i001_3_16_27
  35   37   2   0   0
SMALL
USER_CHARGES
@<TRIPOS>ATOM
     1 C1        25.5024    37.4938    38.8266 C.3        1 BB1          0.0000
     2 C2        26.4731    36.9930    39.8649 C.ar       1 BB1          0.0000
     3 C3        26.0375    36.7410    41.1577 C.ar       1 BB1          0.0000
     4 O4        24.7342    36.9456    41.4874 O.3        1 BB1          0.0000
     5 C5        26.9296    36.2801    42.1139 C.ar       1 BB1          0.0000
     6 C6        28.2553    36.0707    41.7816 C.ar       1 BB1          0.0000
     7 C7        28.6953    36.3215    40.4911 C.ar       1 BB1          0.0000
     8 N8        30.0398    36.1091    40.1542 N.2        1 BB1          0.0000
     9 C9        27.7987    36.7788    39.5276 C.ar       1 BB1          0.0000
    10 O10       28.2275    37.0253    38.2607 O.3        1 BB1          0.0000
    11 H11       25.4875    38.5837    38.8390 H          1 BB1          0.0000
    12 H12       25.8129    37.1459    37.8414 H          1 BB1          0.0000
    13 H13       24.5051    37.1142    39.0485 H          1 BB1          0.0000
    14 H14       26.5885    36.0850    43.1198 H          1 BB1          0.0000
    15 H15       28.9486    35.7116    42.5280 H          1 BB1          0.0000
    16 H16       24.1075    36.6660    40.8060 H          1 BB1          0.0000
    17 C1        32.1060    38.1833    34.0007 C.3        2 BB2          0.0000
    18 O2        32.1362    38.1355    35.4516 O.3        2 BB2          0.0000
    19 C3        32.6012    37.0092    36.0147 C.2        2 BB2          0.0000
    20 O4        32.9905    36.1018    35.3183 O.2        2 BB2          0.0000
    21 C5        32.6379    36.8766    37.5154 C.3        2 BB2          0.0000
    22 N6        31.9900    35.6236    37.9109 N.pl3      2 BB2          0.0000
    23 C7        32.4321    34.3835    37.6178 C.2        2 BB2          0.0000
    24 C8        31.5781    33.4723    38.1473 C.2        2 BB2          0.0000
    25 C9        30.5583    34.1678    38.7991 C.2        2 BB2          0.0000
    26 C10       30.8306    35.5167    38.6491 C.2        2 BB2          0.0000
    27 C11       30.0570    36.5875    39.1521 C.2        2 BB2          0.0000
    28 H13       31.7097    39.1457    33.6770 H          2 BB2          0.0000
    29 H14       33.1165    38.0571    33.6119 H          2 BB2          0.0000
    30 H15       31.4692    37.3829    33.6240 H          2 BB2          0.0000
    31 H16       33.6738    36.8728    37.8546 H          2 BB2          0.0000
    32 H17       32.1107    37.7167    37.9673 H          2 BB2          0.0000
    33 H18       33.3228    34.1531    37.0524 H          2 BB2          0.0000
    34 H19       31.6707    32.3985    38.0766 H          2 BB2          0.0000
    35 H20       29.7191    33.7356    39.3237 H          2 BB2          0.0000
@<TRIPOS>BOND
     1      1      2 1
     2      1     11 1
     3      1     12 1
     4      1     13 1
     5      2      3 ar
     6      2      9 ar
     7      3      4 1
     8      3      5 ar
     9      4     16 1
    10      5      6 ar
    11      5     14 1
    12      6      7 ar
    13      6     15 1
    14      7      8 1
    15      7      9 ar
    16      9     10 1
    17     17     18 1
    18     17     28 1
    19     17     29 1
    20     17     30 1
    21     18     19 1
    22     19     20 2
    23     19     21 1
    24     21     22 1
    25     21     31 1
    26     21     32 1
    27     22     23 1
    28     22     26 1
    29     23     24 2
    30     23     33 1
    31     24     25 1
    32     24     34 1
    33     25     26 2
    34     25     35 1
    35     26     27 1
    36      8     27 2
    37     10     27 1
@<TRIPOS>SUBSTRUCTURE
     1 BB1          10
     2 BB2          27
@<TRIPOS>MOLECULE
EN300-7549830_i001_EN300-135785_i001_3_8_27
  33   35   2   0   0
SMALL
USER_CHARGES
@<TRIPOS>ATOM
     1 C1        25.5024    37.4938    38.8266 C.3        1 BB1          0.0000
     2 C2        26.4731    36.9930    39.8649 C.ar       1 BB1          0.0000
     3 C3        26.0375    36.7410    41.1577 C.ar       1 BB1          0.0000
     4 O4        24.7342    36.9456    41.4874 O.3        1 BB1          0.0000
     5 C5        26.9296    36.2801    42.1139 C.ar       1 BB1          0.0000
     6 C6        28.2553    36.0707    41.7816 C.ar       1 BB1          0.0000
     7 C7        28.6953    36.3215    40.4911 C.ar       1 BB1          0.0000
     8 N8        30.0398    36.1091    40.1542 N.2        1 BB1          0.0000
     9 C9        27.7987    36.7788    39.5276 C.ar       1 BB1          0.0000
    10 O10       28.2275    37.0253    38.2607 O.3        1 BB1          0.0000
    11 H11       25.4875    38.5837    38.8390 H          1 BB1          0.0000
    12 H12       25.8129    37.1459    37.8414 H          1 BB1          0.0000
    13 H13       24.5051    37.1142    39.0485 H          1 BB1          0.0000
    14 H14       26.5885    36.0850    43.1198 H          1 BB1          0.0000
    15 H15       28.9486    35.7116    42.5280 H          1 BB1          0.0000
    16 H16       24.1075    36.6660    40.8060 H          1 BB1          0.0000
    17 C1        33.3329    36.6467    34.9096 C.3        2 BB2          0.0000
    18 O2        32.6722    37.4140    35.9180 O.3        2 BB2          0.0000
    19 C3        31.9825    36.7245    36.8658 C.ar       2 BB2          0.0000
    20 C4        32.3360    35.4202    37.1670 C.ar       2 BB2          0.0000
    21 C5        31.6386    34.7094    38.1321 C.ar       2 BB2          0.0000
    22 Cl6       32.0944    33.0747    38.4979 Cl         2 BB2          0.0000
    23 C7        30.5861    35.2936    38.8023 C.ar       2 BB2          0.0000
    24 C8        30.2157    36.6124    38.5094 C.ar       2 BB2          0.0000
    25 C9        29.0954    37.2399    39.2207 C.2        2 BB2          0.0000
    26 C11       30.9258    37.3320    37.5364 C.ar       2 BB2          0.0000
    27 O12       30.5768    38.6104    37.2435 O.3        2 BB2          0.0000
    28 H13       33.8437    37.3176    34.2189 H          2 BB2          0.0000
    29 H14       34.0606    35.9830    35.3766 H          2 BB2          0.0000
    30 H15       32.5983    36.0542    34.3642 H          2 BB2          0.0000
    31 H16       33.1596    34.9535    36.6471 H          2 BB2          0.0000
    32 H17       30.0465    34.7350    39.5529 H          2 BB2          0.0000
    33 H19       31.2591    39.1058    36.7700 H          2 BB2          0.0000
@<TRIPOS>BOND
     1      1      2 1
     2      1     11 1
     3      1     12 1
     4      1     13 1
     5      2      3 ar
     6      2      9 ar
     7      3      4 1
     8      3      5 ar
     9      4     16 1
    10      5      6 ar
    11      5     14 1
    12      6      7 ar
    13      6     15 1
    14      7      8 1
    15      7      9 ar
    16      9     10 1
    17     17     18 1
    18     17     28 1
    19     17     29 1
    20     17     30 1
    21     18     19 1
    22     19     20 ar
    23     19     26 ar
    24     20     21 ar
    25     20     31 1
    26     21     22 1
    27     21     23 ar
    28     23     24 ar
    29     23     32 1
    30     24     25 1
    31     24     26 ar
    32     26     27 1
    33     27     33 1
    34      8     25 2
    35     10     25 1
@<TRIPOS>SUBSTRUCTURE
     1 BB1          10
     2 BB2          25
@<TRIPOS>MOLECULE
EN300-7549830_i001_EN300-104126_i001_3_13_27
  30   33   2   0   0
SMALL
USER_CHARGES
@<TRIPOS>ATOM
     1 C1        25.5024    37.4938    38.8266 C.3        1 BB1          0.0000
     2 C2        26.4731    36.9930    39.8649 C.ar       1 BB1          0.0000
     3 C3        26.0375    36.7410    41.1577 C.ar       1 BB1          0.0000
     4 O4        24.7342    36.9456    41.4874 O.3        1 BB1          0.0000
     5 C5        26.9296    36.2801    42.1139 C.ar       1 BB1          0.0000
     6 C6        28.2553    36.0707    41.7816 C.ar       1 BB1          0.0000
     7 C7        28.6953    36.3215    40.4911 C.ar       1 BB1          0.0000
     8 N8        30.0398    36.1091    40.1542 N.2        1 BB1          0.0000
     9 C9        27.7987    36.7788    39.5276 C.ar       1 BB1          0.0000
    10 O10       28.2275    37.0253    38.2607 O.3        1 BB1          0.0000
    11 H11       25.4875    38.5837    38.8390 H          1 BB1          0.0000
    12 H12       25.8129    37.1459    37.8414 H          1 BB1          0.0000
    13 H13       24.5051    37.1142    39.0485 H          1 BB1          0.0000
    14 H14       26.5885    36.0850    43.1198 H          1 BB1          0.0000
    15 H15       28.9486    35.7116    42.5280 H          1 BB1          0.0000
    16 H16       24.1075    36.6660    40.8060 H          1 BB1          0.0000
    17 C2        29.6470    37.0787    38.8022 C.2        2 BB2          0.0000
    18 C3        30.0681    37.8082    37.6618 C.2        2 BB2          0.0000
    19 C4        29.5998    39.0367    37.2447 C.2        2 BB2          0.0000
    20 N5        30.2415    39.4080    36.1202 N.pl3      2 BB2          0.0000
    21 C6        31.1573    38.4516    35.7423 C.ar       2 BB2          0.0000
    22 N7        32.0094    38.3641    34.7288 N.ar       2 BB2          0.0000
    23 C8        32.7875    37.3044    34.6123 C.ar       2 BB2          0.0000
    24 C9        32.7247    36.2766    35.5408 C.ar       2 BB2          0.0000
    25 N10       31.8825    36.3469    36.5551 N.ar       2 BB2          0.0000
    26 C11       31.0999    37.4093    36.6861 C.ar       2 BB2          0.0000
    27 H13       28.8347    39.6130    37.7436 H          2 BB2          0.0000
    28 H14       33.4794    37.2371    33.7858 H          2 BB2          0.0000
    29 H15       33.3671    35.4151    35.4336 H          2 BB2          0.0000
    30 H16       30.0802    40.2360    35.6415 H          2 BB2          0.0000
@<TRIPOS>BOND
     1      1      2 1
     2      1     11 1
     3      1     12 1
     4      1     13 1
     5      2      3 ar
     6      2      9 ar
     7      3      4 1
     8      3      5 ar
     9      4     16 1
    10      5      6 ar
    11      5     14 1
    12      6      7 ar
    13      6     15 1
    14      7      8 1
    15      7      9 ar
    16      9     10 1
    17     17     18 1
    18     18     19 2
    19     18     26 1
    20     19     20 1
    21     19     27 1
    22     20     21 1
    23     20     30 1
    24     21     22 ar
    25     21     26 ar
    26     22     23 ar
    27     23     24 ar
    28     23     28 1
    29     24     25 ar
    30     24     29 1
    31     25     26 ar
    32      8     17 2
    33     10     17 1
@<TRIPOS>SUBSTRUCTURE
     1 BB1          10
     2 BB2          17
@<TRIPOS>MOLECULE
EN300-7549830_i001_EN300-104126_i001_3_3_27
  30   33   2   0   0
SMALL
USER_CHARGES
@<TRIPOS>ATOM
     1 C1        25.5024    37.4938    38.8266 C.3        1 BB1          0.0000
     2 C2        26.4731    36.9930    39.8649 C.ar       1 BB1          0.0000
     3 C3        26.0375    36.7410    41.1577 C.ar       1 BB1          0.0000
     4 O4        24.7342    36.9456    41.4874 O.3        1 BB1          0.0000
     5 C5        26.9296    36.2801    42.1139 C.ar       1 BB1          0.0000
     6 C6        28.2553    36.0707    41.7816 C.ar       1 BB1          0.0000
     7 C7        28.6953    36.3215    40.4911 C.ar       1 BB1          0.0000
     8 N8        30.0398    36.1091    40.1542 N.2        1 BB1          0.0000
     9 C9        27.7987    36.7788    39.5276 C.ar       1 BB1          0.0000
    10 O10       28.2275    37.0253    38.2607 O.3        1 BB1          0.0000
    11 H11       25.4875    38.5837    38.8390 H          1 BB1          0.0000
    12 H12       25.8129    37.1459    37.8414 H          1 BB1          0.0000
    13 H13       24.5051    37.1142    39.0485 H          1 BB1          0.0000
    14 H14       26.5885    36.0850    43.1198 H          1 BB1          0.0000
    15 H15       28.9486    35.7116    42.5280 H          1 BB1          0.0000
    16 H16       24.1075    36.6660    40.8060 H          1 BB1          0.0000
    17 C2        29.6763    37.0906    38.7134 C.2        2 BB2          0.0000
    18 C3        30.8165    36.4318    38.1879 C.2        2 BB2          0.0000
    19 C4        31.4619    35.3374    38.7247 C.2        2 BB2          0.0000
    20 N5        32.5033    34.9966    37.9414 N.pl3      2 BB2          0.0000
    21 C6        32.5964    35.8415    36.8581 C.ar       2 BB2          0.0000
    22 N7        33.4345    35.9088    35.8315 N.ar       2 BB2          0.0000
    23 C8        33.2814    36.8480    34.9169 C.ar       2 BB2          0.0000
    24 C9        32.2502    37.7694    35.0166 C.ar       2 BB2          0.0000
    25 N10       31.4073    37.7174    36.0314 N.ar       2 BB2          0.0000
    26 C11       31.5474    36.7748    36.9534 C.ar       2 BB2          0.0000
    27 H13       31.1761    34.8311    39.6349 H          2 BB2          0.0000
    28 H14       33.9660    36.8994    34.0832 H          2 BB2          0.0000
    29 H15       32.1363    38.5328    34.2612 H          2 BB2          0.0000
    30 H16       33.1059    34.2570    38.1168 H          2 BB2          0.0000
@<TRIPOS>BOND
     1      1      2 1
     2      1     11 1
     3      1     12 1
     4      1     13 1
     5      2      3 ar
     6      2      9 ar
     7      3      4 1
     8      3      5 ar
     9      4     16 1
    10      5      6 ar
    11      5     14 1
    12      6      7 ar
    13      6     15 1
    14      7      8 1
    15      7      9 ar
    16      9     10 1
    17     17     18 1
    18     18     19 2
    19     18     26 1
    20     19     20 1
    21     19     27 1
    22     20     21 1
    23     20     30 1
    24     21     22 ar
    25     21     26 ar
    26     22     23 ar
    27     23     24 ar
    28     23     28 1
    29     24     25 ar
    30     24     29 1
    31     25     26 ar
    32      8     17 2
    33     10     17 1
@<TRIPOS>SUBSTRUCTURE
     1 BB1          10
     2 BB2          17
@<TRIPOS>MOLECULE
EN300-7549830_i001_EN300-195674_i001_3_17_27
  28   30   2   0   0
SMALL
USER_CHARGES
@<TRIPOS>ATOM
     1 C1        25.5024    37.4938    38.8266 C.3        1 BB1          0.0000
     2 C2        26.4731    36.9930    39.8649 C.ar       1 BB1          0.0000
     3 C3        26.0375    36.7410    41.1577 C.ar       1 BB1          0.0000
     4 O4        24.7342    36.9456    41.4874 O.3        1 BB1          0.0000
     5 C5        26.9296    36.2801    42.1139 C.ar       1 BB1          0.0000
     6 C6        28.2553    36.0707    41.7816 C.ar       1 BB1          0.0000
     7 C7        28.6953    36.3215    40.4911 C.ar       1 BB1          0.0000
     8 N8        30.0398    36.1091    40.1542 N.2        1 BB1          0.0000
     9 C9        27.7987    36.7788    39.5276 C.ar       1 BB1          0.0000
    10 O10       28.2275    37.0253    38.2607 O.3        1 BB1          0.0000
    11 H11       25.4875    38.5837    38.8390 H          1 BB1          0.0000
    12 H12       25.8129    37.1459    37.8414 H          1 BB1          0.0000
    13 H13       24.5051    37.1142    39.0485 H          1 BB1          0.0000
    14 H14       26.5885    36.0850    43.1198 H          1 BB1          0.0000
    15 H15       28.9486    35.7116    42.5280 H          1 BB1          0.0000
    16 H16       24.1075    36.6660    40.8060 H          1 BB1          0.0000
    17 F1        28.9182    39.3898    36.9927 F          2 BB2          0.0000
    18 C2        30.0166    38.7150    36.5886 C.ar       2 BB2          0.0000
    19 C3        30.6957    39.1129    35.4530 C.ar       2 BB2          0.0000
    20 C4        31.8208    38.4242    35.0372 C.ar       2 BB2          0.0000
    21 C5        32.2782    37.3308    35.7525 C.ar       2 BB2          0.0000
    22 Br6       33.8184    36.4009    35.1705 Br         2 BB2          0.0000
    23 C7        31.6127    36.9171    36.8912 C.ar       2 BB2          0.0000
    24 F8        32.0606    35.8499    37.5881 F          2 BB2          0.0000
    25 C9        30.4744    37.6123    37.3234 C.ar       2 BB2          0.0000
    26 C10       29.7601    37.1816    38.5314 C.2        2 BB2          0.0000
    27 H12       30.3465    39.9644    34.8878 H          2 BB2          0.0000
    28 H13       32.3458    38.7414    34.1482 H          2 BB2          0.0000
@<TRIPOS>BOND
     1      1      2 1
     2      1     11 1
     3      1     12 1
     4      1     13 1
     5      2      3 ar
     6      2      9 ar
     7      3      4 1
     8      3      5 ar
     9      4     16 1
    10      5      6 ar
    11      5     14 1
    12      6      7 ar
    13      6     15 1
    14      7      8 1
    15      7      9 ar
    16      9     10 1
    17     17     18 1
    18     18     19 ar
    19     18     25 ar
    20     19     20 ar
    21     19     27 1
    22     20     21 ar
    23     20     28 1
    24     21     22 1
    25     21     23 ar
    26     23     24 1
    27     23     25 ar
    28     25     26 1
    29      8     26 2
    30     10     26 1
@<TRIPOS>SUBSTRUCTURE
     1 BB1          10
     2 BB2          26
@<TRIPOS>MOLECULE
EN300-7549830_i001_EN300-76468_i001_7_6_27
  30   33   2   0   0
SMALL
USER_CHARGES
@<TRIPOS>ATOM
     1 C1        28.4889    35.8007    42.1272 C.3        1 BB1          0.0000
     2 C2        27.9078    36.2733    40.8195 C.ar       1 BB1          0.0000
     3 C3        26.5436    36.4990    40.7075 C.ar       1 BB1          0.0000
     4 O4        25.7311    36.2940    41.7786 O.3        1 BB1          0.0000
     5 C5        26.0078    36.9338    39.5050 C.ar       1 BB1          0.0000
     6 C6        26.8314    37.1435    38.4143 C.ar       1 BB1          0.0000
     7 C7        28.1953    36.9189    38.5212 C.ar       1 BB1          0.0000
     8 N8        29.0305    37.1316    37.4152 N.2        1 BB1          0.0000
     9 C9        28.7360    36.4879    39.7309 C.ar       1 BB1          0.0000
    10 O10       30.0736    36.2671    39.8387 O.3        1 BB1          0.0000
    11 H11       28.4915    34.7109    42.1508 H          1 BB1          0.0000
    12 H12       29.5103    36.1687    42.2249 H          1 BB1          0.0000
    13 H13       27.8854    36.1806    42.9514 H          1 BB1          0.0000
    14 H14       24.9455    37.1086    39.4199 H          1 BB1          0.0000
    15 H15       26.4120    37.4823    37.4784 H          1 BB1          0.0000
    16 H16       26.1466    35.8002    42.4987 H          1 BB1          0.0000
    17 C2        29.5979    37.5613    38.3484 C.2        2 BB2          0.0000
    18 C3        30.7337    36.7857    38.0253 C.2        2 BB2          0.0000
    19 C4        31.2794    35.7340    38.7902 C.2        2 BB2          0.0000
    20 N5        32.3242    35.2617    38.1662 N.2        2 BB2          0.0000
    21 N6        32.5193    35.9672    36.9740 N.pl3      2 BB2          0.0000
    22 C7        33.4558    35.8570    35.9902 C.2        2 BB2          0.0000
    23 C8        33.3973    36.6960    34.9238 C.2        2 BB2          0.0000
    24 C9        32.3787    37.6528    34.8596 C.2        2 BB2          0.0000
    25 N10       31.4892    37.7347    35.8256 N.2        2 BB2          0.0000
    26 C11       31.5377    36.9100    36.8711 C.2        2 BB2          0.0000
    27 H13       30.8967    35.3787    39.7355 H          2 BB2          0.0000
    28 H14       34.2349    35.1121    36.0578 H          2 BB2          0.0000
    29 H15       34.1299    36.6255    34.1334 H          2 BB2          0.0000
    30 H16       32.3225    38.3251    34.0162 H          2 BB2          0.0000
@<TRIPOS>BOND
     1      1      2 1
     2      1     11 1
     3      1     12 1
     4      1     13 1
     5      2      3 ar
     6      2      9 ar
     7      3      4 1
     8      3      5 ar
     9      4     16 1
    10      5      6 ar
    11      5     14 1
    12      6      7 ar
    13      6     15 1
    14      7      8 1
    15      7      9 ar
    16      9     10 1
    17     17     18 1
    18     18     19 1
    19     18     26 2
    20     19     20 2
    21     19     27 1
    22     20     21 1
    23     21     22 1
    24     21     26 1
    25     22     23 2
    26     22     28 1
    27     23     24 1
    28     23     29 1
    29     24     25 2
    30     24     30 1
    31     25     26 1
    32      8     17 2
    33     10     17 1
@<TRIPOS>SUBSTRUCTURE
     1 BB1          10
     2 BB2          17
@<TRIPOS>MOLECULE
EN300-7549830_i001_EN300-76468_i001_7_9_27
  30   33   2   0   0
SMALL
USER_CHARGES
@<TRIPOS>ATOM
     1 C1        28.4889    35.8007    42.1272 C.3        1 BB1          0.0000
     2 C2        27.9078    36.2733    40.8195 C.ar       1 BB1          0.0000
     3 C3        26.5436    36.4990    40.7075 C.ar       1 BB1          0.0000
     4 O4        25.7311    36.2940    41.7786 O.3        1 BB1          0.0000
     5 C5        26.0078    36.9338    39.5050 C.ar       1 BB1          0.0000
     6 C6        26.8314    37.1435    38.4143 C.ar       1 BB1          0.0000
     7 C7        28.1953    36.9189    38.5212 C.ar       1 BB1          0.0000
     8 N8        29.0305    37.1316    37.4152 N.2        1 BB1          0.0000
     9 C9        28.7360    36.4879    39.7309 C.ar       1 BB1          0.0000
    10 O10       30.0736    36.2671    39.8387 O.3        1 BB1          0.0000
    11 H11       28.4915    34.7109    42.1508 H          1 BB1          0.0000
    12 H12       29.5103    36.1687    42.2249 H          1 BB1          0.0000
    13 H13       27.8854    36.1806    42.9514 H          1 BB1          0.0000
    14 H14       24.9455    37.1086    39.4199 H          1 BB1          0.0000
    15 H15       26.4120    37.4823    37.4784 H          1 BB1          0.0000
    16 H16       26.1466    35.8002    42.4987 H          1 BB1          0.0000
    17 C2        30.3496    36.6805    38.6479 C.2        2 BB2          0.0000
    18 C3        31.3912    36.5879    37.6980 C.2        2 BB2          0.0000
    19 C4        32.5733    35.8280    37.8174 C.2        2 BB2          0.0000
    20 N5        33.2896    35.9968    36.7391 N.2        2 BB2          0.0000
    21 N6        32.6265    36.8646    35.8647 N.pl3      2 BB2          0.0000
    22 C7        32.9541    37.3459    34.6326 C.2        2 BB2          0.0000
    23 C8        32.0983    38.1925    34.0037 C.2        2 BB2          0.0000
    24 C9        30.9019    38.5507    34.6341 C.2        2 BB2          0.0000
    25 N10       30.6140    38.0695    35.8243 N.2        2 BB2          0.0000
    26 C11       31.4466    37.2335    36.4433 C.2        2 BB2          0.0000
    27 H13       32.8416    35.2095    38.6610 H          2 BB2          0.0000
    28 H14       33.8828    37.0580    34.1622 H          2 BB2          0.0000
    29 H15       32.3391    38.5855    33.0270 H          2 BB2          0.0000
    30 H16       30.2139    39.2233    34.1433 H          2 BB2          0.0000
@<TRIPOS>BOND
     1      1      2 1
     2      1     11 1
     3      1     12 1
     4      1     13 1
     5      2      3 ar
     6      2      9 ar
     7      3      4 1
     8      3      5 ar
     9      4     16 1
    10      5      6 ar
    11      5     14 1
    12      6      7 ar
    13      6     15 1
    14      7      8 1
    15      7      9 ar
    16      9     10 1
    17     17     18 1
    18     18     19 1
    19     18     26 2
    20     19     20 2
    21     19     27 1
    22     20     21 1
    23     21     22 1
    24     21     26 1
    25     22     23 2
    26     22     28 1
    27     23     24 1
    28     23     29 1
    29     24     25 2
    30     24     30 1
    31     25     26 1
    32      8     17 2
    33     10     17 1
@<TRIPOS>SUBSTRUCTURE
     1 BB1          10
     2 BB2          17
@<TRIPOS>MOLECULE
EN300-7549830_i001_EN300-83792_i001_7_7_27
  33   36   2   0   0
SMALL
USER_CHARGES
@<TRIPOS>ATOM
     1 C1        28.4889    35.8007    42.1272 C.3        1 BB1          0.0000
     2 C2        27.9078    36.2733    40.8195 C.ar       1 BB1          0.0000
     3 C3        26.5436    36.4990    40.7075 C.ar       1 BB1          0.0000
     4 O4        25.7311    36.2940    41.7786 O.3        1 BB1          0.0000
     5 C5        26.0078    36.9338    39.5050 C.ar       1 BB1          0.0000
     6 C6        26.8314    37.1435    38.4143 C.ar       1 BB1          0.0000
     7 C7        28.1953    36.9189    38.5212 C.ar       1 BB1          0.0000
     8 N8        29.0305    37.1316    37.4152 N.2        1 BB1          0.0000
     9 C9        28.7360    36.4879    39.7309 C.ar       1 BB1          0.0000
    10 O10       30.0736    36.2671    39.8387 O.3        1 BB1          0.0000
    11 H11       28.4915    34.7109    42.1508 H          1 BB1          0.0000
    12 H12       29.5103    36.1687    42.2249 H          1 BB1          0.0000
    13 H13       27.8854    36.1806    42.9514 H          1 BB1          0.0000
    14 H14       24.9455    37.1086    39.4199 H          1 BB1          0.0000
    15 H15       26.4120    37.4823    37.4784 H          1 BB1          0.0000
    16 H16       26.1466    35.8002    42.4987 H          1 BB1          0.0000
    17 C2        30.0075    36.6634    38.7307 C.2        2 BB2          0.0000
    18 C3        30.1955    37.6334    37.6391 C.ar       2 BB2          0.0000
    19 N4        29.4500    38.7261    37.5864 N.ar       2 BB2          0.0000
    20 C5        29.5753    39.6282    36.6322 C.ar       2 BB2          0.0000
    21 C6        30.4986    39.4917    35.6180 C.ar       2 BB2          0.0000
    22 C7        31.3274    38.3570    35.6055 C.ar       2 BB2          0.0000
    23 C8        32.2908    38.1461    34.6071 C.ar       2 BB2          0.0000
    24 C9        33.0645    37.0258    34.6490 C.ar       2 BB2          0.0000
    25 C10       32.9127    36.0868    35.6679 C.ar       2 BB2          0.0000
    26 C11       31.9867    36.2605    36.6526 C.ar       2 BB2          0.0000
    27 C12       31.1777    37.4034    36.6463 C.ar       2 BB2          0.0000
    28 H14       28.9358    40.4984    36.6457 H          2 BB2          0.0000
    29 H15       30.5833    40.2430    34.8468 H          2 BB2          0.0000
    30 H16       32.4176    38.8658    33.8120 H          2 BB2          0.0000
    31 H17       33.8062    36.8624    33.8812 H          2 BB2          0.0000
    32 H18       33.5392    35.2071    35.6770 H          2 BB2          0.0000
    33 H19       31.8807    35.5238    37.4352 H          2 BB2          0.0000
@<TRIPOS>BOND
     1      1      2 1
     2      1     11 1
     3      1     12 1
     4      1     13 1
     5      2      3 ar
     6      2      9 ar
     7      3      4 1
     8      3      5 ar
     9      4     16 1
    10      5      6 ar
    11      5     14 1
    12      6      7 ar
    13      6     15 1
    14      7      8 1
    15      7      9 ar
    16      9     10 1
    17     17     18 1
    18     18     19 ar
    19     18     27 ar
    20     19     20 ar
    21     20     21 ar
    22     20     28 1
    23     21     22 ar
    24     21     29 1
    25     22     23 ar
    26     22     27 ar
    27     23     24 ar
    28     23     30 1
    29     24     25 ar
    30     24     31 1
    31     25     26 ar
    32     25     32 1
    33     26     27 ar
    34     26     33 1
    35      8     17 2
    36     10     17 1
@<TRIPOS>SUBSTRUCTURE
     1 BB1          10
     2 BB2          17
@<TRIPOS>MOLECULE
EN300-126720_i001_EN300-18990_i001_11_11_27
  26   28   2   0   0
SMALL
USER_CHARGES
@<TRIPOS>ATOM
     1 C1        32.1281    38.1361    34.0805 C.3        1 BB1          0.0000
     2 C2        32.8114    37.1468    34.9891 C.2        1 BB1          0.0000
     3 O3        33.8988    36.6998    34.6906 O.2        1 BB1          0.0000
     4 C4        32.1607    36.7240    36.2360 C.ar       1 BB1          0.0000
     5 C5        32.7057    35.6801    36.9933 C.ar       1 BB1          0.0000
     6 C6        32.0945    35.2852    38.1624 C.ar       1 BB1          0.0000
     7 C7        30.9372    35.9195    38.5942 C.ar       1 BB1          0.0000
     8 O8        30.3395    35.5255    39.7478 O.3        1 BB1          0.0000
     9 C9        30.3868    36.9619    37.8457 C.ar       1 BB1          0.0000
    10 N10       29.2205    37.5994    38.2850 N.2        1 BB1          0.0000
    11 C11       30.9967    37.3675    36.6737 C.ar       1 BB1          0.0000
    12 H12       32.7580    38.3268    33.2117 H          1 BB1          0.0000
    13 H13       31.1717    37.7284    33.7534 H          1 BB1          0.0000
    14 H14       31.9604    39.0686    34.6194 H          1 BB1          0.0000
    15 H15       33.6056    35.1842    36.6602 H          1 BB1          0.0000
    16 H16       32.5163    34.4795    38.7449 H          1 BB1          0.0000
    17 H17       30.5726    38.1735    36.0933 H          1 BB1          0.0000
    18 C2        29.2537    36.2421    39.6992 C.2        2 BB2          0.0000
    19 C3        27.8787    36.5567    39.7706 C.2        2 BB2          0.0000
    20 C4        27.1148    37.0282    38.7331 C.2        2 BB2          0.0000
    21 C5        25.8065    37.2503    39.0815 C.2        2 BB2          0.0000
    22 C6        25.5017    36.9730    40.3567 C.2        2 BB2          0.0000
    23 S7        26.8688    36.3999    41.2013 S.3        2 BB2          0.0000
    24 H9        27.5043    37.2070    37.7419 H          2 BB2          0.0000
    25 H10       25.0752    37.6220    38.3789 H          2 BB2          0.0000
    26 H11       24.5200    37.0920    40.7909 H          2 BB2          0.0000
@<TRIPOS>BOND
     1      1      2 1
     2      1     12 1
     3      1     13 1
     4      1     14 1
     5      2      3 2
     6      2      4 1
     7      4      5 ar
     8      4     11 ar
     9      5      6 ar
    10      5     15 1
    11      6      7 ar
    12      6     16 1
    13      7      8 1
    14      7      9 ar
    15      9     10 1
    16      9     11 ar
    17     11     17 1
    18     18     19 1
    19     19     20 2
    20     19     23 1
    21     20     21 1
    22     20     24 1
    23     21     22 2
    24     21     25 1
    25     22     23 1
    26     22     26 1
    27     10     18 2
    28      8     18 1
@<TRIPOS>SUBSTRUCTURE
     1 BB1           8
     2 BB2          18
@<TRIPOS>MOLECULE
EN300-126720_i001_EN300-18990_i001_11_3_27
  26   28   2   0   0
SMALL
USER_CHARGES
@<TRIPOS>ATOM
     1 C1        32.1281    38.1361    34.0805 C.3        1 BB1          0.0000
     2 C2        32.8114    37.1468    34.9891 C.2        1 BB1          0.0000
     3 O3        33.8988    36.6998    34.6906 O.2        1 BB1          0.0000
     4 C4        32.1607    36.7240    36.2360 C.ar       1 BB1          0.0000
     5 C5        32.7057    35.6801    36.9933 C.ar       1 BB1          0.0000
     6 C6        32.0945    35.2852    38.1624 C.ar       1 BB1          0.0000
     7 C7        30.9372    35.9195    38.5942 C.ar       1 BB1          0.0000
     8 O8        30.3395    35.5255    39.7478 O.3        1 BB1          0.0000
     9 C9        30.3868    36.9619    37.8457 C.ar       1 BB1          0.0000
    10 N10       29.2205    37.5994    38.2850 N.2        1 BB1          0.0000
    11 C11       30.9967    37.3675    36.6737 C.ar       1 BB1          0.0000
    12 H12       32.7580    38.3268    33.2117 H          1 BB1          0.0000
    13 H13       31.1717    37.7284    33.7534 H          1 BB1          0.0000
    14 H14       31.9604    39.0686    34.6194 H          1 BB1          0.0000
    15 H15       33.6056    35.1842    36.6602 H          1 BB1          0.0000
    16 H16       32.5163    34.4795    38.7449 H          1 BB1          0.0000
    17 H17       30.5726    38.1735    36.0933 H          1 BB1          0.0000
    18 C2        29.4486    36.0021    39.7439 C.2        2 BB2          0.0000
    19 C3        28.1009    36.3373    40.0009 C.2        2 BB2          0.0000
    20 C4        27.5216    36.4117    41.2423 C.2        2 BB2          0.0000
    21 C5        26.1952    36.7596    41.2008 C.2        2 BB2          0.0000
    22 C6        25.6983    36.9646    39.9731 C.2        2 BB2          0.0000
    23 S7        26.8975    36.7336    38.7817 S.3        2 BB2          0.0000
    24 H9        28.0561    36.2156    42.1600 H          2 BB2          0.0000
    25 H10       25.5948    36.8607    42.0928 H          2 BB2          0.0000
    26 H11       24.6758    37.2436    39.7658 H          2 BB2          0.0000
@<TRIPOS>BOND
     1      1      2 1
     2      1     12 1
     3      1     13 1
     4      1     14 1
     5      2      3 2
     6      2      4 1
     7      4      5 ar
     8      4     11 ar
     9      5      6 ar
    10      5     15 1
    11      6      7 ar
    12      6     16 1
    13      7      8 1
    14      7      9 ar
    15      9     10 1
    16      9     11 ar
    17     11     17 1
    18     18     19 1
    19     19     20 2
    20     19     23 1
    21     20     21 1
    22     20     24 1
    23     21     22 2
    24     21     25 1
    25     22     23 1
    26     22     26 1
    27     10     18 2
    28      8     18 1
@<TRIPOS>SUBSTRUCTURE
     1 BB1           8
     2 BB2          18
@<TRIPOS>MOLECULE
EN300-154847_i001_EN300-18990_i001_11_5_27
  33   35   2   0   0
SMALL
USER_CHARGES
@<TRIPOS>ATOM
     1 C1        32.6987    38.6408    36.1859 C.3        1 BB1          0.0000
     2 C2        32.1242    37.3100    35.6960 C.3        1 BB1          0.0000
     3 C3        31.0043    37.5779    34.6886 C.3        1 BB1          0.0000
     4 C4        33.2301    36.4936    35.0241 C.3        1 BB1          0.0000
     5 C5        31.5723    36.5394    36.8677 C.ar       1 BB1          0.0000
     6 C6        32.0082    35.2500    37.1143 C.ar       1 BB1          0.0000
     7 C7        31.5040    34.5394    38.1882 C.ar       1 BB1          0.0000
     8 Br8       32.1047    32.7772    38.5191 Br         1 BB1          0.0000
     9 C9        30.5614    35.1152    39.0213 C.ar       1 BB1          0.0000
    10 C10       30.1206    36.4077    38.7796 C.ar       1 BB1          0.0000
    11 N11       29.1670    36.9925    39.6208 N.2        1 BB1          0.0000
    12 C12       30.6334    37.1246    37.7002 C.ar       1 BB1          0.0000
    13 O13       30.2048    38.3929    37.4590 O.3        1 BB1          0.0000
    14 H14       31.9109    39.2224    36.6646 H          1 BB1          0.0000
    15 H15       33.4965    38.4499    36.9036 H          1 BB1          0.0000
    16 H16       33.0980    39.1980    35.3384 H          1 BB1          0.0000
    17 H17       31.4036    38.1351    33.8412 H          1 BB1          0.0000
    18 H18       30.5951    36.6298    34.3397 H          1 BB1          0.0000
    19 H19       30.2165    38.1595    35.1673 H          1 BB1          0.0000
    20 H20       34.0279    36.3027    35.7419 H          1 BB1          0.0000
    21 H21       32.8208    35.5455    34.6752 H          1 BB1          0.0000
    22 H22       33.6293    37.0509    34.1768 H          1 BB1          0.0000
    23 H23       32.7439    34.7970    36.4664 H          1 BB1          0.0000
    24 H24       30.1688    34.5583    39.8591 H          1 BB1          0.0000
    25 C2        27.4682    37.6056    37.6778 C.2        2 BB2          0.0000
    26 C3        27.1160    37.2144    38.9884 C.2        2 BB2          0.0000
    27 C4        25.8480    37.2338    39.5116 C.2        2 BB2          0.0000
    28 C5        25.7921    36.8000    40.8120 C.2        2 BB2          0.0000
    29 C6        26.9681    36.4364    41.3421 C.2        2 BB2          0.0000
    30 S7        28.2312    36.6171    40.2095 S.3        2 BB2          0.0000
    31 H9        24.9808    37.5584    38.9558 H          2 BB2          0.0000
    32 H10       24.8675    36.7550    41.3683 H          2 BB2          0.0000
    33 H11       27.0982    36.0729    42.3507 H          2 BB2          0.0000
@<TRIPOS>BOND
     1      1      2 1
     2      1     14 1
     3      1     15 1
     4      1     16 1
     5      2      3 1
     6      2      4 1
     7      2      5 1
     8      3     17 1
     9      3     18 1
    10      3     19 1
    11      4     20 1
    12      4     21 1
    13      4     22 1
    14      5      6 ar
    15      5     12 ar
    16      6      7 ar
    17      6     23 1
    18      7      8 1
    19      7      9 ar
    20      9     10 ar
    21      9     24 1
    22     10     11 1
    23     10     12 ar
    24     12     13 1
    25     25     26 1
    26     26     27 2
    27     26     30 1
    28     27     28 1
    29     27     31 1
    30     28     29 2
    31     28     32 1
    32     29     30 1
    33     29     33 1
    34     11     25 2
    35     13     25 1
@<TRIPOS>SUBSTRUCTURE
     1 BB1          13
     2 BB2          25
@<TRIPOS>MOLECULE
EN300-50872_i001_EN300-18990_i001_10_11_27
  24   26   2   0   0
SMALL
USER_CHARGES
@<TRIPOS>ATOM
     1 C1        33.2110    36.7089    34.9321 C.3        1 BB1          0.0000
     2 C2        32.4319    36.4656    36.1989 C.ar       1 BB1          0.0000
     3 C3        32.7907    35.4294    37.0409 C.ar       1 BB1          0.0000
     4 C4        32.0792    35.2011    38.2044 C.ar       1 BB1          0.0000
     5 C5        31.0041    36.0115    38.5296 C.ar       1 BB1          0.0000
     6 O6        30.3037    35.7881    39.6740 O.3        1 BB1          0.0000
     7 C7        30.6421    37.0561    37.6819 C.ar       1 BB1          0.0000
     8 N8        29.5566    37.8782    38.0055 N.2        1 BB1          0.0000
     9 C9        31.3637    37.2824    36.5189 C.ar       1 BB1          0.0000
    10 H10       32.7684    36.1355    34.1175 H          1 BB1          0.0000
    11 H11       33.1827    37.7705    34.6863 H          1 BB1          0.0000
    12 H12       34.2454    36.3967    35.0760 H          1 BB1          0.0000
    13 H13       33.6288    34.7964    36.7890 H          1 BB1          0.0000
    14 H14       32.3618    34.3903    38.8597 H          1 BB1          0.0000
    15 H15       31.0857    38.0913    35.8596 H          1 BB1          0.0000
    16 C2        29.2537    36.2421    39.6992 C.2        2 BB2          0.0000
    17 C3        27.8787    36.5567    39.7706 C.2        2 BB2          0.0000
    18 C4        27.1148    37.0282    38.7331 C.2        2 BB2          0.0000
    19 C5        25.8065    37.2503    39.0815 C.2        2 BB2          0.0000
    20 C6        25.5017    36.9730    40.3567 C.2        2 BB2          0.0000
    21 S7        26.8688    36.3999    41.2013 S.3        2 BB2          0.0000
    22 H9        27.5043    37.2070    37.7419 H          2 BB2          0.0000
    23 H10       25.0752    37.6220    38.3789 H          2 BB2          0.0000
    24 H11       24.5200    37.0920    40.7909 H          2 BB2          0.0000
@<TRIPOS>BOND
     1      1      2 1
     2      1     10 1
     3      1     11 1
     4      1     12 1
     5      2      3 ar
     6      2      9 ar
     7      3      4 ar
     8      3     13 1
     9      4      5 ar
    10      4     14 1
    11      5      6 1
    12      5      7 ar
    13      7      8 1
    14      7      9 ar
    15      9     15 1
    16     16     17 1
    17     17     18 2
    18     17     21 1
    19     18     19 1
    20     18     22 1
    21     19     20 2
    22     19     23 1
    23     20     21 1
    24     20     24 1
    25      8     16 2
    26      6     16 1
@<TRIPOS>SUBSTRUCTURE
     1 BB1           6
     2 BB2          16
@<TRIPOS>MOLECULE
EN300-50872_i001_EN300-76468_i001_14_9_27
  29   32   2   0   0
SMALL
USER_CHARGES
@<TRIPOS>ATOM
     1 C1        25.6857    36.8424    41.2008 C.3        1 BB1          0.0000
     2 C2        26.7559    36.8458    40.1399 C.ar       1 BB1          0.0000
     3 C3        26.4687    37.3168    38.8722 C.ar       1 BB1          0.0000
     4 C4        27.4465    37.3220    37.8944 C.ar       1 BB1          0.0000
     5 C5        28.7180    36.8550    38.1835 C.ar       1 BB1          0.0000
     6 O6        29.6808    36.8600    37.2228 O.3        1 BB1          0.0000
     7 C7        29.0084    36.3807    39.4608 C.ar       1 BB1          0.0000
     8 N8        30.2916    35.9075    39.7586 N.2        1 BB1          0.0000
     9 C9        28.0238    36.3833    40.4381 C.ar       1 BB1          0.0000
    10 H10       25.1458    35.8960    41.1692 H          1 BB1          0.0000
    11 H11       26.1457    36.9656    42.1813 H          1 BB1          0.0000
    12 H12       24.9916    37.6629    41.0194 H          1 BB1          0.0000
    13 H13       25.4777    37.6814    38.6448 H          1 BB1          0.0000
    14 H14       27.2186    37.6900    36.9049 H          1 BB1          0.0000
    15 H15       28.2457    36.0162    41.4293 H          1 BB1          0.0000
    16 C2        30.3496    36.6805    38.6479 C.2        2 BB2          0.0000
    17 C3        31.3912    36.5879    37.6980 C.2        2 BB2          0.0000
    18 C4        32.5733    35.8280    37.8174 C.2        2 BB2          0.0000
    19 N5        33.2896    35.9968    36.7391 N.2        2 BB2          0.0000
    20 N6        32.6265    36.8646    35.8647 N.pl3      2 BB2          0.0000
    21 C7        32.9541    37.3459    34.6326 C.2        2 BB2          0.0000
    22 C8        32.0983    38.1925    34.0037 C.2        2 BB2          0.0000
    23 C9        30.9019    38.5507    34.6341 C.2        2 BB2          0.0000
    24 N10       30.6140    38.0695    35.8243 N.2        2 BB2          0.0000
    25 C11       31.4466    37.2335    36.4433 C.2        2 BB2          0.0000
    26 H13       32.8416    35.2095    38.6610 H          2 BB2          0.0000
    27 H14       33.8828    37.0580    34.1622 H          2 BB2          0.0000
    28 H15       32.3391    38.5855    33.0270 H          2 BB2          0.0000
    29 H16       30.2139    39.2233    34.1433 H          2 BB2          0.0000
@<TRIPOS>BOND
     1      1      2 1
     2      1     10 1
     3      1     11 1
     4      1     12 1
     5      2      3 ar
     6      2      9 ar
     7      3      4 ar
     8      3     13 1
     9      4      5 ar
    10      4     14 1
    11      5      6 1
    12      5      7 ar
    13      7      8 1
    14      7      9 ar
    15      9     15 1
    16     16     17 1
    17     17     18 1
    18     17     25 2
    19     18     19 2
    20     18     26 1
    21     19     20 1
    22     20     21 1
    23     20     25 1
    24     21     22 2
    25     21     27 1
    26     22     23 1
    27     22     28 1
    28     23     24 2
    29     23     29 1
    30     24     25 1
    31      8     16 2
    32      6     16 1
@<TRIPOS>SUBSTRUCTURE
     1 BB1           6
     2 BB2          16
@<TRIPOS>MOLECULE
EN300-97589_i001_EN300-18990_i001_20_3_27
  27   29   2   0   0
SMALL
USER_CHARGES
@<TRIPOS>ATOM
     1 C1        33.5437    36.5890    34.9095 C.3        1 BB1          0.0000
     2 C2        32.5820    36.6328    36.0690 C.ar       1 BB1          0.0000
     3 C3        31.6517    37.6519    36.1550 C.ar       1 BB1          0.0000
     4 C4        30.7669    37.6976    37.2168 C.ar       1 BB1          0.0000
     5 C5        29.7547    38.8103    37.3064 C.3        1 BB1          0.0000
     6 C6        30.8108    36.7208    38.1978 C.ar       1 BB1          0.0000
     7 O7        29.9409    36.7644    39.2425 O.3        1 BB1          0.0000
     8 C8        31.7477    35.6933    38.1116 C.ar       1 BB1          0.0000
     9 N9        31.7965    34.7036    39.1000 N.2        1 BB1          0.0000
    10 C10       32.6286    35.6510    37.0408 C.ar       1 BB1          0.0000
    11 H11       34.4458    37.1451    35.1645 H          1 BB1          0.0000
    12 H12       33.8046    35.5530    34.6929 H          1 BB1          0.0000
    13 H13       33.0764    37.0369    34.0326 H          1 BB1          0.0000
    14 H14       31.6160    38.4144    35.3911 H          1 BB1          0.0000
    15 H15       28.8402    38.5117    36.7939 H          1 BB1          0.0000
    16 H16       29.5334    39.0168    38.3536 H          1 BB1          0.0000
    17 H17       30.1581    39.7073    36.8366 H          1 BB1          0.0000
    18 H18       33.3561    34.8559    36.9710 H          1 BB1          0.0000
    19 C2        29.4486    36.0021    39.7439 C.2        2 BB2          0.0000
    20 C3        28.1009    36.3373    40.0009 C.2        2 BB2          0.0000
    21 C4        27.5216    36.4117    41.2423 C.2        2 BB2          0.0000
    22 C5        26.1952    36.7596    41.2008 C.2        2 BB2          0.0000
    23 C6        25.6983    36.9646    39.9731 C.2        2 BB2          0.0000
    24 S7        26.8975    36.7336    38.7817 S.3        2 BB2          0.0000
    25 H9        28.0561    36.2156    42.1600 H          2 BB2          0.0000
    26 H10       25.5948    36.8607    42.0928 H          2 BB2          0.0000
    27 H11       24.6758    37.2436    39.7658 H          2 BB2          0.0000
@<TRIPOS>BOND
     1      1      2 1
     2      1     11 1
     3      1     12 1
     4      1     13 1
     5      2      3 ar
     6      2     10 ar
     7      3      4 ar
     8      3     14 1
     9      4      5 1
    10      4      6 ar
    11      5     15 1
    12      5     16 1
    13      5     17 1
    14      6      7 1
    15      6      8 ar
    16      8      9 1
    17      8     10 ar
    18     10     18 1
    19     19     20 1
    20     20     21 2
    21     20     24 1
    22     21     22 1
    23     21     25 1
    24     22     23 2
    25     22     26 1
    26     23     24 1
    27     23     27 1
    28      9     19 2
    29      7     19 1
@<TRIPOS>SUBSTRUCTURE
     1 BB1           7
     2 BB2          19
@<TRIPOS>MOLECULE
EN300-97589_i001_EN300-18990_i001_7_11_27
  27   29   2   0   0
SMALL
USER_CHARGES
@<TRIPOS>ATOM
     1 C1        33.1710    36.6867    34.9360 C.3        1 BB1          0.0000
     2 C2        32.3968    36.3590    36.1867 C.ar       1 BB1          0.0000
     3 C3        32.5117    35.1063    36.7604 C.ar       1 BB1          0.0000
     4 C4        31.8035    34.7997    37.9080 C.ar       1 BB1          0.0000
     5 C5        31.9318    33.4330    38.5297 C.3        1 BB1          0.0000
     6 C6        30.9764    35.7485    38.4861 C.ar       1 BB1          0.0000
     7 O7        30.2796    35.4483    39.6149 O.3        1 BB1          0.0000
     8 C8        30.8604    37.0111    37.9088 C.ar       1 BB1          0.0000
     9 N9        30.0262    37.9737    38.4887 N.2        1 BB1          0.0000
    10 C10       31.5780    37.3133    36.7607 C.ar       1 BB1          0.0000
    11 H11       32.5730    36.4312    34.0612 H          1 BB1          0.0000
    12 H12       33.4014    37.7520    34.9200 H          1 BB1          0.0000
    13 H13       34.0983    36.1141    34.9221 H          1 BB1          0.0000
    14 H14       33.1561    34.3653    36.3111 H          1 BB1          0.0000
    15 H15       32.7471    33.4381    39.2532 H          1 BB1          0.0000
    16 H16       31.0006    33.1741    39.0336 H          1 BB1          0.0000
    17 H17       32.1407    32.6983    37.7522 H          1 BB1          0.0000
    18 H18       31.4903    38.2911    36.3106 H          1 BB1          0.0000
    19 C2        29.2537    36.2421    39.6992 C.2        2 BB2          0.0000
    20 C3        27.8787    36.5567    39.7706 C.2        2 BB2          0.0000
    21 C4        27.1148    37.0282    38.7331 C.2        2 BB2          0.0000
    22 C5        25.8065    37.2503    39.0815 C.2        2 BB2          0.0000
    23 C6        25.5017    36.9730    40.3567 C.2        2 BB2          0.0000
    24 S7        26.8688    36.3999    41.2013 S.3        2 BB2          0.0000
    25 H9        27.5043    37.2070    37.7419 H          2 BB2          0.0000
    26 H10       25.0752    37.6220    38.3789 H          2 BB2          0.0000
    27 H11       24.5200    37.0920    40.7909 H          2 BB2          0.0000
@<TRIPOS>BOND
     1      1      2 1
     2      1     11 1
     3      1     12 1
     4      1     13 1
     5      2      3 ar
     6      2     10 ar
     7      3      4 ar
     8      3     14 1
     9      4      5 1
    10      4      6 ar
    11      5     15 1
    12      5     16 1
    13      5     17 1
    14      6      7 1
    15      6      8 ar
    16      8      9 1
    17      8     10 ar
    18     10     18 1
    19     19     20 1
    20     20     21 2
    21     20     24 1
    22     21     22 1
    23     21     25 1
    24     22     23 2
    25     22     26 1
    26     23     24 1
    27     23     27 1
    28      9     19 2
    29      7     19 1
@<TRIPOS>SUBSTRUCTURE
     1 BB1           7
     2 BB2          19
@<TRIPOS>MOLECULE
EN300-97589_i001_EN300-18990_i001_7_3_27
  27   29   2   0   0
SMALL
USER_CHARGES
@<TRIPOS>ATOM
     1 C1        33.1710    36.6867    34.9360 C.3        1 BB1          0.0000
     2 C2        32.3968    36.3590    36.1867 C.ar       1 BB1          0.0000
     3 C3        32.5117    35.1063    36.7604 C.ar       1 BB1          0.0000
     4 C4        31.8035    34.7997    37.9080 C.ar       1 BB1          0.0000
     5 C5        31.9318    33.4330    38.5297 C.3        1 BB1          0.0000
     6 C6        30.9764    35.7485    38.4861 C.ar       1 BB1          0.0000
     7 O7        30.2796    35.4483    39.6149 O.3        1 BB1          0.0000
     8 C8        30.8604    37.0111    37.9088 C.ar       1 BB1          0.0000
     9 N9        30.0262    37.9737    38.4887 N.2        1 BB1          0.0000
    10 C10       31.5780    37.3133    36.7607 C.ar       1 BB1          0.0000
    11 H11       32.5730    36.4312    34.0612 H          1 BB1          0.0000
    12 H12       33.4014    37.7520    34.9200 H          1 BB1          0.0000
    13 H13       34.0983    36.1141    34.9221 H          1 BB1          0.0000
    14 H14       33.1561    34.3653    36.3111 H          1 BB1          0.0000
    15 H15       32.7471    33.4381    39.2532 H          1 BB1          0.0000
    16 H16       31.0006    33.1741    39.0336 H          1 BB1          0.0000
    17 H17       32.1407    32.6983    37.7522 H          1 BB1          0.0000
    18 H18       31.4903    38.2911    36.3106 H          1 BB1          0.0000
    19 C2        29.4486    36.0021    39.7439 C.2        2 BB2          0.0000
    20 C3        28.1009    36.3373    40.0009 C.2        2 BB2          0.0000
    21 C4        27.5216    36.4117    41.2423 C.2        2 BB2          0.0000
    22 C5        26.1952    36.7596    41.2008 C.2        2 BB2          0.0000
    23 C6        25.6983    36.9646    39.9731 C.2        2 BB2          0.0000
    24 S7        26.8975    36.7336    38.7817 S.3        2 BB2          0.0000
    25 H9        28.0561    36.2156    42.1600 H          2 BB2          0.0000
    26 H10       25.5948    36.8607    42.0928 H          2 BB2          0.0000
    27 H11       24.6758    37.2436    39.7658 H          2 BB2          0.0000
@<TRIPOS>BOND
     1      1      2 1
     2      1     11 1
     3      1     12 1
     4      1     13 1
     5      2      3 ar
     6      2     10 ar
     7      3      4 ar
     8      3     14 1
     9      4      5 1
    10      4      6 ar
    11      5     15 1
    12      5     16 1
    13      5     17 1
    14      6      7 1
    15      6      8 ar
    16      8      9 1
    17      8     10 ar
    18     10     18 1
    19     19     20 1
    20     20     21 2
    21     20     24 1
    22     21     22 1
    23     21     25 1
    24     22     23 2
    25     22     26 1
    26     23     24 1
    27     23     27 1
    28      9     19 2
    29      7     19 1
@<TRIPOS>SUBSTRUCTURE
     1 BB1           7
     2 BB2          19
