@<TRIPOS>MOLECULE
EN300-7549830_i001_EN300-81521_i001_7_6_10
  34   35   2   0   0
SMALL
USER_CHARGES
@<TRIPOS>ATOM
     1 C1        28.4889    35.8007    42.1272 C.3        1 BB1          0.0000
     2 C2        27.9078    36.2733    40.8195 C.ar       1 BB1          0.0000
     3 C3        26.5436    36.4990    40.7075 C.ar       1 BB1          0.0000
     4 O4        25.7311    36.2940    41.7786 O.3        1 BB1          0.0000
     5 C5        26.0078    36.9338    39.5050 C.ar       1 BB1          0.0000
     6 C6        26.8314    37.1435    38.4143 C.ar       1 BB1          0.0000
     7 C7        28.1953    36.9189    38.5212 C.ar       1 BB1          0.0000
     8 N8        29.0305    37.1316    37.4152 N.pl3      1 BB1          0.0000
     9 C9        28.7360    36.4879    39.7309 C.ar       1 BB1          0.0000
    10 O10       30.0736    36.2671    39.8387 O.3        1 BB1          0.0000
    11 H11       28.4915    34.7109    42.1508 H          1 BB1          0.0000
    12 H12       29.5103    36.1687    42.2249 H          1 BB1          0.0000
    13 H13       27.8854    36.1806    42.9514 H          1 BB1          0.0000
    14 H14       24.9455    37.1086    39.4199 H          1 BB1          0.0000
    15 H15       26.4120    37.4823    37.4784 H          1 BB1          0.0000
    16 H16       26.1466    35.8002    42.4987 H          1 BB1          0.0000
    17 H17       28.6542    37.4360    36.5746 H          1 BB1          0.0000
    18 H19       30.3337    35.8185    40.6550 H          1 BB1          0.0000
    19 C1        32.5096    36.1058    37.8709 C.3        2 BB2          0.0000
    20 N2        31.7215    36.7036    36.7903 N.pl3      2 BB2          0.0000
    21 C3        32.1227    36.5058    35.3952 C.3        2 BB2          0.0000
    22 C4        32.5729    37.7381    34.6080 C.3        2 BB2          0.0000
    23 C5        33.6015    36.6960    35.0518 C.3        2 BB2          0.0000
    24 S6        30.3772    37.6029    37.1455 S.o2       2 BB2          0.0000
    25 O7        29.3299    37.0996    36.3274 O.2        2 BB2          0.0000
    26 O8        30.2964    37.6611    38.5631 O.2        2 BB2          0.0000
    27 H10       33.2843    36.8052    38.1853 H          2 BB2          0.0000
    28 H11       31.8575    35.8823    38.7153 H          2 BB2          0.0000
    29 H12       32.9733    35.1854    37.5163 H          2 BB2          0.0000
    30 H13       31.5751    35.7348    34.8533 H          2 BB2          0.0000
    31 H14       32.3217    37.7777    33.5482 H          2 BB2          0.0000
    32 H15       32.5705    38.6961    35.1281 H          2 BB2          0.0000
    33 H16       34.2758    36.9684    35.8637 H          2 BB2          0.0000
    34 H17       34.0271    36.0501    34.2838 H          2 BB2          0.0000
@<TRIPOS>BOND
     1      1      2 1
     2      1     11 1
     3      1     12 1
     4      1     13 1
     5      2      3 ar
     6      2      9 ar
     7      3      4 1
     8      3      5 ar
     9      4     16 1
    10      5      6 ar
    11      5     14 1
    12      6      7 ar
    13      6     15 1
    14      7      8 1
    15      7      9 ar
    16      8     17 1
    17      9     10 1
    18     10     18 1
    19     19     20 1
    20     19     27 1
    21     19     28 1
    22     19     29 1
    23     20     21 1
    24     20     24 1
    25     21     22 1
    26     21     23 1
    27     21     30 1
    28     22     23 1
    29     22     31 1
    30     22     32 1
    31     23     33 1
    32     23     34 1
    33     24     25 2
    34     24     26 2
    35      8     24 1
@<TRIPOS>SUBSTRUCTURE
     1 BB1           8
     2 BB2          24
@<TRIPOS>MOLECULE
EN300-7549830_i001_EN300-23873_i001_7_12_10
  36   36   2   0   0
SMALL
USER_CHARGES
@<TRIPOS>ATOM
     1 C1        28.4889    35.8007    42.1272 C.3        1 BB1          0.0000
     2 C2        27.9078    36.2733    40.8195 C.ar       1 BB1          0.0000
     3 C3        26.5436    36.4990    40.7075 C.ar       1 BB1          0.0000
     4 O4        25.7311    36.2940    41.7786 O.3        1 BB1          0.0000
     5 C5        26.0078    36.9338    39.5050 C.ar       1 BB1          0.0000
     6 C6        26.8314    37.1435    38.4143 C.ar       1 BB1          0.0000
     7 C7        28.1953    36.9189    38.5212 C.ar       1 BB1          0.0000
     8 N8        29.0305    37.1316    37.4152 N.pl3      1 BB1          0.0000
     9 C9        28.7360    36.4879    39.7309 C.ar       1 BB1          0.0000
    10 O10       30.0736    36.2671    39.8387 O.3        1 BB1          0.0000
    11 H11       28.4915    34.7109    42.1508 H          1 BB1          0.0000
    12 H12       29.5103    36.1687    42.2249 H          1 BB1          0.0000
    13 H13       27.8854    36.1806    42.9514 H          1 BB1          0.0000
    14 H14       24.9455    37.1086    39.4199 H          1 BB1          0.0000
    15 H15       26.4120    37.4823    37.4784 H          1 BB1          0.0000
    16 H16       26.1466    35.8002    42.4987 H          1 BB1          0.0000
    17 H17       28.6542    37.4360    36.5746 H          1 BB1          0.0000
    18 H19       30.3337    35.8185    40.6550 H          1 BB1          0.0000
    19 C1        32.1237    34.4707    37.6796 C.3        2 BB2          0.0000
    20 C2        32.3911    35.9674    37.8497 C.3        2 BB2          0.0000
    21 N3        32.1314    36.6569    36.5835 N.pl3      2 BB2          0.0000
    22 C4        32.9757    36.3884    35.4167 C.3        2 BB2          0.0000
    23 C5        32.6994    37.4352    34.3356 C.3        2 BB2          0.0000
    24 S6        30.8836    37.7399    36.4710 S.o2       2 BB2          0.0000
    25 O7        31.4766    39.0294    36.4021 O.2        2 BB2          0.0000
    26 O8        30.0028    37.2353    35.4767 O.2        2 BB2          0.0000
    27 H10       31.0842    34.3179    37.3893 H          2 BB2          0.0000
    28 H11       32.7795    34.0699    36.9066 H          2 BB2          0.0000
    29 H12       32.3169    33.9577    38.6218 H          2 BB2          0.0000
    30 H13       31.7352    36.3681    38.6227 H          2 BB2          0.0000
    31 H14       33.4304    36.1202    38.1401 H          2 BB2          0.0000
    32 H15       34.0248    36.4357    35.7087 H          2 BB2          0.0000
    33 H16       32.7515    35.3955    35.0268 H          2 BB2          0.0000
    34 H17       33.3277    37.2355    33.4674 H          2 BB2          0.0000
    35 H18       31.6504    37.3878    34.0435 H          2 BB2          0.0000
    36 H19       32.9237    38.4281    34.7255 H          2 BB2          0.0000
@<TRIPOS>BOND
     1      1      2 1
     2      1     11 1
     3      1     12 1
     4      1     13 1
     5      2      3 ar
     6      2      9 ar
     7      3      4 1
     8      3      5 ar
     9      4     16 1
    10      5      6 ar
    11      5     14 1
    12      6      7 ar
    13      6     15 1
    14      7      8 1
    15      7      9 ar
    16      8     17 1
    17      9     10 1
    18     10     18 1
    19     19     20 1
    20     19     27 1
    21     19     28 1
    22     19     29 1
    23     20     21 1
    24     20     30 1
    25     20     31 1
    26     21     22 1
    27     21     24 1
    28     22     23 1
    29     22     32 1
    30     22     33 1
    31     23     34 1
    32     23     35 1
    33     23     36 1
    34     24     25 2
    35     24     26 2
    36      8     24 1
@<TRIPOS>SUBSTRUCTURE
     1 BB1           8
     2 BB2          24
@<TRIPOS>MOLECULE
EN300-7549830_i001_EN300-23873_i001_7_13_10
  36   36   2   0   0
SMALL
USER_CHARGES
@<TRIPOS>ATOM
     1 C1        28.4889    35.8007    42.1272 C.3        1 BB1          0.0000
     2 C2        27.9078    36.2733    40.8195 C.ar       1 BB1          0.0000
     3 C3        26.5436    36.4990    40.7075 C.ar       1 BB1          0.0000
     4 O4        25.7311    36.2940    41.7786 O.3        1 BB1          0.0000
     5 C5        26.0078    36.9338    39.5050 C.ar       1 BB1          0.0000
     6 C6        26.8314    37.1435    38.4143 C.ar       1 BB1          0.0000
     7 C7        28.1953    36.9189    38.5212 C.ar       1 BB1          0.0000
     8 N8        29.0305    37.1316    37.4152 N.pl3      1 BB1          0.0000
     9 C9        28.7360    36.4879    39.7309 C.ar       1 BB1          0.0000
    10 O10       30.0736    36.2671    39.8387 O.3        1 BB1          0.0000
    11 H11       28.4915    34.7109    42.1508 H          1 BB1          0.0000
    12 H12       29.5103    36.1687    42.2249 H          1 BB1          0.0000
    13 H13       27.8854    36.1806    42.9514 H          1 BB1          0.0000
    14 H14       24.9455    37.1086    39.4199 H          1 BB1          0.0000
    15 H15       26.4120    37.4823    37.4784 H          1 BB1          0.0000
    16 H16       26.1466    35.8002    42.4987 H          1 BB1          0.0000
    17 H17       28.6542    37.4360    36.5746 H          1 BB1          0.0000
    18 H19       30.3337    35.8185    40.6550 H          1 BB1          0.0000
    19 C1        32.3602    37.9758    34.4967 C.3        2 BB2          0.0000
    20 C2        31.3846    37.0194    35.1852 C.3        2 BB2          0.0000
    21 N3        31.4105    37.2527    36.6313 N.pl3      2 BB2          0.0000
    22 C4        32.6336    36.9905    37.3938 C.3        2 BB2          0.0000
    23 C5        33.0145    35.5152    37.2554 C.3        2 BB2          0.0000
    24 S6        30.0571    37.8127    37.4040 S.o2       2 BB2          0.0000
    25 O7        28.9437    37.2823    36.6980 O.2        2 BB2          0.0000
    26 O8        30.2705    37.5989    38.7925 O.2        2 BB2          0.0000
    27 H10       32.0672    39.0051    34.7039 H          2 BB2          0.0000
    28 H11       33.3676    37.8017    34.8748 H          2 BB2          0.0000
    29 H12       32.3409    37.8022    33.4208 H          2 BB2          0.0000
    30 H13       30.3772    37.1936    34.8071 H          2 BB2          0.0000
    31 H14       31.6775    35.9902    34.9779 H          2 BB2          0.0000
    32 H15       33.4420    37.6121    37.0088 H          2 BB2          0.0000
    33 H16       32.4639    37.2249    38.4446 H          2 BB2          0.0000
    34 H17       33.9246    35.3201    37.8227 H          2 BB2          0.0000
    35 H18       32.2061    34.8936    37.6404 H          2 BB2          0.0000
    36 H19       33.1842    35.2808    36.2044 H          2 BB2          0.0000
@<TRIPOS>BOND
     1      1      2 1
     2      1     11 1
     3      1     12 1
     4      1     13 1
     5      2      3 ar
     6      2      9 ar
     7      3      4 1
     8      3      5 ar
     9      4     16 1
    10      5      6 ar
    11      5     14 1
    12      6      7 ar
    13      6     15 1
    14      7      8 1
    15      7      9 ar
    16      8     17 1
    17      9     10 1
    18     10     18 1
    19     19     20 1
    20     19     27 1
    21     19     28 1
    22     19     29 1
    23     20     21 1
    24     20     30 1
    25     20     31 1
    26     21     22 1
    27     21     24 1
    28     22     23 1
    29     22     32 1
    30     22     33 1
    31     23     34 1
    32     23     35 1
    33     23     36 1
    34     24     25 2
    35     24     26 2
    36      8     24 1
@<TRIPOS>SUBSTRUCTURE
     1 BB1           8
     2 BB2          24
@<TRIPOS>MOLECULE
EN300-7549830_i001_EN300-125264_i004_7_13_10
  44   45   2   0   0
SMALL
USER_CHARGES
@<TRIPOS>ATOM
     1 C1        28.4889    35.8007    42.1272 C.3        1 BB1          0.0000
     2 C2        27.9078    36.2733    40.8195 C.ar       1 BB1          0.0000
     3 C3        26.5436    36.4990    40.7075 C.ar       1 BB1          0.0000
     4 O4        25.7311    36.2940    41.7786 O.3        1 BB1          0.0000
     5 C5        26.0078    36.9338    39.5050 C.ar       1 BB1          0.0000
     6 C6        26.8314    37.1435    38.4143 C.ar       1 BB1          0.0000
     7 C7        28.1953    36.9189    38.5212 C.ar       1 BB1          0.0000
     8 N8        29.0305    37.1316    37.4152 N.pl3      1 BB1          0.0000
     9 C9        28.7360    36.4879    39.7309 C.ar       1 BB1          0.0000
    10 O10       30.0736    36.2671    39.8387 O.3        1 BB1          0.0000
    11 H11       28.4915    34.7109    42.1508 H          1 BB1          0.0000
    12 H12       29.5103    36.1687    42.2249 H          1 BB1          0.0000
    13 H13       27.8854    36.1806    42.9514 H          1 BB1          0.0000
    14 H14       24.9455    37.1086    39.4199 H          1 BB1          0.0000
    15 H15       26.4120    37.4823    37.4784 H          1 BB1          0.0000
    16 H16       26.1466    35.8002    42.4987 H          1 BB1          0.0000
    17 H17       28.6542    37.4360    36.5746 H          1 BB1          0.0000
    18 H19       30.3337    35.8185    40.6550 H          1 BB1          0.0000
    19 C1        31.4939    33.5108    38.2003 C.3        2 BB2          0.0000
    20 O2        32.1002    34.7987    38.4867 O.3        2 BB2          0.0000
    21 C3        31.6343    35.8567    37.8047 C.2        2 BB2          0.0000
    22 O4        30.5225    35.8291    37.3323 O.2        2 BB2          0.0000
    23 C5        32.4978    37.0792    37.6282 C.3        2 BB2          0.0000
    24 C6        33.8392    36.6719    37.0155 C.3        2 BB2          0.0000
    25 C7        33.5999    36.0157    35.6542 C.3        2 BB2          0.0000
    26 C8        32.8957    37.0079    34.7265 C.3        2 BB2          0.0000
    27 C9        31.5543    37.4152    35.3392 C.3        2 BB2          0.0000
    28 C10       31.7936    38.0714    36.7005 C.3        2 BB2          0.0000
    29 S11       30.2031    38.5543    37.4270 S.o2       2 BB2          0.0000
    30 O12       30.0026    37.8963    38.6704 O.2        2 BB2          0.0000
    31 O13       30.0008    39.9549    37.2983 O.2        2 BB2          0.0000
    32 H15       31.9612    32.7439    38.8180 H          2 BB2          0.0000
    33 H16       30.4272    33.5544    38.4202 H          2 BB2          0.0000
    34 H17       31.6382    33.2674    37.1476 H          2 BB2          0.0000
    35 H18       32.6683    37.5467    38.5980 H          2 BB2          0.0000
    36 H19       34.4637    37.5560    36.8878 H          2 BB2          0.0000
    37 H20       34.3409    35.9651    37.6763 H          2 BB2          0.0000
    38 H21       34.5556    35.7255    35.2176 H          2 BB2          0.0000
    39 H22       32.9753    35.1315    35.7819 H          2 BB2          0.0000
    40 H23       33.5202    37.8921    34.5989 H          2 BB2          0.0000
    41 H24       32.7252    36.5404    33.7567 H          2 BB2          0.0000
    42 H25       31.0526    38.1221    34.6784 H          2 BB2          0.0000
    43 H26       30.9297    36.5310    35.4669 H          2 BB2          0.0000
    44 H27       32.4180    38.9555    36.5729 H          2 BB2          0.0000
@<TRIPOS>BOND
     1      1      2 1
     2      1     11 1
     3      1     12 1
     4      1     13 1
     5      2      3 ar
     6      2      9 ar
     7      3      4 1
     8      3      5 ar
     9      4     16 1
    10      5      6 ar
    11      5     14 1
    12      6      7 ar
    13      6     15 1
    14      7      8 1
    15      7      9 ar
    16      8     17 1
    17      9     10 1
    18     10     18 1
    19     19     20 1
    20     19     32 1
    21     19     33 1
    22     19     34 1
    23     20     21 1
    24     21     22 2
    25     21     23 1
    26     23     24 1
    27     23     28 1
    28     23     35 1
    29     24     25 1
    30     24     36 1
    31     24     37 1
    32     25     26 1
    33     25     38 1
    34     25     39 1
    35     26     27 1
    36     26     40 1
    37     26     41 1
    38     27     28 1
    39     27     42 1
    40     27     43 1
    41     28     29 1
    42     28     44 1
    43     29     30 2
    44     29     31 2
    45      8     29 1
@<TRIPOS>SUBSTRUCTURE
     1 BB1           8
     2 BB2          29
@<TRIPOS>MOLECULE
EN300-7549830_i001_EN300-125264_i004_7_6_10
  44   45   2   0   0
SMALL
USER_CHARGES
@<TRIPOS>ATOM
     1 C1        28.4889    35.8007    42.1272 C.3        1 BB1          0.0000
     2 C2        27.9078    36.2733    40.8195 C.ar       1 BB1          0.0000
     3 C3        26.5436    36.4990    40.7075 C.ar       1 BB1          0.0000
     4 O4        25.7311    36.2940    41.7786 O.3        1 BB1          0.0000
     5 C5        26.0078    36.9338    39.5050 C.ar       1 BB1          0.0000
     6 C6        26.8314    37.1435    38.4143 C.ar       1 BB1          0.0000
     7 C7        28.1953    36.9189    38.5212 C.ar       1 BB1          0.0000
     8 N8        29.0305    37.1316    37.4152 N.pl3      1 BB1          0.0000
     9 C9        28.7360    36.4879    39.7309 C.ar       1 BB1          0.0000
    10 O10       30.0736    36.2671    39.8387 O.3        1 BB1          0.0000
    11 H11       28.4915    34.7109    42.1508 H          1 BB1          0.0000
    12 H12       29.5103    36.1687    42.2249 H          1 BB1          0.0000
    13 H13       27.8854    36.1806    42.9514 H          1 BB1          0.0000
    14 H14       24.9455    37.1086    39.4199 H          1 BB1          0.0000
    15 H15       26.4120    37.4823    37.4784 H          1 BB1          0.0000
    16 H16       26.1466    35.8002    42.4987 H          1 BB1          0.0000
    17 H17       28.6542    37.4360    36.5746 H          1 BB1          0.0000
    18 H19       30.3337    35.8185    40.6550 H          1 BB1          0.0000
    19 C1        31.3088    33.5520    38.4987 C.3        2 BB2          0.0000
    20 O2        32.0474    34.7994    38.5809 O.3        2 BB2          0.0000
    21 C3        31.6525    35.7957    37.7727 C.2        2 BB2          0.0000
    22 O4        30.6075    35.7086    37.1724 O.2        2 BB2          0.0000
    23 C5        32.5126    37.0231    37.6140 C.3        2 BB2          0.0000
    24 C6        33.9304    36.6048    37.2194 C.3        2 BB2          0.0000
    25 C7        33.8864    35.8383    35.8960 C.3        2 BB2          0.0000
    26 C8        33.2975    36.7361    34.8059 C.3        2 BB2          0.0000
    27 C9        31.8797    37.1544    35.2005 C.3        2 BB2          0.0000
    28 C10       31.9238    37.9209    36.5239 C.3        2 BB2          0.0000
    29 S11       30.2428    38.4168    36.9917 S.o2       2 BB2          0.0000
    30 O12       29.3222    38.0954    35.9580 O.2        2 BB2          0.0000
    31 O13       29.9777    38.0675    38.3434 O.2        2 BB2          0.0000
    32 H15       31.7296    32.8337    39.2023 H          2 BB2          0.0000
    33 H16       30.2626    33.7323    38.7456 H          2 BB2          0.0000
    34 H17       31.3799    33.1537    37.4866 H          2 BB2          0.0000
    35 H18       32.5440    37.5691    38.5568 H          2 BB2          0.0000
    36 H19       34.5524    37.4924    37.1046 H          2 BB2          0.0000
    37 H20       34.3498    35.9651    37.9959 H          2 BB2          0.0000
    38 H21       34.8964    35.5402    35.6149 H          2 BB2          0.0000
    39 H22       33.2642    34.9506    36.0108 H          2 BB2          0.0000
    40 H23       33.9196    37.6238    34.6912 H          2 BB2          0.0000
    41 H24       33.2662    36.1900    33.8631 H          2 BB2          0.0000
    42 H25       31.4602    37.7941    34.4240 H          2 BB2          0.0000
    43 H26       31.2576    36.2667    35.3153 H          2 BB2          0.0000
    44 H27       32.5457    38.8086    36.4092 H          2 BB2          0.0000
@<TRIPOS>BOND
     1      1      2 1
     2      1     11 1
     3      1     12 1
     4      1     13 1
     5      2      3 ar
     6      2      9 ar
     7      3      4 1
     8      3      5 ar
     9      4     16 1
    10      5      6 ar
    11      5     14 1
    12      6      7 ar
    13      6     15 1
    14      7      8 1
    15      7      9 ar
    16      8     17 1
    17      9     10 1
    18     10     18 1
    19     19     20 1
    20     19     32 1
    21     19     33 1
    22     19     34 1
    23     20     21 1
    24     21     22 2
    25     21     23 1
    26     23     24 1
    27     23     28 1
    28     23     35 1
    29     24     25 1
    30     24     36 1
    31     24     37 1
    32     25     26 1
    33     25     38 1
    34     25     39 1
    35     26     27 1
    36     26     40 1
    37     26     41 1
    38     27     28 1
    39     27     42 1
    40     27     43 1
    41     28     29 1
    42     28     44 1
    43     29     30 2
    44     29     31 2
    45      8     29 1
@<TRIPOS>SUBSTRUCTURE
     1 BB1           8
     2 BB2          29
