#       Name:                EN300-1428682_i001
#       Creating user name   fsindt
#       Creation time:       Wed Mar  1 14:23:52 2023


#       File generated by GOLD software.
#

@<TRIPOS>MOLECULE
EN300-1428682_i001|amine_1|mol2|11013|dock3
    23    24     1
SMALL
USER_CHARGES


@<TRIPOS>ATOM
      1 O1           0.7666 -12.2076   6.8701 O.3            1 <1>                0.0000
      2 C2           1.1157 -12.9771   8.0224 C.3            1 <1>                0.0000
      3 C3           1.3947 -14.4445   7.6346 C.3            1 <1>                0.0000
      4 N4           0.8229 -15.2932   8.6960 N.4            1 <1>                1.0000
      5 C5           0.2275 -14.4185   9.7286 C.3            1 <1>                0.0000
      6 C6          -0.0915 -13.0949   8.9898 C.3            1 <1>                0.0000
      7 C7          -0.1283 -11.9174   9.9660 C.3            1 <1>                0.0000
      8 C8          -1.1817 -10.8339   9.7266 C.3            1 <1>                0.0000
      9 C9          -1.3385 -11.8082  10.8958 C.3            1 <1>                0.0000
     10 H10          1.9774 -12.5417   8.5284 H              1 <1>                0.0000
     11 H11          0.9192 -14.6728   6.6807 H              1 <1>                0.0000
     12 H12          2.4697 -14.6116   7.5649 H              1 <1>                0.0000
     13 H13         -0.6866 -14.8634  10.1217 H              1 <1>                0.0000
     14 H14          0.9410 -14.2415  10.5333 H              1 <1>                0.0000
     15 H15         -1.0281 -13.1718   8.4377 H              1 <1>                0.0000
     16 H16          0.8383 -11.6016  10.3584 H              1 <1>                0.0000
     17 H17         -0.9082  -9.8053   9.9618 H              1 <1>                0.0000
     18 H18         -1.8484 -10.9599   8.8736 H              1 <1>                0.0000
     19 H19         -2.1084 -12.5752  10.8120 H              1 <1>                0.0000
     20 H20         -1.1681 -11.4206  11.9002 H              1 <1>                0.0000
     21 H21          0.0099 -12.5558   6.3791 H              1 <1>                0.0000
     22 H22          0.1103 -15.8914   8.3056 H              1 <1>                0.0000
     23 H23          1.5504 -15.8581   9.1080 H              1 <1>                0.0000
@<TRIPOS>BOND
    1    1    2 1     
    2    1   21 1     
    3    2    3 1     
    4    2    6 1     
    5    2   10 1     
    6    3    4 1     
    7    3   11 1     
    8    3   12 1     
    9    4    5 1     
   10    4   22 1     
   11    4   23 1     
   12    5    6 1     
   13    5   13 1     
   14    5   14 1     
   15    6    7 1     
   16    6   15 1     
   17    7    8 1     
   18    7    9 1     
   19    7   16 1     
   20    8    9 1     
   21    8   17 1     
   22    8   18 1     
   23    9   19 1     
   24    9   20 1     
@<TRIPOS>SUBSTRUCTURE
      1 ****           1
@<TRIPOS>SET
DONOR_HYDROGENS      STATIC     ATOMS    <user>   **** ""
3 21 22 23
ATOM$RED        STATIC     ATOMS    COLORGROUP SYSTEM
3 21 22 23
@<TRIPOS>COMMENT
> <Gold.Version>
2022.2.0

> <Gold.Id.Protein>
3pbl|protein|mol2

> <Gold.Protein.RotatedTorsions>
[ 1303 1298 1297 1294 ] final -141.28 input  179.99 | X-H torsion
[ 2461 2456 2455 2452 ] final    1.20 input   30.03 | X-H torsion
[ 2515 2510 2509 2506 ] final -130.00 input  -89.99 | X-H torsion
[ 3721 3712 3711 3710 ] final -103.89 input -179.91 | X-H torsion
[ 3841 3832 3831 3830 ] final  128.60 input -179.91 | X-H torsion
[ 3767 3762 3761 3758 ] final   31.36 input  -89.99 | X-H torsion
[ 2472 2467 2466 2463 ] final  124.40 input  -89.97 | X-H torsion

> <Gold.Protein.ActiveResidues>
 VAL82   VAL86   LEU89   PHE106  VAL107  ASP110  VAL111  MET112  CYS114  THR115 
 CYS181  SER182  ILE183  PHE188  VAL189  ILE190  SER192  SER193  SER196  TRP342 
 PHE345  PHE346  HIS349  VAL350  TYR365  THR369  GLY372  TYR373 

> <Gold.Protein.RotatedAtoms>
    4.5096   -8.5173    4.3022 H   0  0  0  0  0  0  0  0  0  0  0  0  # atno 1303 bound_to 1298
    1.0597   -7.9820    7.0309 H   0  0  0  0  0  0  0  0  0  0  0  0  # atno 2461 bound_to 2456
   -5.4462   -5.1008    8.1938 H   0  0  0  0  0  0  0  0  0  0  0  0  # atno 2472 bound_to 2467
    2.6602   -9.2445    5.1508 H   0  0  0  0  0  0  0  0  0  0  0  0  # atno 2515 bound_to 2510
   -3.1216  -16.7969   14.5784 H   0  0  0  0  0  0  0  0  0  0  0  0  # atno 3721 bound_to 3712
   -4.9649  -23.0700   10.0660 H   0  0  0  0  0  0  0  0  0  0  0  0  # atno 3767 bound_to 3762
    3.1151  -20.6427    8.8447 H   0  0  0  0  0  0  0  0  0  0  0  0  # atno 3841 bound_to 3832
    4.5229  -10.0366    4.9003 LP  0  0  0  0  0  0  0  0  0  0  0  0  # atno 4297 bound_to 1298
    3.3296   -9.5677    3.8891 LP  0  0  0  0  0  0  0  0  0  0  0  0  # atno 4298 bound_to 1298
    0.5629   -9.1660    8.0403 LP  0  0  0  0  0  0  0  0  0  0  0  0  # atno 4299 bound_to 2456
    2.1151   -8.6600    8.0767 LP  0  0  0  0  0  0  0  0  0  0  0  0  # atno 4300 bound_to 2456
    2.0297   -8.0106    6.0143 LP  0  0  0  0  0  0  0  0  0  0  0  0  # atno 4301 bound_to 2510
    2.6067   -7.7436    4.5102 LP  0  0  0  0  0  0  0  0  0  0  0  0  # atno 4302 bound_to 2510
   -3.3166  -17.1251   13.0188 LP  0  0  0  0  0  0  0  0  0  0  0  0  # atno 4306 bound_to 3712
   -2.6072  -18.2089   14.0132 LP  0  0  0  0  0  0  0  0  0  0  0  0  # atno 4307 bound_to 3712
    1.6568  -20.7253    9.5099 LP  0  0  0  0  0  0  0  0  0  0  0  0  # atno 4314 bound_to 3832
    1.9741  -19.6346    8.3368 LP  0  0  0  0  0  0  0  0  0  0  0  0  # atno 4315 bound_to 3832
   -5.2396  -21.9230   11.1955 LP  0  0  0  0  0  0  0  0  0  0  0  0  # atno 4318 bound_to 3762
   -3.9230  -22.8822   11.3093 LP  0  0  0  0  0  0  0  0  0  0  0  0  # atno 4319 bound_to 3762
   -3.8408   -4.8597    8.0172 LP  0  0  0  0  0  0  0  0  0  0  0  0  # atno 4320 bound_to 2467
   -4.4301   -5.4330    9.4281 LP  0  0  0  0  0  0  0  0  0  0  0  0  # atno 4321 bound_to 2467

> <Gold.Score>
     Score     S(PLP)   S(hbond)     S(cho)   S(metal)  DE(clash)   DE(tors)     intcor
     34.81     -28.91       2.00       0.00       0.00       0.00       0.64       1.17

> <Gold.PLP.Fitness>
34.8069

> <Gold.PLP.PLP>
-28.9122

> <Gold.PLP.part.hbond>
-1.0000

> <Gold.PLP.part.metal>
0.0000

> <Gold.PLP.part.buried>
-3.4617

> <Gold.PLP.part.nonpolar>
-24.8564

> <Gold.PLP.part.repulsive>
0.0137

> <Gold.PLP.ligand.clash>
0.0000

> <Gold.PLP.ligand.torsion>
0.6382

> <Gold.PLP.Chemscore.Hbond>
2.0000

> <Gold.PLP.Chemscore.CHOScore>
0.0000

> <Gold.PLP.Chemscore.Metal>
0.0000

> <Gold.Chemscore.Hbonds>
donor molecule, donor type, donor heavy atom, donor atom, acceptor molecule, acceptor atom, score
      L1  H     4    23       P1  1227  2.00

> <Gold.PLP.Chemscore.Internal.Correction>
1.1711

