#       Name:                EN300-1428682_i001
#       Creating user name   fsindt
#       Creation time:       Wed Mar  1 14:23:55 2023


#       File generated by GOLD software.
#

@<TRIPOS>MOLECULE
EN300-1428682_i001|amine_1|mol2|11013|dock12
    23    24     1
SMALL
USER_CHARGES


@<TRIPOS>ATOM
      1 O1          -0.7751 -16.7332  13.1673 O.3            1 <1>                0.0000
      2 C2           0.5909 -16.3821  13.3969 C.3            1 <1>                0.0000
      3 C3           1.1635 -15.6029  12.1942 C.3            1 <1>                0.0000
      4 N4           2.5461 -16.0717  11.9882 N.4            1 <1>                1.0000
      5 C5           2.8589 -17.0833  13.0200 C.3            1 <1>                0.0000
      6 C6           1.4824 -17.6508  13.4477 C.3            1 <1>                0.0000
      7 C7           1.5418 -18.2223  14.8657 C.3            1 <1>                0.0000
      8 C8           0.3525 -19.0597  15.3402 C.3            1 <1>                0.0000
      9 C9           1.6833 -19.7389  15.0107 C.3            1 <1>                0.0000
     10 H10          0.6893 -15.8016  14.3143 H              1 <1>                0.0000
     11 H11          0.5672 -15.8039  11.3042 H              1 <1>                0.0000
     12 H12          1.1626 -14.5344  12.4103 H              1 <1>                0.0000
     13 H13          3.4813 -17.8736  12.6003 H              1 <1>                0.0000
     14 H14          3.3577 -16.6171  13.8696 H              1 <1>                0.0000
     15 H15          1.1328 -18.4022  12.7398 H              1 <1>                0.0000
     16 H16          2.0435 -17.5969  15.6041 H              1 <1>                0.0000
     17 H17          0.0720 -18.9854  16.3910 H              1 <1>                0.0000
     18 H18         -0.4723 -19.2033  14.6423 H              1 <1>                0.0000
     19 H19          1.7340 -20.3294  14.0959 H              1 <1>                0.0000
     20 H20          2.2782 -20.1114  15.8446 H              1 <1>                0.0000
     21 H21         -0.9588 -17.0296  12.2654 H              1 <1>                0.0000
     22 H22          2.6317 -16.4842  11.0713 H              1 <1>                0.0000
     23 H23          3.1841 -15.2944  12.0704 H              1 <1>                0.0000
@<TRIPOS>BOND
    1    1    2 1     
    2    1   21 1     
    3    2    3 1     
    4    2    6 1     
    5    2   10 1     
    6    3    4 1     
    7    3   11 1     
    8    3   12 1     
    9    4    5 1     
   10    4   22 1     
   11    4   23 1     
   12    5    6 1     
   13    5   13 1     
   14    5   14 1     
   15    6    7 1     
   16    6   15 1     
   17    7    8 1     
   18    7    9 1     
   19    7   16 1     
   20    8    9 1     
   21    8   17 1     
   22    8   18 1     
   23    9   19 1     
   24    9   20 1     
@<TRIPOS>SUBSTRUCTURE
      1 ****           1
@<TRIPOS>SET
DONOR_HYDROGENS      STATIC     ATOMS    <user>   **** ""
3 21 22 23
ATOM$RED        STATIC     ATOMS    COLORGROUP SYSTEM
3 21 22 23
@<TRIPOS>COMMENT
> <Gold.Version>
2022.2.0

> <Gold.Id.Protein>
3pbl|protein|mol2

> <Gold.Protein.RotatedTorsions>
[ 1303 1298 1297 1294 ] final -163.32 input  179.99 | X-H torsion
[ 2461 2456 2455 2452 ] final   30.28 input   30.03 | X-H torsion
[ 2515 2510 2509 2506 ] final -175.48 input  -89.99 | X-H torsion
[ 3721 3712 3711 3710 ] final   24.28 input -179.91 | X-H torsion
[ 3841 3832 3831 3830 ] final -143.32 input -179.91 | X-H torsion
[ 3767 3762 3761 3758 ] final  132.99 input  -89.99 | X-H torsion
[ 2472 2467 2466 2463 ] final  -84.98 input  -89.97 | X-H torsion

> <Gold.Protein.ActiveResidues>
 VAL82   VAL86   LEU89   PHE106  VAL107  ASP110  VAL111  MET112  CYS114  THR115 
 CYS181  SER182  ILE183  PHE188  VAL189  ILE190  SER192  SER193  SER196  TRP342 
 PHE345  PHE346  HIS349  VAL350  TYR365  THR369  GLY372  TYR373 

> <Gold.Protein.RotatedAtoms>
    4.7396   -8.6815    4.5257 H   0  0  0  0  0  0  0  0  0  0  0  0  # atno 1303 bound_to 1298
    1.5189   -7.9182    7.1276 H   0  0  0  0  0  0  0  0  0  0  0  0  # atno 2461 bound_to 2456
   -3.9777   -5.3210    9.2530 H   0  0  0  0  0  0  0  0  0  0  0  0  # atno 2472 bound_to 2467
    2.3547   -9.0820    5.7919 H   0  0  0  0  0  0  0  0  0  0  0  0  # atno 2515 bound_to 2510
   -2.4743  -18.0339   13.8865 H   0  0  0  0  0  0  0  0  0  0  0  0  # atno 3721 bound_to 3712
   -3.9125  -23.0774   11.0806 H   0  0  0  0  0  0  0  0  0  0  0  0  # atno 3767 bound_to 3762
    2.5411  -19.7030    8.3588 H   0  0  0  0  0  0  0  0  0  0  0  0  # atno 3841 bound_to 3832
    4.2378  -10.2158    4.7717 LP  0  0  0  0  0  0  0  0  0  0  0  0  # atno 4297 bound_to 1298
    3.3845   -9.2243    3.7941 LP  0  0  0  0  0  0  0  0  0  0  0  0  # atno 4298 bound_to 1298
    0.3528   -8.9047    7.7059 LP  0  0  0  0  0  0  0  0  0  0  0  0  # atno 4299 bound_to 2456
    1.8661   -8.9851    8.3145 LP  0  0  0  0  0  0  0  0  0  0  0  0  # atno 4300 bound_to 2456
    2.1280   -7.4890    5.5148 LP  0  0  0  0  0  0  0  0  0  0  0  0  # atno 4301 bound_to 2510
    2.8141   -8.4278    4.3683 LP  0  0  0  0  0  0  0  0  0  0  0  0  # atno 4302 bound_to 2510
   -3.2773  -16.9282   14.7294 LP  0  0  0  0  0  0  0  0  0  0  0  0  # atno 4306 bound_to 3712
   -3.3938  -16.9776   13.1014 LP  0  0  0  0  0  0  0  0  0  0  0  0  # atno 4307 bound_to 3712
    2.8655  -21.0938    9.0914 LP  0  0  0  0  0  0  0  0  0  0  0  0  # atno 4314 bound_to 3832
    1.4285  -20.3516    9.3166 LP  0  0  0  0  0  0  0  0  0  0  0  0  # atno 4315 bound_to 3832
   -5.1916  -22.8733   10.0861 LP  0  0  0  0  0  0  0  0  0  0  0  0  # atno 4318 bound_to 3762
   -5.0229  -21.9245   11.4045 LP  0  0  0  0  0  0  0  0  0  0  0  0  # atno 4319 bound_to 3762
   -5.4976   -5.2730    8.6581 LP  0  0  0  0  0  0  0  0  0  0  0  0  # atno 4320 bound_to 2467
   -4.2415   -4.7996    7.7282 LP  0  0  0  0  0  0  0  0  0  0  0  0  # atno 4321 bound_to 2467

> <Gold.Score>
     Score     S(PLP)   S(hbond)     S(cho)   S(metal)  DE(clash)   DE(tors)     intcor
     32.04     -25.89       2.06       0.00       0.00       0.00       0.61       1.17

> <Gold.PLP.Fitness>
32.0359

> <Gold.PLP.PLP>
-25.8885

> <Gold.PLP.part.hbond>
-2.0000

> <Gold.PLP.part.metal>
0.0000

> <Gold.PLP.part.buried>
-3.6590

> <Gold.PLP.part.nonpolar>
-20.6215

> <Gold.PLP.part.repulsive>
0.0000

> <Gold.PLP.ligand.clash>
0.0000

> <Gold.PLP.ligand.torsion>
0.6092

> <Gold.PLP.Chemscore.Hbond>
2.0649

> <Gold.PLP.Chemscore.CHOScore>
0.0000

> <Gold.PLP.Chemscore.Metal>
0.0000

> <Gold.Chemscore.Hbonds>
donor molecule, donor type, donor heavy atom, donor atom, acceptor molecule, acceptor atom, score
      L1  H     4    22       P1  1227  2.00
      P1  H  3712  3721       L1     1  0.06

> <Gold.PLP.Chemscore.Internal.Correction>
1.1711

