#       Name:                EN300-1428682_i001
#       Creating user name   fsindt
#       Creation time:       Wed Mar  1 14:23:57 2023


#       File generated by GOLD software.
#

@<TRIPOS>MOLECULE
EN300-1428682_i001|amine_1|mol2|11013|dock19
    23    24     1
SMALL
USER_CHARGES


@<TRIPOS>ATOM
      1 O1          -1.2856 -12.8854  11.1482 O.3            1 <1>                0.0000
      2 C2          -0.3281 -12.2612  10.2906 C.3            1 <1>                0.0000
      3 C3          -0.7093 -10.7892  10.0274 C.3            1 <1>                0.0000
      4 N4          -0.4104 -10.5069   8.6115 N.4            1 <1>                1.0000
      5 C5           0.1579 -11.7263   7.9982 C.3            1 <1>                0.0000
      6 C6          -0.3679 -12.8912   8.8734 C.3            1 <1>                0.0000
      7 C7           0.5604 -14.1043   8.7867 C.3            1 <1>                0.0000
      8 C8           0.1984 -15.2005   7.7826 C.3            1 <1>                0.0000
      9 C9           1.3843 -14.2734   7.5086 C.3            1 <1>                0.0000
     10 H10          0.6724 -12.3298  10.7178 H              1 <1>                0.0000
     11 H11         -1.7722 -10.6414  10.2187 H              1 <1>                0.0000
     12 H12         -0.1202 -10.1333  10.6687 H              1 <1>                0.0000
     13 H13         -0.1934 -11.8340   6.9721 H              1 <1>                0.0000
     14 H14          1.2470 -11.6926   8.0258 H              1 <1>                0.0000
     15 H15         -1.3866 -13.1602   8.5943 H              1 <1>                0.0000
     16 H16          1.0188 -14.4136   9.7259 H              1 <1>                0.0000
     17 H17          0.4191 -16.2310   8.0612 H              1 <1>                0.0000
     18 H18         -0.7011 -15.0575   7.1838 H              1 <1>                0.0000
     19 H19          1.2649 -13.5205   6.7295 H              1 <1>                0.0000
     20 H20          2.3851 -14.6939   7.6069 H              1 <1>                0.0000
     21 H21         -0.9762 -13.0145  12.0552 H              1 <1>                0.0000
     22 H22         -1.2588 -10.2486   8.1303 H              1 <1>                0.0000
     23 H23          0.2571  -9.7528   8.5491 H              1 <1>                0.0000
@<TRIPOS>BOND
    1    1    2 1     
    2    1   21 1     
    3    2    3 1     
    4    2    6 1     
    5    2   10 1     
    6    3    4 1     
    7    3   11 1     
    8    3   12 1     
    9    4    5 1     
   10    4   22 1     
   11    4   23 1     
   12    5    6 1     
   13    5   13 1     
   14    5   14 1     
   15    6    7 1     
   16    6   15 1     
   17    7    8 1     
   18    7    9 1     
   19    7   16 1     
   20    8    9 1     
   21    8   17 1     
   22    8   18 1     
   23    9   19 1     
   24    9   20 1     
@<TRIPOS>SUBSTRUCTURE
      1 ****           1
@<TRIPOS>SET
DONOR_HYDROGENS      STATIC     ATOMS    <user>   **** ""
3 21 22 23
ATOM$RED        STATIC     ATOMS    COLORGROUP SYSTEM
3 21 22 23
@<TRIPOS>COMMENT
> <Gold.Version>
2022.2.0

> <Gold.Id.Protein>
3pbl|protein|mol2

> <Gold.Protein.RotatedTorsions>
[ 1303 1298 1297 1294 ] final  -51.74 input  179.99 | X-H torsion
[ 2461 2456 2455 2452 ] final   46.65 input   30.03 | X-H torsion
[ 2515 2510 2509 2506 ] final -125.19 input  -89.99 | X-H torsion
[ 3721 3712 3711 3710 ] final   56.47 input -179.91 | X-H torsion
[ 3841 3832 3831 3830 ] final  149.40 input -179.91 | X-H torsion
[ 3767 3762 3761 3758 ] final  -53.54 input  -89.99 | X-H torsion
[ 2472 2467 2466 2463 ] final  -16.56 input  -89.97 | X-H torsion

> <Gold.Protein.ActiveResidues>
 VAL82   VAL86   LEU89   PHE106  VAL107  ASP110  VAL111  MET112  CYS114  THR115 
 CYS181  SER182  ILE183  PHE188  VAL189  ILE190  SER192  SER193  SER196  TRP342 
 PHE345  PHE346  HIS349  VAL350  TYR365  THR369  GLY372  TYR373 

> <Gold.Protein.RotatedAtoms>
    3.4348   -9.0962    3.7799 H   0  0  0  0  0  0  0  0  0  0  0  0  # atno 1303 bound_to 1298
    1.7541   -7.9590    7.2505 H   0  0  0  0  0  0  0  0  0  0  0  0  # atno 2461 bound_to 2456
   -3.6792   -4.9471    8.3068 H   0  0  0  0  0  0  0  0  0  0  0  0  # atno 2472 bound_to 2467
    2.6874   -9.2283    5.0782 H   0  0  0  0  0  0  0  0  0  0  0  0  # atno 2515 bound_to 2510
   -2.5733  -17.9323   13.4278 H   0  0  0  0  0  0  0  0  0  0  0  0  # atno 3721 bound_to 3712
   -5.4889  -22.1126   10.7210 H   0  0  0  0  0  0  0  0  0  0  0  0  # atno 3767 bound_to 3762
    3.1248  -20.4130    8.6330 H   0  0  0  0  0  0  0  0  0  0  0  0  # atno 3841 bound_to 3832
    4.8055   -8.7727    4.6063 LP  0  0  0  0  0  0  0  0  0  0  0  0  # atno 4297 bound_to 1298
    4.1221  -10.2525    4.7056 LP  0  0  0  0  0  0  0  0  0  0  0  0  # atno 4298 bound_to 1298
    0.3326   -8.7189    7.5133 LP  0  0  0  0  0  0  0  0  0  0  0  0  # atno 4299 bound_to 2456
    1.6512   -9.1300    8.3843 LP  0  0  0  0  0  0  0  0  0  0  0  0  # atno 4300 bound_to 2456
    2.0337   -8.0844    6.0426 LP  0  0  0  0  0  0  0  0  0  0  0  0  # atno 4301 bound_to 2510
    2.5755   -7.6859    4.5545 LP  0  0  0  0  0  0  0  0  0  0  0  0  # atno 4302 bound_to 2510
   -3.0131  -17.3682   14.8652 LP  0  0  0  0  0  0  0  0  0  0  0  0  # atno 4306 bound_to 3712
   -3.5436  -16.6549   13.4953 LP  0  0  0  0  0  0  0  0  0  0  0  0  # atno 4307 bound_to 3712
    1.9187  -20.9478    9.5470 LP  0  0  0  0  0  0  0  0  0  0  0  0  # atno 4314 bound_to 3832
    1.7010  -19.6774    8.5443 LP  0  0  0  0  0  0  0  0  0  0  0  0  # atno 4315 bound_to 3832
   -4.1571  -22.4545   11.6020 LP  0  0  0  0  0  0  0  0  0  0  0  0  # atno 4318 bound_to 3762
   -4.4817  -23.3078   10.2481 LP  0  0  0  0  0  0  0  0  0  0  0  0  # atno 4319 bound_to 3762
   -4.7709   -5.4627    9.4063 LP  0  0  0  0  0  0  0  0  0  0  0  0  # atno 4320 bound_to 2467
   -5.2667   -4.9837    7.9260 LP  0  0  0  0  0  0  0  0  0  0  0  0  # atno 4321 bound_to 2467

> <Gold.Score>
     Score     S(PLP)   S(hbond)     S(cho)   S(metal)  DE(clash)   DE(tors)     intcor
     31.21     -28.87       1.00       0.00       0.00       0.00       0.91       1.17

> <Gold.PLP.Fitness>
31.2099

> <Gold.PLP.PLP>
-28.8651

> <Gold.PLP.part.hbond>
-1.0000

> <Gold.PLP.part.metal>
0.0000

> <Gold.PLP.part.buried>
-3.0069

> <Gold.PLP.part.nonpolar>
-25.3986

> <Gold.PLP.part.repulsive>
0.0393

> <Gold.PLP.ligand.clash>
0.0000

> <Gold.PLP.ligand.torsion>
0.9131

> <Gold.PLP.Chemscore.Hbond>
1.0000

> <Gold.PLP.Chemscore.CHOScore>
0.0000

> <Gold.PLP.Chemscore.Metal>
0.0000

> <Gold.Chemscore.Hbonds>
donor molecule, donor type, donor heavy atom, donor atom, acceptor molecule, acceptor atom, score
      L1  H     4    23       P1  2456  1.00

> <Gold.PLP.Chemscore.Internal.Correction>
1.1711

