#       Name:                EN300-1428682_i001
#       Creating user name   fsindt
#       Creation time:       Wed Mar  1 14:23:52 2023


#       File generated by GOLD software.
#

@<TRIPOS>MOLECULE
EN300-1428682_i001|amine_1|mol2|11013|dock2
    23    24     1
SMALL
USER_CHARGES


@<TRIPOS>ATOM
      1 O1          -1.3005 -12.5118  11.9985 O.3            1 <1>                0.0000
      2 C2          -1.5573 -12.0825  10.6599 C.3            1 <1>                0.0000
      3 C3          -0.2359 -11.8785   9.8894 C.3            1 <1>                0.0000
      4 N4          -0.3985 -10.6744   9.0542 N.4            1 <1>                1.0000
      5 C5          -1.7632 -10.1426   9.2557 C.3            1 <1>                0.0000
      6 C6          -2.1899 -10.6660  10.6498 C.3            1 <1>                0.0000
      7 C7          -3.7136 -10.7455  10.7627 C.3            1 <1>                0.0000
      8 C8          -4.5389  -9.8850   9.8038 C.3            1 <1>                0.0000
      9 C9          -4.4743 -11.4011   9.6083 C.3            1 <1>                0.0000
     10 H10         -2.1980 -12.7974  10.1435 H              1 <1>                0.0000
     11 H11          0.5847 -11.7342  10.5923 H              1 <1>                0.0000
     12 H12         -0.0377 -12.7443   9.2574 H              1 <1>                0.0000
     13 H13         -1.7509  -9.0527   9.2470 H              1 <1>                0.0000
     14 H14         -2.4356 -10.5215   8.4861 H              1 <1>                0.0000
     15 H15         -1.7729 -10.0466  11.4438 H              1 <1>                0.0000
     16 H16         -4.1035 -10.8917  11.7700 H              1 <1>                0.0000
     17 H17         -5.4719  -9.4654  10.1802 H              1 <1>                0.0000
     18 H18         -3.9963  -9.2622   9.0926 H              1 <1>                0.0000
     19 H19         -3.8892 -11.7757   8.7685 H              1 <1>                0.0000
     20 H20         -5.3647 -11.9789   9.8562 H              1 <1>                0.0000
     21 H21         -1.9883 -13.0827  12.3672 H              1 <1>                0.0000
     22 H22          0.2804  -9.9789   9.3252 H              1 <1>                0.0000
     23 H23         -0.2677 -10.9146   8.0830 H              1 <1>                0.0000
@<TRIPOS>BOND
    1    1    2 1     
    2    1   21 1     
    3    2    3 1     
    4    2    6 1     
    5    2   10 1     
    6    3    4 1     
    7    3   11 1     
    8    3   12 1     
    9    4    5 1     
   10    4   22 1     
   11    4   23 1     
   12    5    6 1     
   13    5   13 1     
   14    5   14 1     
   15    6    7 1     
   16    6   15 1     
   17    7    8 1     
   18    7    9 1     
   19    7   16 1     
   20    8    9 1     
   21    8   17 1     
   22    8   18 1     
   23    9   19 1     
   24    9   20 1     
@<TRIPOS>SUBSTRUCTURE
      1 ****           1
@<TRIPOS>SET
DONOR_HYDROGENS      STATIC     ATOMS    <user>   **** ""
3 21 22 23
ATOM$RED        STATIC     ATOMS    COLORGROUP SYSTEM
3 21 22 23
@<TRIPOS>COMMENT
> <Gold.Version>
2022.2.0

> <Gold.Id.Protein>
3pbl|protein|mol2

> <Gold.Protein.RotatedTorsions>
[ 1303 1298 1297 1294 ] final   58.14 input  179.99 | X-H torsion
[ 2461 2456 2455 2452 ] final  -38.46 input   30.03 | X-H torsion
[ 2515 2510 2509 2506 ] final   80.84 input  -89.99 | X-H torsion
[ 3721 3712 3711 3710 ] final  -88.95 input -179.91 | X-H torsion
[ 3841 3832 3831 3830 ] final -164.39 input -179.91 | X-H torsion
[ 3767 3762 3761 3758 ] final   -8.80 input  -89.99 | X-H torsion
[ 2472 2467 2466 2463 ] final   -0.24 input  -89.97 | X-H torsion

> <Gold.Protein.ActiveResidues>
 VAL82   VAL86   LEU89   PHE106  VAL107  ASP110  VAL111  MET112  CYS114  THR115 
 CYS181  SER182  ILE183  PHE188  VAL189  ILE190  SER192  SER193  SER196  TRP342 
 PHE345  PHE346  HIS349  VAL350  TYR365  THR369  GLY372  TYR373 

> <Gold.Protein.RotatedAtoms>
    3.9828  -10.2713    4.6167 H   0  0  0  0  0  0  0  0  0  0  0  0  # atno 1303 bound_to 1298
    0.5304   -8.3113    7.1752 H   0  0  0  0  0  0  0  0  0  0  0  0  # atno 2461 bound_to 2456
   -3.7956   -4.8769    8.0763 H   0  0  0  0  0  0  0  0  0  0  0  0  # atno 2472 bound_to 2467
    2.0659   -7.6295    5.7341 H   0  0  0  0  0  0  0  0  0  0  0  0  # atno 2515 bound_to 2510
   -3.0172  -16.9615   14.6912 H   0  0  0  0  0  0  0  0  0  0  0  0  # atno 3721 bound_to 3712
   -5.3948  -22.6078   10.2100 H   0  0  0  0  0  0  0  0  0  0  0  0  # atno 3767 bound_to 3762
    2.8020  -19.8823    8.3577 H   0  0  0  0  0  0  0  0  0  0  0  0  # atno 3841 bound_to 3832
    3.5150   -8.9504    3.7784 LP  0  0  0  0  0  0  0  0  0  0  0  0  # atno 4297 bound_to 1298
    4.8645   -8.8993    4.6964 LP  0  0  0  0  0  0  0  0  0  0  0  0  # atno 4298 bound_to 1298
    1.1090   -9.2861    8.3509 LP  0  0  0  0  0  0  0  0  0  0  0  0  # atno 4299 bound_to 2456
    2.0982   -8.2107    7.6219 LP  0  0  0  0  0  0  0  0  0  0  0  0  # atno 4300 bound_to 2456
    2.7619   -8.1655    4.3578 LP  0  0  0  0  0  0  0  0  0  0  0  0  # atno 4301 bound_to 2510
    2.4690   -9.2045    5.5831 LP  0  0  0  0  0  0  0  0  0  0  0  0  # atno 4302 bound_to 2510
   -3.4176  -16.9305   13.1367 LP  0  0  0  0  0  0  0  0  0  0  0  0  # atno 4306 bound_to 3712
   -2.6266  -18.2135   13.7651 LP  0  0  0  0  0  0  0  0  0  0  0  0  # atno 4307 bound_to 3712
    2.6010  -21.1571    9.3119 LP  0  0  0  0  0  0  0  0  0  0  0  0  # atno 4314 bound_to 3832
    1.3916  -20.0811    9.0973 LP  0  0  0  0  0  0  0  0  0  0  0  0  # atno 4315 bound_to 3832
   -4.7266  -22.0184   11.5785 LP  0  0  0  0  0  0  0  0  0  0  0  0  # atno 4318 bound_to 3762
   -4.0062  -23.2488   10.7824 LP  0  0  0  0  0  0  0  0  0  0  0  0  # atno 4319 bound_to 3762
   -4.5054   -5.4432    9.4335 LP  0  0  0  0  0  0  0  0  0  0  0  0  # atno 4320 bound_to 2467
   -5.4158   -5.0734    8.1293 LP  0  0  0  0  0  0  0  0  0  0  0  0  # atno 4321 bound_to 2467

> <Gold.Score>
     Score     S(PLP)   S(hbond)     S(cho)   S(metal)  DE(clash)   DE(tors)     intcor
     40.64     -40.40       0.12       0.00       0.00       0.00       0.64       1.17

> <Gold.PLP.Fitness>
40.6435

> <Gold.PLP.PLP>
-40.4023

> <Gold.PLP.part.hbond>
-2.0000

> <Gold.PLP.part.metal>
0.0000

> <Gold.PLP.part.buried>
-3.0880

> <Gold.PLP.part.nonpolar>
-35.7988

> <Gold.PLP.part.repulsive>
0.0252

> <Gold.PLP.ligand.clash>
0.0000

> <Gold.PLP.ligand.torsion>
0.6447

> <Gold.PLP.Chemscore.Hbond>
0.1198

> <Gold.PLP.Chemscore.CHOScore>
0.0000

> <Gold.PLP.Chemscore.Metal>
0.0000

> <Gold.Chemscore.Hbonds>
donor molecule, donor type, donor heavy atom, donor atom, acceptor molecule, acceptor atom, score
      L1  H     4    22       P1  2456  0.12

> <Gold.PLP.Chemscore.Internal.Correction>
1.1711

