#       Name:                EN300-1428682_i001
#       Creating user name   fsindt
#       Creation time:       Wed Mar  1 14:23:56 2023


#       File generated by GOLD software.
#

@<TRIPOS>MOLECULE
EN300-1428682_i001|amine_1|mol2|11013|dock15
    23    24     1
SMALL
USER_CHARGES


@<TRIPOS>ATOM
      1 O1           0.7493 -12.8316   6.6750 O.3            1 <1>                0.0000
      2 C2           1.0284 -13.7773   7.7092 C.3            1 <1>                0.0000
      3 C3           1.1081 -15.2071   7.1340 C.3            1 <1>                0.0000
      4 N4           0.4616 -16.1063   8.1073 N.4            1 <1>                1.0000
      5 C5           0.0100 -15.3025   9.2630 C.3            1 <1>                0.0000
      6 C6          -0.1577 -13.8671   8.7053 C.3            1 <1>                0.0000
      7 C7          -0.0185 -12.8267   9.8184 C.3            1 <1>                0.0000
      8 C8          -1.2294 -11.9384  10.1106 C.3            1 <1>                0.0000
      9 C9          -0.8358 -13.0428  11.0936 C.3            1 <1>                0.0000
     10 H10          1.9517 -13.5184   8.2275 H              1 <1>                0.0000
     11 H11          0.5821 -15.2531   6.1804 H              1 <1>                0.0000
     12 H12          2.1508 -15.4948   6.9989 H              1 <1>                0.0000
     13 H13         -0.9424 -15.6778   9.6374 H              1 <1>                0.0000
     14 H14          0.7615 -15.3174  10.0524 H              1 <1>                0.0000
     15 H15         -1.1109 -13.7582   8.1881 H              1 <1>                0.0000
     16 H16          0.9703 -12.3803   9.9236 H              1 <1>                0.0000
     17 H17         -1.0373 -10.9076  10.4085 H              1 <1>                0.0000
     18 H18         -2.1253 -12.0951   9.5098 H              1 <1>                0.0000
     19 H19         -1.4728 -13.9261  11.1395 H              1 <1>                0.0000
     20 H20         -0.3847 -12.7386  12.0381 H              1 <1>                0.0000
     21 H21          1.5174 -12.6013   6.1348 H              1 <1>                0.0000
     22 H22         -0.3314 -16.5583   7.6774 H              1 <1>                0.0000
     23 H23          1.1222 -16.8037   8.4162 H              1 <1>                0.0000
@<TRIPOS>BOND
    1    1    2 1     
    2    1   21 1     
    3    2    3 1     
    4    2    6 1     
    5    2   10 1     
    6    3    4 1     
    7    3   11 1     
    8    3   12 1     
    9    4    5 1     
   10    4   22 1     
   11    4   23 1     
   12    5    6 1     
   13    5   13 1     
   14    5   14 1     
   15    6    7 1     
   16    6   15 1     
   17    7    8 1     
   18    7    9 1     
   19    7   16 1     
   20    8    9 1     
   21    8   17 1     
   22    8   18 1     
   23    9   19 1     
   24    9   20 1     
@<TRIPOS>SUBSTRUCTURE
      1 ****           1
@<TRIPOS>SET
DONOR_HYDROGENS      STATIC     ATOMS    <user>   **** ""
3 21 22 23
ATOM$RED        STATIC     ATOMS    COLORGROUP SYSTEM
3 21 22 23
@<TRIPOS>COMMENT
> <Gold.Version>
2022.2.0

> <Gold.Id.Protein>
3pbl|protein|mol2

> <Gold.Protein.RotatedTorsions>
[ 1303 1298 1297 1294 ] final -171.92 input  179.99 | X-H torsion
[ 2461 2456 2455 2452 ] final  -92.47 input   30.03 | X-H torsion
[ 2515 2510 2509 2506 ] final  120.83 input  -89.99 | X-H torsion
[ 3721 3712 3711 3710 ] final   25.03 input -179.91 | X-H torsion
[ 3841 3832 3831 3830 ] final   92.77 input -179.91 | X-H torsion
[ 3767 3762 3761 3758 ] final  -15.09 input  -89.99 | X-H torsion
[ 2472 2467 2466 2463 ] final  -18.42 input  -89.97 | X-H torsion

> <Gold.Protein.ActiveResidues>
 VAL82   VAL86   LEU89   PHE106  VAL107  ASP110  VAL111  MET112  CYS114  THR115 
 CYS181  SER182  ILE183  PHE188  VAL189  ILE190  SER192  SER193  SER196  TRP342 
 PHE345  PHE346  HIS349  VAL350  TYR365  THR369  GLY372  TYR373 

> <Gold.Protein.RotatedAtoms>
    4.8063   -8.7748    4.6083 H   0  0  0  0  0  0  0  0  0  0  0  0  # atno 1303 bound_to 1298
    0.3633   -8.9340    7.7389 H   0  0  0  0  0  0  0  0  0  0  0  0  # atno 2461 bound_to 2456
   -3.6704   -4.9562    8.3347 H   0  0  0  0  0  0  0  0  0  0  0  0  # atno 2472 bound_to 2467
    2.0430   -8.1794    6.0695 H   0  0  0  0  0  0  0  0  0  0  0  0  # atno 2515 bound_to 2510
   -2.4751  -18.0342   13.8753 H   0  0  0  0  0  0  0  0  0  0  0  0  # atno 3721 bound_to 3712
   -5.4363  -22.5300   10.2643 H   0  0  0  0  0  0  0  0  0  0  0  0  # atno 3767 bound_to 3762
    2.8713  -20.9104    9.2353 H   0  0  0  0  0  0  0  0  0  0  0  0  # atno 3841 bound_to 3832
    4.1195  -10.2531    4.7040 LP  0  0  0  0  0  0  0  0  0  0  0  0  # atno 4297 bound_to 1298
    3.4361   -9.0936    3.7792 LP  0  0  0  0  0  0  0  0  0  0  0  0  # atno 4298 bound_to 1298
    1.8977   -8.9572    8.2977 LP  0  0  0  0  0  0  0  0  0  0  0  0  # atno 4299 bound_to 2456
    1.4765   -7.9170    7.1115 LP  0  0  0  0  0  0  0  0  0  0  0  0  # atno 4300 bound_to 2456
    2.5352   -7.6202    4.6166 LP  0  0  0  0  0  0  0  0  0  0  0  0  # atno 4301 bound_to 2510
    2.7188   -9.1996    4.9887 LP  0  0  0  0  0  0  0  0  0  0  0  0  # atno 4302 bound_to 2510
   -3.2715  -16.9373   14.7358 LP  0  0  0  0  0  0  0  0  0  0  0  0  # atno 4306 bound_to 3712
   -3.3986  -16.9682   13.1080 LP  0  0  0  0  0  0  0  0  0  0  0  0  # atno 4307 bound_to 3712
    1.4037  -20.2608    9.2507 LP  0  0  0  0  0  0  0  0  0  0  0  0  # atno 4314 bound_to 3832
    2.5089  -19.7899    8.1447 LP  0  0  0  0  0  0  0  0  0  0  0  0  # atno 4315 bound_to 3832
   -4.6385  -22.0626   11.6104 LP  0  0  0  0  0  0  0  0  0  0  0  0  # atno 4318 bound_to 3762
   -4.0528  -23.2824   10.6962 LP  0  0  0  0  0  0  0  0  0  0  0  0  # atno 4319 bound_to 3762
   -4.8005   -5.4632    9.3987 LP  0  0  0  0  0  0  0  0  0  0  0  0  # atno 4320 bound_to 2467
   -5.2458   -4.9741    7.9057 LP  0  0  0  0  0  0  0  0  0  0  0  0  # atno 4321 bound_to 2467

> <Gold.Score>
     Score     S(PLP)   S(hbond)     S(cho)   S(metal)  DE(clash)   DE(tors)     intcor
     32.91     -27.41       2.00       0.00       0.00       0.00       0.83       1.17

> <Gold.PLP.Fitness>
32.9115

> <Gold.PLP.PLP>
-27.4052

> <Gold.PLP.part.hbond>
-1.0000

> <Gold.PLP.part.metal>
0.0000

> <Gold.PLP.part.buried>
-3.4276

> <Gold.PLP.part.nonpolar>
-23.4537

> <Gold.PLP.part.repulsive>
0.0000

> <Gold.PLP.ligand.clash>
0.0000

> <Gold.PLP.ligand.torsion>
0.8324

> <Gold.PLP.Chemscore.Hbond>
2.0000

> <Gold.PLP.Chemscore.CHOScore>
0.0000

> <Gold.PLP.Chemscore.Metal>
0.0000

> <Gold.Chemscore.Hbonds>
donor molecule, donor type, donor heavy atom, donor atom, acceptor molecule, acceptor atom, score
      L1  H     4    23       P1  1227  2.00

> <Gold.PLP.Chemscore.Internal.Correction>
1.1711

