#       Name:                EN300-1428682_i001
#       Creating user name   fsindt
#       Creation time:       Wed Mar  1 14:23:53 2023


#       File generated by GOLD software.
#

@<TRIPOS>MOLECULE
EN300-1428682_i001|amine_1|mol2|11013|dock6
    23    24     1
SMALL
USER_CHARGES


@<TRIPOS>ATOM
      1 O1          -1.7978  -8.7847   9.6024 O.3            1 <1>                0.0000
      2 C2          -1.7033  -9.7832  10.6202 C.3            1 <1>                0.0000
      3 C3          -0.2345 -10.2043  10.8367 C.3            1 <1>                0.0000
      4 N4          -0.2254 -11.6628  11.0523 N.4            1 <1>                1.0000
      5 C5          -1.6187 -12.1547  11.0027 C.3            1 <1>                0.0000
      6 C6          -2.3805 -11.1011  10.1605 C.3            1 <1>                0.0000
      7 C7          -3.8716 -11.0995  10.5031 C.3            1 <1>                0.0000
      8 C8          -4.7302  -9.9775   9.9159 C.3            1 <1>                0.0000
      9 C9          -4.8566 -11.4020   9.3721 C.3            1 <1>                0.0000
     10 H10         -2.1427  -9.4253  11.5513 H              1 <1>                0.0000
     11 H11          0.3562  -9.9561   9.9548 H              1 <1>                0.0000
     12 H12          0.1714  -9.6974  11.7122 H              1 <1>                0.0000
     13 H13         -1.6598 -13.1300  10.5178 H              1 <1>                0.0000
     14 H14         -2.0369 -12.2116  12.0076 H              1 <1>                0.0000
     15 H15         -2.2265 -11.2680   9.0945 H              1 <1>                0.0000
     16 H16         -4.1252 -11.4576  11.5009 H              1 <1>                0.0000
     17 H17         -5.5488  -9.5976  10.5272 H              1 <1>                0.0000
     18 H18         -4.2327  -9.2404   9.2855 H              1 <1>                0.0000
     19 H19         -4.4423 -11.6021   8.3840 H              1 <1>                0.0000
     20 H20         -5.7584 -11.9593   9.6257 H              1 <1>                0.0000
     21 H21         -1.8899  -7.8841   9.9422 H              1 <1>                0.0000
     22 H22          0.3184 -12.1096  10.3292 H              1 <1>                0.0000
     23 H23          0.1760 -11.8702  11.9545 H              1 <1>                0.0000
@<TRIPOS>BOND
    1    1    2 1     
    2    1   21 1     
    3    2    3 1     
    4    2    6 1     
    5    2   10 1     
    6    3    4 1     
    7    3   11 1     
    8    3   12 1     
    9    4    5 1     
   10    4   22 1     
   11    4   23 1     
   12    5    6 1     
   13    5   13 1     
   14    5   14 1     
   15    6    7 1     
   16    6   15 1     
   17    7    8 1     
   18    7    9 1     
   19    7   16 1     
   20    8    9 1     
   21    8   17 1     
   22    8   18 1     
   23    9   19 1     
   24    9   20 1     
@<TRIPOS>SUBSTRUCTURE
      1 ****           1
@<TRIPOS>SET
DONOR_HYDROGENS      STATIC     ATOMS    <user>   **** ""
3 21 22 23
ATOM$RED        STATIC     ATOMS    COLORGROUP SYSTEM
3 21 22 23
@<TRIPOS>COMMENT
> <Gold.Version>
2022.2.0

> <Gold.Id.Protein>
3pbl|protein|mol2

> <Gold.Protein.RotatedTorsions>
[ 1303 1298 1297 1294 ] final -129.31 input  179.99 | X-H torsion
[ 2461 2456 2455 2452 ] final  -96.67 input   30.03 | X-H torsion
[ 2515 2510 2509 2506 ] final  153.06 input  -89.99 | X-H torsion
[ 3721 3712 3711 3710 ] final -130.80 input -179.91 | X-H torsion
[ 3841 3832 3831 3830 ] final  -73.36 input -179.91 | X-H torsion
[ 3767 3762 3761 3758 ] final  -82.25 input  -89.99 | X-H torsion
[ 2472 2467 2466 2463 ] final -103.35 input  -89.97 | X-H torsion

> <Gold.Protein.ActiveResidues>
 VAL82   VAL86   LEU89   PHE106  VAL107  ASP110  VAL111  MET112  CYS114  THR115 
 CYS181  SER182  ILE183  PHE188  VAL189  ILE190  SER192  SER193  SER196  TRP342 
 PHE345  PHE346  HIS349  VAL350  TYR365  THR369  GLY372  TYR373 

> <Gold.Protein.RotatedAtoms>
    4.3582   -8.4798    4.1824 H   0  0  0  0  0  0  0  0  0  0  0  0  # atno 1303 bound_to 1298
    0.3834   -8.9771    7.7891 H   0  0  0  0  0  0  0  0  0  0  0  0  # atno 2461 bound_to 2456
   -4.2364   -5.3974    9.3861 H   0  0  0  0  0  0  0  0  0  0  0  0  # atno 2472 bound_to 2467
    2.1595   -8.6891    6.0540 H   0  0  0  0  0  0  0  0  0  0  0  0  # atno 2515 bound_to 2510
   -3.2683  -16.5893   14.2657 H   0  0  0  0  0  0  0  0  0  0  0  0  # atno 3721 bound_to 3712
   -5.3030  -21.9388   11.1132 H   0  0  0  0  0  0  0  0  0  0  0  0  # atno 3767 bound_to 3762
    1.6981  -19.7050    8.8825 H   0  0  0  0  0  0  0  0  0  0  0  0  # atno 3841 bound_to 3832
    4.6555   -9.8965    4.9381 LP  0  0  0  0  0  0  0  0  0  0  0  0  # atno 4297 bound_to 1298
    3.3483   -9.7454    3.9711 LP  0  0  0  0  0  0  0  0  0  0  0  0  # atno 4298 bound_to 1298
    1.9430   -8.9133    8.2696 LP  0  0  0  0  0  0  0  0  0  0  0  0  # atno 4299 bound_to 2456
    1.4110   -7.9179    7.0895 LP  0  0  0  0  0  0  0  0  0  0  0  0  # atno 4300 bound_to 2456
    2.3112   -7.4159    5.0432 LP  0  0  0  0  0  0  0  0  0  0  0  0  # atno 4301 bound_to 2510
    2.8262   -8.8940    4.5777 LP  0  0  0  0  0  0  0  0  0  0  0  0  # atno 4302 bound_to 2510
   -3.1008  -17.5106   12.9615 LP  0  0  0  0  0  0  0  0  0  0  0  0  # atno 4306 bound_to 3712
   -2.6535  -18.0631   14.4316 LP  0  0  0  0  0  0  0  0  0  0  0  0  # atno 4307 bound_to 3712
    3.0519  -20.3478    8.3080 LP  0  0  0  0  0  0  0  0  0  0  0  0  # atno 4314 bound_to 3832
    2.2158  -21.0953    9.4950 LP  0  0  0  0  0  0  0  0  0  0  0  0  # atno 4315 bound_to 3832
   -3.9455  -22.8067   11.3792 LP  0  0  0  0  0  0  0  0  0  0  0  0  # atno 4318 bound_to 3762
   -4.8790  -23.1293   10.0788 LP  0  0  0  0  0  0  0  0  0  0  0  0  # atno 4319 bound_to 3762
   -5.4985   -5.1711    8.3750 LP  0  0  0  0  0  0  0  0  0  0  0  0  # atno 4320 bound_to 2467
   -3.9819   -4.8251    7.8781 LP  0  0  0  0  0  0  0  0  0  0  0  0  # atno 4321 bound_to 2467

> <Gold.Score>
     Score     S(PLP)   S(hbond)     S(cho)   S(metal)  DE(clash)   DE(tors)     intcor
     40.25     -37.60       1.00       0.00       0.00       0.00       0.76       1.17

> <Gold.PLP.Fitness>
40.2538

> <Gold.PLP.PLP>
-37.5978

> <Gold.PLP.part.hbond>
-2.0000

> <Gold.PLP.part.metal>
0.0000

> <Gold.PLP.part.buried>
-0.6306

> <Gold.PLP.part.nonpolar>
-35.9288

> <Gold.PLP.part.repulsive>
0.0225

> <Gold.PLP.ligand.clash>
0.0000

> <Gold.PLP.ligand.torsion>
0.7575

> <Gold.PLP.Chemscore.Hbond>
1.0000

> <Gold.PLP.Chemscore.CHOScore>
0.0000

> <Gold.PLP.Chemscore.Metal>
0.0000

> <Gold.Chemscore.Hbonds>
donor molecule, donor type, donor heavy atom, donor atom, acceptor molecule, acceptor atom, score
      L1  H     1    21       P1  2398  1.00

> <Gold.PLP.Chemscore.Internal.Correction>
1.1711

