#       Name:                EN300-1428682_i001
#       Creating user name   fsindt
#       Creation time:       Wed Mar  1 14:23:54 2023


#       File generated by GOLD software.
#

@<TRIPOS>MOLECULE
EN300-1428682_i001|amine_1|mol2|11013|dock9
    23    24     1
SMALL
USER_CHARGES


@<TRIPOS>ATOM
      1 O1          -0.9778 -12.7746  10.9584 O.3            1 <1>                0.0000
      2 C2          -0.3335 -13.8016  10.2020 C.3            1 <1>                0.0000
      3 C3           0.4887 -14.7250  11.1255 C.3            1 <1>                0.0000
      4 N4           1.7398 -15.0504  10.4164 N.4            1 <1>                1.0000
      5 C5           1.7158 -14.3916   9.0930 C.3            1 <1>                0.0000
      6 C6           0.7438 -13.1975   9.2631 C.3            1 <1>                0.0000
      7 C7           0.1345 -12.7911   7.9199 C.3            1 <1>                0.0000
      8 C8           1.0648 -12.7489   6.7059 C.3            1 <1>                0.0000
      9 C9           0.0290 -13.8674   6.8374 C.3            1 <1>                0.0000
     10 H10         -1.0649 -14.3766   9.6341 H              1 <1>                0.0000
     11 H11          0.7148 -14.2098  12.0591 H              1 <1>                0.0000
     12 H12         -0.0703 -15.6384  11.3294 H              1 <1>                0.0000
     13 H13          2.7115 -14.0357   8.8283 H              1 <1>                0.0000
     14 H14          1.3432 -15.0790   8.3337 H              1 <1>                0.0000
     15 H15          1.2434 -12.3516   9.7354 H              1 <1>                0.0000
     16 H16         -0.6612 -12.0479   7.9701 H              1 <1>                0.0000
     17 H17          0.8808 -11.9781   5.9574 H              1 <1>                0.0000
     18 H18          2.1110 -13.0106   6.8642 H              1 <1>                0.0000
     19 H19          0.3939 -14.8648   7.0823 H              1 <1>                0.0000
     20 H20         -0.8362 -13.8324   6.1755 H              1 <1>                0.0000
     21 H21         -0.4179 -12.3775  11.6393 H              1 <1>                0.0000
     22 H22          2.5288 -14.7150  10.9484 H              1 <1>                0.0000
     23 H23          1.8123 -16.0496  10.2969 H              1 <1>                0.0000
@<TRIPOS>BOND
    1    1    2 1     
    2    1   21 1     
    3    2    3 1     
    4    2    6 1     
    5    2   10 1     
    6    3    4 1     
    7    3   11 1     
    8    3   12 1     
    9    4    5 1     
   10    4   22 1     
   11    4   23 1     
   12    5    6 1     
   13    5   13 1     
   14    5   14 1     
   15    6    7 1     
   16    6   15 1     
   17    7    8 1     
   18    7    9 1     
   19    7   16 1     
   20    8    9 1     
   21    8   17 1     
   22    8   18 1     
   23    9   19 1     
   24    9   20 1     
@<TRIPOS>SUBSTRUCTURE
      1 ****           1
@<TRIPOS>SET
DONOR_HYDROGENS      STATIC     ATOMS    <user>   **** ""
3 21 22 23
ATOM$RED        STATIC     ATOMS    COLORGROUP SYSTEM
3 21 22 23
@<TRIPOS>COMMENT
> <Gold.Version>
2022.2.0

> <Gold.Id.Protein>
3pbl|protein|mol2

> <Gold.Protein.RotatedTorsions>
[ 1303 1298 1297 1294 ] final   -5.09 input  179.99 | X-H torsion
[ 2461 2456 2455 2452 ] final  149.35 input   30.03 | X-H torsion
[ 2515 2510 2509 2506 ] final  178.41 input  -89.99 | X-H torsion
[ 3721 3712 3711 3710 ] final  149.18 input -179.91 | X-H torsion
[ 3841 3832 3831 3830 ] final   56.06 input -179.91 | X-H torsion
[ 3767 3762 3761 3758 ] final   59.35 input  -89.99 | X-H torsion
[ 2472 2467 2466 2463 ] final  145.48 input  -89.97 | X-H torsion

> <Gold.Protein.ActiveResidues>
 VAL82   VAL86   LEU89   PHE106  VAL107  ASP110  VAL111  MET112  CYS114  THR115 
 CYS181  SER182  ILE183  PHE188  VAL189  ILE190  SER192  SER193  SER196  TRP342 
 PHE345  PHE346  HIS349  VAL350  TYR365  THR369  GLY372  TYR373 

> <Gold.Protein.RotatedAtoms>
    3.3629   -9.8043    4.0048 H   0  0  0  0  0  0  0  0  0  0  0  0  # atno 1303 bound_to 1298
    1.8772   -8.9758    8.3091 H   0  0  0  0  0  0  0  0  0  0  0  0  # atno 2461 bound_to 2456
   -5.5100   -5.2219    8.5103 H   0  0  0  0  0  0  0  0  0  0  0  0  # atno 2472 bound_to 2467
    2.3130   -9.0201    5.8591 H   0  0  0  0  0  0  0  0  0  0  0  0  # atno 2515 bound_to 2510
   -3.2011  -16.8735   13.1908 H   0  0  0  0  0  0  0  0  0  0  0  0  # atno 3721 bound_to 3712
   -4.5781  -23.2778   10.1893 H   0  0  0  0  0  0  0  0  0  0  0  0  # atno 3767 bound_to 3762
    2.4171  -20.9322    9.5361 H   0  0  0  0  0  0  0  0  0  0  0  0  # atno 3841 bound_to 3832
    4.3024   -8.4757    4.1414 LP  0  0  0  0  0  0  0  0  0  0  0  0  # atno 4297 bound_to 1298
    4.6971   -9.8411    4.9455 LP  0  0  0  0  0  0  0  0  0  0  0  0  # atno 4298 bound_to 1298
    1.5046   -7.9178    7.1221 LP  0  0  0  0  0  0  0  0  0  0  0  0  # atno 4299 bound_to 2456
    0.3562   -8.9147    7.7171 LP  0  0  0  0  0  0  0  0  0  0  0  0  # atno 4300 bound_to 2456
    2.1579   -7.4536    5.4257 LP  0  0  0  0  0  0  0  0  0  0  0  0  # atno 4301 bound_to 2510
    2.8258   -8.5251    4.3902 LP  0  0  0  0  0  0  0  0  0  0  0  0  # atno 4302 bound_to 2510
   -2.6168  -18.2182   13.8451 LP  0  0  0  0  0  0  0  0  0  0  0  0  # atno 4306 bound_to 3712
   -3.2152  -17.0274   14.7889 LP  0  0  0  0  0  0  0  0  0  0  0  0  # atno 4307 bound_to 3712
    1.4801  -19.8395    8.8262 LP  0  0  0  0  0  0  0  0  0  0  0  0  # atno 4314 bound_to 3832
    2.9571  -20.1859    8.2218 LP  0  0  0  0  0  0  0  0  0  0  0  0  # atno 4315 bound_to 3832
   -5.4600  -22.0562   10.8192 LP  0  0  0  0  0  0  0  0  0  0  0  0  # atno 4318 bound_to 3762
   -4.0892  -22.5413   11.5624 LP  0  0  0  0  0  0  0  0  0  0  0  0  # atno 4319 bound_to 3762
   -4.1008   -4.8087    7.7964 LP  0  0  0  0  0  0  0  0  0  0  0  0  # atno 4320 bound_to 2467
   -4.1063   -5.3629    9.3324 LP  0  0  0  0  0  0  0  0  0  0  0  0  # atno 4321 bound_to 2467

> <Gold.Score>
     Score     S(PLP)   S(hbond)     S(cho)   S(metal)  DE(clash)   DE(tors)     intcor
     34.31     -28.32       2.00       0.00       0.00       0.00       0.59       1.17

> <Gold.PLP.Fitness>
34.3130

> <Gold.PLP.PLP>
-28.3208

> <Gold.PLP.part.hbond>
-1.0000

> <Gold.PLP.part.metal>
0.0000

> <Gold.PLP.part.buried>
-3.2222

> <Gold.PLP.part.nonpolar>
-24.2698

> <Gold.PLP.part.repulsive>
0.0327

> <Gold.PLP.ligand.clash>
0.0000

> <Gold.PLP.ligand.torsion>
0.5895

> <Gold.PLP.Chemscore.Hbond>
2.0000

> <Gold.PLP.Chemscore.CHOScore>
0.0000

> <Gold.PLP.Chemscore.Metal>
0.0000

> <Gold.Chemscore.Hbonds>
donor molecule, donor type, donor heavy atom, donor atom, acceptor molecule, acceptor atom, score
      L1  H     4    23       P1  1227  2.00

> <Gold.PLP.Chemscore.Internal.Correction>
1.1711

