#       Name:                EN300-1428682_i001
#       Creating user name   fsindt
#       Creation time:       Wed Mar  1 14:23:56 2023


#       File generated by GOLD software.
#

@<TRIPOS>MOLECULE
EN300-1428682_i001|amine_1|mol2|11013|dock17
    23    24     1
SMALL
USER_CHARGES


@<TRIPOS>ATOM
      1 O1          -0.3867  -9.5949  11.4030 O.3            1 <1>                0.0000
      2 C2          -0.7136 -10.8636  10.8325 C.3            1 <1>                0.0000
      3 C3           0.4517 -11.3899   9.9686 C.3            1 <1>                0.0000
      4 N4          -0.1399 -12.0225   8.7754 N.4            1 <1>                1.0000
      5 C5          -1.6122 -11.9316   8.8756 C.3            1 <1>                0.0000
      6 C6          -1.8713 -10.7230   9.8093 C.3            1 <1>                0.0000
      7 C7          -3.2310 -10.8456  10.4999 C.3            1 <1>                0.0000
      8 C8          -4.3443  -9.9019  10.0407 C.3            1 <1>                0.0000
      9 C9          -4.3983 -11.3856   9.6711 C.3            1 <1>                0.0000
     10 H10         -0.9698 -11.5808  11.6123 H              1 <1>                0.0000
     11 H11          1.0948 -10.5623   9.6692 H              1 <1>                0.0000
     12 H12          1.0276 -12.1251  10.5310 H              1 <1>                0.0000
     13 H13         -2.0491 -11.7527   7.8932 H              1 <1>                0.0000
     14 H14         -2.0197 -12.8431   9.3128 H              1 <1>                0.0000
     15 H15         -1.7965  -9.7836   9.2617 H              1 <1>                0.0000
     16 H16         -3.1993 -11.1097  11.5569 H              1 <1>                0.0000
     17 H17         -5.0453  -9.5454  10.7955 H              1 <1>                0.0000
     18 H18         -4.1080  -9.1937   9.2465 H              1 <1>                0.0000
     19 H19         -4.1975 -11.6535   8.6338 H              1 <1>                0.0000
     20 H20         -5.1346 -12.0052  10.1829 H              1 <1>                0.0000
     21 H21         -0.3414  -8.8743  10.7598 H              1 <1>                0.0000
     22 H22          0.1742 -11.5423   7.9454 H              1 <1>                0.0000
     23 H23          0.1382 -12.9914   8.7315 H              1 <1>                0.0000
@<TRIPOS>BOND
    1    1    2 1     
    2    1   21 1     
    3    2    3 1     
    4    2    6 1     
    5    2   10 1     
    6    3    4 1     
    7    3   11 1     
    8    3   12 1     
    9    4    5 1     
   10    4   22 1     
   11    4   23 1     
   12    5    6 1     
   13    5   13 1     
   14    5   14 1     
   15    6    7 1     
   16    6   15 1     
   17    7    8 1     
   18    7    9 1     
   19    7   16 1     
   20    8    9 1     
   21    8   17 1     
   22    8   18 1     
   23    9   19 1     
   24    9   20 1     
@<TRIPOS>SUBSTRUCTURE
      1 ****           1
@<TRIPOS>SET
DONOR_HYDROGENS      STATIC     ATOMS    <user>   **** ""
3 21 22 23
ATOM$RED        STATIC     ATOMS    COLORGROUP SYSTEM
3 21 22 23
@<TRIPOS>COMMENT
> <Gold.Version>
2022.2.0

> <Gold.Id.Protein>
3pbl|protein|mol2

> <Gold.Protein.RotatedTorsions>
[ 1303 1298 1297 1294 ] final  -88.06 input  179.99 | X-H torsion
[ 2461 2456 2455 2452 ] final   47.96 input   30.03 | X-H torsion
[ 2515 2510 2509 2506 ] final -119.37 input  -89.99 | X-H torsion
[ 3721 3712 3711 3710 ] final   29.16 input -179.91 | X-H torsion
[ 3841 3832 3831 3830 ] final   26.73 input -179.91 | X-H torsion
[ 3767 3762 3761 3758 ] final   91.74 input  -89.99 | X-H torsion
[ 2472 2467 2466 2463 ] final   -4.92 input  -89.97 | X-H torsion

> <Gold.Protein.ActiveResidues>
 VAL82   VAL86   LEU89   PHE106  VAL107  ASP110  VAL111  MET112  CYS114  THR115 
 CYS181  SER182  ILE183  PHE188  VAL189  ILE190  SER192  SER193  SER196  TRP342 
 PHE345  PHE346  HIS349  VAL350  TYR365  THR369  GLY372  TYR373 

> <Gold.Protein.RotatedAtoms>
    3.8017   -8.6442    3.8595 H   0  0  0  0  0  0  0  0  0  0  0  0  # atno 1303 bound_to 1298
    1.7714   -7.9646    7.2620 H   0  0  0  0  0  0  0  0  0  0  0  0  # atno 2461 bound_to 2456
   -3.7553   -4.8951    8.1393 H   0  0  0  0  0  0  0  0  0  0  0  0  # atno 2472 bound_to 2467
    2.7178   -9.2004    4.9918 H   0  0  0  0  0  0  0  0  0  0  0  0  # atno 2515 bound_to 2510
   -2.4811  -18.0334   13.8131 H   0  0  0  0  0  0  0  0  0  0  0  0  # atno 3721 bound_to 3712
   -4.1744  -23.3263   10.5231 H   0  0  0  0  0  0  0  0  0  0  0  0  # atno 3767 bound_to 3762
    2.0247  -20.7572    9.6224 H   0  0  0  0  0  0  0  0  0  0  0  0  # atno 3841 bound_to 3832
    4.9074   -9.2849    4.8759 LP  0  0  0  0  0  0  0  0  0  0  0  0  # atno 4297 bound_to 1298
    3.6532  -10.1925    4.3564 LP  0  0  0  0  0  0  0  0  0  0  0  0  # atno 4298 bound_to 1298
    0.3341   -8.7035    7.4984 LP  0  0  0  0  0  0  0  0  0  0  0  0  # atno 4299 bound_to 2456
    1.6324   -9.1399    8.3876 LP  0  0  0  0  0  0  0  0  0  0  0  0  # atno 4300 bound_to 2456
    2.0423   -8.1761    6.0690 LP  0  0  0  0  0  0  0  0  0  0  0  0  # atno 4301 bound_to 2510
    2.5365   -7.6222    4.6145 LP  0  0  0  0  0  0  0  0  0  0  0  0  # atno 4302 bound_to 2510
   -3.2391  -16.9889   14.7683 LP  0  0  0  0  0  0  0  0  0  0  0  0  # atno 4306 bound_to 3712
   -3.4241  -16.9175   13.1474 LP  0  0  0  0  0  0  0  0  0  0  0  0  # atno 4307 bound_to 3712
    1.7691  -19.6561    8.4830 LP  0  0  0  0  0  0  0  0  0  0  0  0  # atno 4314 bound_to 3832
    3.1214  -20.5714    8.4653 LP  0  0  0  0  0  0  0  0  0  0  0  0  # atno 4315 bound_to 3832
   -5.4944  -22.3727   10.4005 LP  0  0  0  0  0  0  0  0  0  0  0  0  # atno 4318 bound_to 3762
   -4.4583  -22.1763   11.6473 LP  0  0  0  0  0  0  0  0  0  0  0  0  # atno 4319 bound_to 3762
   -4.5819   -5.4515    9.4330 LP  0  0  0  0  0  0  0  0  0  0  0  0  # atno 4320 bound_to 2467
   -5.3796   -5.0469    8.0668 LP  0  0  0  0  0  0  0  0  0  0  0  0  # atno 4321 bound_to 2467

> <Gold.Score>
     Score     S(PLP)   S(hbond)     S(cho)   S(metal)  DE(clash)   DE(tors)     intcor
     37.10     -37.72       0.00       0.00       0.00       0.00       0.89       1.17

> <Gold.PLP.Fitness>
37.1050

> <Gold.PLP.PLP>
-37.7198

> <Gold.PLP.part.hbond>
0.0000

> <Gold.PLP.part.metal>
0.0000

> <Gold.PLP.part.buried>
-4.1494

> <Gold.PLP.part.nonpolar>
-34.2969

> <Gold.PLP.part.repulsive>
0.0000

> <Gold.PLP.ligand.clash>
0.0000

> <Gold.PLP.ligand.torsion>
0.8930

> <Gold.PLP.Chemscore.Hbond>
0.0000

> <Gold.PLP.Chemscore.CHOScore>
0.0000

> <Gold.PLP.Chemscore.Metal>
0.0000

> <Gold.PLP.Chemscore.Internal.Correction>
1.1711

