#       Name:                EN300-1428682_i001
#       Creating user name   fsindt
#       Creation time:       Wed Mar  1 14:23:53 2023


#       File generated by GOLD software.
#

@<TRIPOS>MOLECULE
EN300-1428682_i001|amine_1|mol2|11013|dock7
    23    24     1
SMALL
USER_CHARGES


@<TRIPOS>ATOM
      1 O1          -1.1052 -10.1991   8.7913 O.3            1 <1>                0.0000
      2 C2          -1.4682 -11.4566   9.3647 C.3            1 <1>                0.0000
      3 C3          -1.8469 -11.2894  10.8513 C.3            1 <1>                0.0000
      4 N4          -1.2985 -12.4509  11.5752 N.4            1 <1>                1.0000
      5 C5          -0.6222 -13.3354  10.6025 C.3            1 <1>                0.0000
      6 C6          -0.2439 -12.4079   9.4209 C.3            1 <1>                0.0000
      7 C7          -0.1081 -13.2036   8.1212 C.3            1 <1>                0.0000
      8 C8           0.9219 -12.7175   7.0996 C.3            1 <1>                0.0000
      9 C9           1.1865 -13.9903   7.9065 C.3            1 <1>                0.0000
     10 H10         -2.2873 -11.9108   8.8071 H              1 <1>                0.0000
     11 H11         -1.4130 -10.3695  11.2433 H              1 <1>                0.0000
     12 H12         -2.9315 -11.2648  10.9572 H              1 <1>                0.0000
     13 H13          0.2736 -13.7711  11.0448 H              1 <1>                0.0000
     14 H14         -1.3009 -14.1196  10.2670 H              1 <1>                0.0000
     15 H15          0.6705 -11.8550   9.6358 H              1 <1>                0.0000
     16 H16         -1.0310 -13.6384   7.7375 H              1 <1>                0.0000
     17 H17          0.6768 -12.8329   6.0437 H              1 <1>                0.0000
     18 H18          1.5028 -11.8308   7.3534 H              1 <1>                0.0000
     19 H19          1.9415 -13.9409   8.6911 H              1 <1>                0.0000
     20 H20          1.1154 -14.9429   7.3815 H              1 <1>                0.0000
     21 H21         -1.8017  -9.5300   8.8374 H              1 <1>                0.0000
     22 H22         -0.6348 -12.1372  12.2675 H              1 <1>                0.0000
     23 H23         -2.0473 -12.9535  12.0276 H              1 <1>                0.0000
@<TRIPOS>BOND
    1    1    2 1     
    2    1   21 1     
    3    2    3 1     
    4    2    6 1     
    5    2   10 1     
    6    3    4 1     
    7    3   11 1     
    8    3   12 1     
    9    4    5 1     
   10    4   22 1     
   11    4   23 1     
   12    5    6 1     
   13    5   13 1     
   14    5   14 1     
   15    6    7 1     
   16    6   15 1     
   17    7    8 1     
   18    7    9 1     
   19    7   16 1     
   20    8    9 1     
   21    8   17 1     
   22    8   18 1     
   23    9   19 1     
   24    9   20 1     
@<TRIPOS>SUBSTRUCTURE
      1 ****           1
@<TRIPOS>SET
DONOR_HYDROGENS      STATIC     ATOMS    <user>   **** ""
3 21 22 23
ATOM$RED        STATIC     ATOMS    COLORGROUP SYSTEM
3 21 22 23
@<TRIPOS>COMMENT
> <Gold.Version>
2022.2.0

> <Gold.Id.Protein>
3pbl|protein|mol2

> <Gold.Protein.RotatedTorsions>
[ 1303 1298 1297 1294 ] final  -50.51 input  179.99 | X-H torsion
[ 2461 2456 2455 2452 ] final -114.98 input   30.03 | X-H torsion
[ 2515 2510 2509 2506 ] final  -64.86 input  -89.99 | X-H torsion
[ 3721 3712 3711 3710 ] final  174.29 input -179.91 | X-H torsion
[ 3841 3832 3831 3830 ] final -112.59 input -179.91 | X-H torsion
[ 3767 3762 3761 3758 ] final  -71.89 input  -89.99 | X-H torsion
[ 2472 2467 2466 2463 ] final  -39.53 input  -89.97 | X-H torsion

> <Gold.Protein.ActiveResidues>
 VAL82   VAL86   LEU89   PHE106  VAL107  ASP110  VAL111  MET112  CYS114  THR115 
 CYS181  SER182  ILE183  PHE188  VAL189  ILE190  SER192  SER193  SER196  TRP342 
 PHE345  PHE346  HIS349  VAL350  TYR365  THR369  GLY372  TYR373 

> <Gold.Protein.RotatedAtoms>
    3.4265   -9.1145    3.7813 H   0  0  0  0  0  0  0  0  0  0  0  0  # atno 1303 bound_to 1298
    0.5236   -9.1387    7.9994 H   0  0  0  0  0  0  0  0  0  0  0  0  # atno 2461 bound_to 2456
   -3.6383   -5.0697    8.6593 H   0  0  0  0  0  0  0  0  0  0  0  0  # atno 2472 bound_to 2467
    2.8303   -8.5763    4.4062 H   0  0  0  0  0  0  0  0  0  0  0  0  # atno 2515 bound_to 2510
   -3.3077  -16.6440   13.4698 H   0  0  0  0  0  0  0  0  0  0  0  0  # atno 3721 bound_to 3712
   -5.3903  -21.9835   10.9740 H   0  0  0  0  0  0  0  0  0  0  0  0  # atno 3767 bound_to 3762
    2.1247  -19.5814    8.5077 H   0  0  0  0  0  0  0  0  0  0  0  0  # atno 3841 bound_to 3832
    4.7969   -8.7586    4.5948 LP  0  0  0  0  0  0  0  0  0  0  0  0  # atno 4297 bound_to 1298
    4.1390  -10.2483    4.7157 LP  0  0  0  0  0  0  0  0  0  0  0  0  # atno 4298 bound_to 1298
    2.0940   -8.7055    8.1148 LP  0  0  0  0  0  0  0  0  0  0  0  0  # atno 4299 bound_to 2456
    1.1199   -7.9641    7.0340 LP  0  0  0  0  0  0  0  0  0  0  0  0  # atno 4300 bound_to 2456
    2.2910   -8.9840    5.8924 LP  0  0  0  0  0  0  0  0  0  0  0  0  # atno 4301 bound_to 2510
    2.1752   -7.4388    5.3771 LP  0  0  0  0  0  0  0  0  0  0  0  0  # atno 4302 bound_to 2510
   -2.7022  -18.1309   13.4472 LP  0  0  0  0  0  0  0  0  0  0  0  0  # atno 4306 bound_to 3712
   -3.0066  -17.3796   14.8648 LP  0  0  0  0  0  0  0  0  0  0  0  0  # atno 4307 bound_to 3712
    3.0986  -20.8395    8.7194 LP  0  0  0  0  0  0  0  0  0  0  0  0  # atno 4314 bound_to 3832
    1.6765  -20.7464    9.5166 LP  0  0  0  0  0  0  0  0  0  0  0  0  # atno 4315 bound_to 3832
   -4.0020  -22.6802   11.4781 LP  0  0  0  0  0  0  0  0  0  0  0  0  # atno 4318 bound_to 3762
   -4.7353  -23.2111   10.1190 LP  0  0  0  0  0  0  0  0  0  0  0  0  # atno 4319 bound_to 3762
   -5.1128   -5.4448    9.2523 LP  0  0  0  0  0  0  0  0  0  0  0  0  # atno 4320 bound_to 2467
   -4.9656   -4.8791    7.7275 LP  0  0  0  0  0  0  0  0  0  0  0  0  # atno 4321 bound_to 2467

> <Gold.Score>
     Score     S(PLP)   S(hbond)     S(cho)   S(metal)  DE(clash)   DE(tors)     intcor
     33.27     -30.32       1.00       0.00       0.00       0.00       0.61       1.17

> <Gold.PLP.Fitness>
33.2684

> <Gold.PLP.PLP>
-30.3180

> <Gold.PLP.part.hbond>
-1.0000

> <Gold.PLP.part.metal>
0.0000

> <Gold.PLP.part.buried>
-2.6210

> <Gold.PLP.part.nonpolar>
-27.2810

> <Gold.PLP.part.repulsive>
0.0902

> <Gold.PLP.ligand.clash>
0.0000

> <Gold.PLP.ligand.torsion>
0.6103

> <Gold.PLP.Chemscore.Hbond>
1.0000

> <Gold.PLP.Chemscore.CHOScore>
0.0000

> <Gold.PLP.Chemscore.Metal>
0.0000

> <Gold.Chemscore.Hbonds>
donor molecule, donor type, donor heavy atom, donor atom, acceptor molecule, acceptor atom, score
      P1  H  2456  2461       L1     1  1.00

> <Gold.PLP.Chemscore.Internal.Correction>
1.1711

