#       Name:                EN300-1428682_i001
#       Creating user name   fsindt
#       Creation time:       Wed Mar  1 14:23:53 2023


#       File generated by GOLD software.
#

@<TRIPOS>MOLECULE
EN300-1428682_i001|amine_1|mol2|11013|dock5
    23    24     1
SMALL
USER_CHARGES


@<TRIPOS>ATOM
      1 O1           0.2175 -10.7987   7.4792 O.3            1 <1>                0.0000
      2 C2           0.6336 -11.7428   8.4678 C.3            1 <1>                0.0000
      3 C3           1.0815 -13.0634   7.8068 C.3            1 <1>                0.0000
      4 N4           0.5930 -14.1649   8.6564 N.4            1 <1>                1.0000
      5 C5          -0.1123 -13.5852   9.8193 C.3            1 <1>                0.0000
      6 C6          -0.5670 -12.1818   9.3469 C.3            1 <1>                0.0000
      7 C7          -0.7506 -11.2362  10.5356 C.3            1 <1>                0.0000
      8 C8          -1.5319  -9.9428  10.2954 C.3            1 <1>                0.0000
      9 C9          -2.1632 -11.0794  11.1020 C.3            1 <1>                0.0000
     10 H10          1.4333 -11.3286   9.0819 H              1 <1>                0.0000
     11 H11          0.6490 -13.1443   6.8096 H              1 <1>                0.0000
     12 H12          2.1694 -13.0969   7.7453 H              1 <1>                0.0000
     13 H13         -0.9764 -14.1956  10.0819 H              1 <1>                0.0000
     14 H14          0.5646 -13.4987  10.6691 H              1 <1>                0.0000
     15 H15         -1.4807 -12.2458   8.7561 H              1 <1>                0.0000
     16 H16          0.0811 -11.1984  11.2391 H              1 <1>                0.0000
     17 H17         -1.2144  -9.0543  10.8412 H              1 <1>                0.0000
     18 H18         -1.9151  -9.7656   9.2905 H              1 <1>                0.0000
     19 H19         -2.9618 -11.6498  10.6278 H              1 <1>                0.0000
     20 H20         -2.2610 -10.9385  12.1784 H              1 <1>                0.0000
     21 H21          0.5995  -9.9176   7.5913 H              1 <1>                0.0000
     22 H22         -0.0420 -14.7449   8.1286 H              1 <1>                0.0000
     23 H23          1.3732 -14.7200   8.9747 H              1 <1>                0.0000
@<TRIPOS>BOND
    1    1    2 1     
    2    1   21 1     
    3    2    3 1     
    4    2    6 1     
    5    2   10 1     
    6    3    4 1     
    7    3   11 1     
    8    3   12 1     
    9    4    5 1     
   10    4   22 1     
   11    4   23 1     
   12    5    6 1     
   13    5   13 1     
   14    5   14 1     
   15    6    7 1     
   16    6   15 1     
   17    7    8 1     
   18    7    9 1     
   19    7   16 1     
   20    8    9 1     
   21    8   17 1     
   22    8   18 1     
   23    9   19 1     
   24    9   20 1     
@<TRIPOS>SUBSTRUCTURE
      1 ****           1
@<TRIPOS>SET
DONOR_HYDROGENS      STATIC     ATOMS    <user>   **** ""
3 21 22 23
ATOM$RED        STATIC     ATOMS    COLORGROUP SYSTEM
3 21 22 23
@<TRIPOS>COMMENT
> <Gold.Version>
2022.2.0

> <Gold.Id.Protein>
3pbl|protein|mol2

> <Gold.Protein.RotatedTorsions>
[ 1303 1298 1297 1294 ] final -117.03 input  179.99 | X-H torsion
[ 2461 2456 2455 2452 ] final   65.04 input   30.03 | X-H torsion
[ 2515 2510 2509 2506 ] final -172.21 input  -89.99 | X-H torsion
[ 3721 3712 3711 3710 ] final -104.82 input -179.91 | X-H torsion
[ 3841 3832 3831 3830 ] final  -90.45 input -179.91 | X-H torsion
[ 3767 3762 3761 3758 ] final   38.34 input  -89.99 | X-H torsion
[ 2472 2467 2466 2463 ] final  170.65 input  -89.97 | X-H torsion

> <Gold.Protein.ActiveResidues>
 VAL82   VAL86   LEU89   PHE106  VAL107  ASP110  VAL111  MET112  CYS114  THR115 
 CYS181  SER182  ILE183  PHE188  VAL189  ILE190  SER192  SER193  SER196  TRP342 
 PHE345  PHE346  HIS349  VAL350  TYR365  THR369  GLY372  TYR373 

> <Gold.Protein.RotatedAtoms>
    4.1922   -8.4817    4.0678 H   0  0  0  0  0  0  0  0  0  0  0  0  # atno 1303 bound_to 1298
    1.9684   -8.0668    7.4329 H   0  0  0  0  0  0  0  0  0  0  0  0  # atno 2461 bound_to 2456
   -5.4223   -5.3494    8.8910 H   0  0  0  0  0  0  0  0  0  0  0  0  # atno 2472 bound_to 2467
    2.3775   -9.1117    5.7532 H   0  0  0  0  0  0  0  0  0  0  0  0  # atno 2515 bound_to 2510
   -3.1276  -16.7876   14.5698 H   0  0  0  0  0  0  0  0  0  0  0  0  # atno 3721 bound_to 3712
   -4.8706  -23.1340   10.0798 H   0  0  0  0  0  0  0  0  0  0  0  0  # atno 3767 bound_to 3762
    1.8570  -19.6134    8.7022 H   0  0  0  0  0  0  0  0  0  0  0  0  # atno 3841 bound_to 3832
    4.7674   -9.7290    4.9509 LP  0  0  0  0  0  0  0  0  0  0  0  0  # atno 4297 bound_to 1298
    3.4025   -9.9109    4.0730 LP  0  0  0  0  0  0  0  0  0  0  0  0  # atno 4298 bound_to 1298
    0.3979   -8.4998    7.3172 LP  0  0  0  0  0  0  0  0  0  0  0  0  # atno 4299 bound_to 2456
    1.3717   -9.2415    8.3980 LP  0  0  0  0  0  0  0  0  0  0  0  0  # atno 4300 bound_to 2456
    2.1133   -7.5120    5.5613 LP  0  0  0  0  0  0  0  0  0  0  0  0  # atno 4301 bound_to 2510
    2.8060   -8.3751    4.3605 LP  0  0  0  0  0  0  0  0  0  0  0  0  # atno 4302 bound_to 2510
   -3.3097  -17.1379   13.0135 LP  0  0  0  0  0  0  0  0  0  0  0  0  # atno 4306 bound_to 3712
   -2.6070  -18.2068   14.0285 LP  0  0  0  0  0  0  0  0  0  0  0  0  # atno 4307 bound_to 3712
    3.1216  -20.5733    8.4668 LP  0  0  0  0  0  0  0  0  0  0  0  0  # atno 4314 bound_to 3832
    1.9627  -20.9755    9.5446 LP  0  0  0  0  0  0  0  0  0  0  0  0  # atno 4315 bound_to 3832
   -5.3088  -21.9414   11.1058 LP  0  0  0  0  0  0  0  0  0  0  0  0  # atno 4318 bound_to 3762
   -3.9480  -22.7998   11.3852 LP  0  0  0  0  0  0  0  0  0  0  0  0  # atno 4319 bound_to 3762
   -4.4904   -4.8045    7.6658 LP  0  0  0  0  0  0  0  0  0  0  0  0  # atno 4320 bound_to 2467
   -3.8044   -5.2396    9.0824 LP  0  0  0  0  0  0  0  0  0  0  0  0  # atno 4321 bound_to 2467

> <Gold.Score>
     Score     S(PLP)   S(hbond)     S(cho)   S(metal)  DE(clash)   DE(tors)     intcor
     33.67     -30.68       1.00       0.00       0.00       0.00       0.59       1.17

> <Gold.PLP.Fitness>
33.6668

> <Gold.PLP.PLP>
-30.6850

> <Gold.PLP.part.hbond>
-1.0000

> <Gold.PLP.part.metal>
0.0000

> <Gold.PLP.part.buried>
-3.1470

> <Gold.PLP.part.nonpolar>
-26.3719

> <Gold.PLP.part.repulsive>
0.0070

> <Gold.PLP.ligand.clash>
0.0000

> <Gold.PLP.ligand.torsion>
0.5946

> <Gold.PLP.Chemscore.Hbond>
1.0000

> <Gold.PLP.Chemscore.CHOScore>
0.0000

> <Gold.PLP.Chemscore.Metal>
0.0000

> <Gold.Chemscore.Hbonds>
donor molecule, donor type, donor heavy atom, donor atom, acceptor molecule, acceptor atom, score
      L1  H     1    21       P1  2456  1.00

> <Gold.PLP.Chemscore.Internal.Correction>
1.1711

