#       Name:                EN300-1428682_i001
#       Creating user name   fsindt
#       Creation time:       Wed Mar  1 14:23:54 2023


#       File generated by GOLD software.
#

@<TRIPOS>MOLECULE
EN300-1428682_i001|amine_1|mol2|11013|dock11
    23    24     1
SMALL
USER_CHARGES


@<TRIPOS>ATOM
      1 O1           0.2241 -10.7557   7.4655 O.3            1 <1>                0.0000
      2 C2           0.8005 -11.9993   7.8694 C.3            1 <1>                0.0000
      3 C3           1.0376 -12.9129   6.6485 C.3            1 <1>                0.0000
      4 N4           0.6945 -14.2872   7.0580 N.4            1 <1>                1.0000
      5 C5           0.2812 -14.2661   8.4774 C.3            1 <1>                0.0000
      6 C6          -0.2018 -12.8157   8.7273 C.3            1 <1>                0.0000
      7 C7          -0.0843 -12.4462  10.2073 C.3            1 <1>                0.0000
      8 C8          -0.8734 -11.2301  10.6966 C.3            1 <1>                0.0000
      9 C9          -1.3229 -12.6403  11.0844 C.3            1 <1>                0.0000
     10 H10          1.7307 -11.8330   8.4127 H              1 <1>                0.0000
     11 H11          0.3981 -12.6015   5.8226 H              1 <1>                0.0000
     12 H12          2.0844 -12.8659   6.3480 H              1 <1>                0.0000
     13 H13         -0.5324 -14.9715   8.6462 H              1 <1>                0.0000
     14 H14          1.1278 -14.5005   9.1226 H              1 <1>                0.0000
     15 H15         -1.2229 -12.6775   8.3718 H              1 <1>                0.0000
     16 H16          0.8888 -12.6309  10.6622 H              1 <1>                0.0000
     17 H17         -0.4195 -10.6150  11.4737 H              1 <1>                0.0000
     18 H18         -1.4762 -10.6933   9.9641 H              1 <1>                0.0000
     19 H19         -2.2214 -13.0311  10.6070 H              1 <1>                0.0000
     20 H20         -1.1647 -12.9529  12.1165 H              1 <1>                0.0000
     21 H21          0.5614  -9.9900   7.9500 H              1 <1>                0.0000
     22 H22         -0.0638 -14.6318   6.4886 H              1 <1>                0.0000
     23 H23          1.4996 -14.8853   6.9477 H              1 <1>                0.0000
@<TRIPOS>BOND
    1    1    2 1     
    2    1   21 1     
    3    2    3 1     
    4    2    6 1     
    5    2   10 1     
    6    3    4 1     
    7    3   11 1     
    8    3   12 1     
    9    4    5 1     
   10    4   22 1     
   11    4   23 1     
   12    5    6 1     
   13    5   13 1     
   14    5   14 1     
   15    6    7 1     
   16    6   15 1     
   17    7    8 1     
   18    7    9 1     
   19    7   16 1     
   20    8    9 1     
   21    8   17 1     
   22    8   18 1     
   23    9   19 1     
   24    9   20 1     
@<TRIPOS>SUBSTRUCTURE
      1 ****           1
@<TRIPOS>SET
DONOR_HYDROGENS      STATIC     ATOMS    <user>   **** ""
3 21 22 23
ATOM$RED        STATIC     ATOMS    COLORGROUP SYSTEM
3 21 22 23
@<TRIPOS>COMMENT
> <Gold.Version>
2022.2.0

> <Gold.Id.Protein>
3pbl|protein|mol2

> <Gold.Protein.RotatedTorsions>
[ 1303 1298 1297 1294 ] final   83.56 input  179.99 | X-H torsion
[ 2461 2456 2455 2452 ] final   21.36 input   30.03 | X-H torsion
[ 2515 2510 2509 2506 ] final   80.22 input  -89.99 | X-H torsion
[ 3721 3712 3711 3710 ] final  -85.38 input -179.91 | X-H torsion
[ 3841 3832 3831 3830 ] final -162.34 input -179.91 | X-H torsion
[ 3767 3762 3761 3758 ] final -149.33 input  -89.99 | X-H torsion
[ 2472 2467 2466 2463 ] final   28.30 input  -89.97 | X-H torsion

> <Gold.Protein.ActiveResidues>
 VAL82   VAL86   LEU89   PHE106  VAL107  ASP110  VAL111  MET112  CYS114  THR115 
 CYS181  SER182  ILE183  PHE188  VAL189  ILE190  SER192  SER193  SER196  TRP342 
 PHE345  PHE346  HIS349  VAL350  TYR365  THR369  GLY372  TYR373 

> <Gold.Protein.RotatedAtoms>
    4.3305  -10.1717    4.8197 H   0  0  0  0  0  0  0  0  0  0  0  0  # atno 1303 bound_to 1298
    1.3801   -7.9193    7.0802 H   0  0  0  0  0  0  0  0  0  0  0  0  # atno 2461 bound_to 2456
   -4.1411   -4.8058    7.7737 H   0  0  0  0  0  0  0  0  0  0  0  0  # atno 2472 bound_to 2467
    2.0678   -7.6230    5.7264 H   0  0  0  0  0  0  0  0  0  0  0  0  # atno 2515 bound_to 2510
   -2.9908  -17.0046   14.7105 H   0  0  0  0  0  0  0  0  0  0  0  0  # atno 3721 bound_to 3712
   -4.4438  -22.1860   11.6483 H   0  0  0  0  0  0  0  0  0  0  0  0  # atno 3767 bound_to 3762
    2.7788  -19.8622    8.3540 H   0  0  0  0  0  0  0  0  0  0  0  0  # atno 3841 bound_to 3832
    3.3551   -9.3315    3.8152 LP  0  0  0  0  0  0  0  0  0  0  0  0  # atno 4297 bound_to 1298
    4.6765   -8.6178    4.4565 LP  0  0  0  0  0  0  0  0  0  0  0  0  # atno 4298 bound_to 1298
    0.3947   -8.9965    7.8123 LP  0  0  0  0  0  0  0  0  0  0  0  0  # atno 4299 bound_to 2456
    1.9630   -8.8921    8.2554 LP  0  0  0  0  0  0  0  0  0  0  0  0  # atno 4300 bound_to 2456
    2.7644   -8.1754    4.3569 LP  0  0  0  0  0  0  0  0  0  0  0  0  # atno 4301 bound_to 2510
    2.4647   -9.2011    5.5917 LP  0  0  0  0  0  0  0  0  0  0  0  0  # atno 4302 bound_to 2510
   -3.4387  -16.8880   13.1730 LP  0  0  0  0  0  0  0  0  0  0  0  0  # atno 4306 bound_to 3712
   -2.6360  -18.2062   13.7065 LP  0  0  0  0  0  0  0  0  0  0  0  0  # atno 4307 bound_to 3712
    2.6293  -21.1554    9.2928 LP  0  0  0  0  0  0  0  0  0  0  0  0  # atno 4314 bound_to 3832
    1.3900  -20.1061    9.1207 LP  0  0  0  0  0  0  0  0  0  0  0  0  # atno 4315 bound_to 3832
   -4.1861  -23.3286   10.5103 LP  0  0  0  0  0  0  0  0  0  0  0  0  # atno 4318 bound_to 3762
   -5.4974  -22.3603   10.4128 LP  0  0  0  0  0  0  0  0  0  0  0  0  # atno 4319 bound_to 3762
   -4.0666   -5.3509    9.3111 LP  0  0  0  0  0  0  0  0  0  0  0  0  # atno 4320 bound_to 2467
   -5.5091   -5.2368    8.5542 LP  0  0  0  0  0  0  0  0  0  0  0  0  # atno 4321 bound_to 2467

> <Gold.Score>
     Score     S(PLP)   S(hbond)     S(cho)   S(metal)  DE(clash)   DE(tors)     intcor
     33.48     -30.52       0.99       0.00       0.00       0.00       0.59       1.17

> <Gold.PLP.Fitness>
33.4842

> <Gold.PLP.PLP>
-30.5180

> <Gold.PLP.part.hbond>
-1.0000

> <Gold.PLP.part.metal>
0.0000

> <Gold.PLP.part.buried>
-3.5872

> <Gold.PLP.part.nonpolar>
-26.4657

> <Gold.PLP.part.repulsive>
0.0076

> <Gold.PLP.ligand.clash>
0.0000

> <Gold.PLP.ligand.torsion>
0.5904

> <Gold.PLP.Chemscore.Hbond>
0.9920

> <Gold.PLP.Chemscore.CHOScore>
0.0000

> <Gold.PLP.Chemscore.Metal>
0.0000

> <Gold.Chemscore.Hbonds>
donor molecule, donor type, donor heavy atom, donor atom, acceptor molecule, acceptor atom, score
      L1  H     1    21       P1  2456  0.99

> <Gold.PLP.Chemscore.Internal.Correction>
1.1711

