#       Name:                EN300-1428682_i001
#       Creating user name   fsindt
#       Creation time:       Wed Mar  1 14:23:54 2023


#       File generated by GOLD software.
#

@<TRIPOS>MOLECULE
EN300-1428682_i001|amine_1|mol2|11013|dock10
    23    24     1
SMALL
USER_CHARGES


@<TRIPOS>ATOM
      1 O1           0.5133 -11.2677   7.5351 O.3            1 <1>                0.0000
      2 C2           0.3033 -11.5771   8.9143 C.3            1 <1>                0.0000
      3 C3           0.8013 -13.0019   9.2357 C.3            1 <1>                0.0000
      4 N4          -0.1689 -13.6037  10.1687 N.4            1 <1>                1.0000
      5 C5          -1.2255 -12.6100  10.4548 C.3            1 <1>                0.0000
      6 C6          -1.2127 -11.6564   9.2342 C.3            1 <1>                0.0000
      7 C7          -1.7666 -10.2801   9.6080 C.3            1 <1>                0.0000
      8 C8          -3.2543 -10.1871   9.9528 C.3            1 <1>                0.0000
      9 C9          -2.2037 -10.0646  11.0584 C.3            1 <1>                0.0000
     10 H10          0.7967 -10.8435   9.5519 H              1 <1>                0.0000
     11 H11          0.8515 -13.5924   8.3209 H              1 <1>                0.0000
     12 H12          1.7849 -12.9543   9.7033 H              1 <1>                0.0000
     13 H13         -2.1946 -13.1012  10.5424 H              1 <1>                0.0000
     14 H14         -0.9933 -12.0613  11.3675 H              1 <1>                0.0000
     15 H15         -1.7661 -12.0845   8.3984 H              1 <1>                0.0000
     16 H16         -1.3171  -9.4349   9.0867 H              1 <1>                0.0000
     17 H17         -3.7835  -9.2807   9.6587 H              1 <1>                0.0000
     18 H18         -3.8385 -11.1065   9.9133 H              1 <1>                0.0000
     19 H19         -2.0967 -10.9034  11.7461 H              1 <1>                0.0000
     20 H20         -2.0417  -9.0776  11.4915 H              1 <1>                0.0000
     21 H21          0.8171 -10.3635   7.3767 H              1 <1>                0.0000
     22 H22         -0.5792 -14.4245   9.7492 H              1 <1>                0.0000
     23 H23          0.2979 -13.8593  11.0260 H              1 <1>                0.0000
@<TRIPOS>BOND
    1    1    2 1     
    2    1   21 1     
    3    2    3 1     
    4    2    6 1     
    5    2   10 1     
    6    3    4 1     
    7    3   11 1     
    8    3   12 1     
    9    4    5 1     
   10    4   22 1     
   11    4   23 1     
   12    5    6 1     
   13    5   13 1     
   14    5   14 1     
   15    6    7 1     
   16    6   15 1     
   17    7    8 1     
   18    7    9 1     
   19    7   16 1     
   20    8    9 1     
   21    8   17 1     
   22    8   18 1     
   23    9   19 1     
   24    9   20 1     
@<TRIPOS>SUBSTRUCTURE
      1 ****           1
@<TRIPOS>SET
DONOR_HYDROGENS      STATIC     ATOMS    <user>   **** ""
3 21 22 23
ATOM$RED        STATIC     ATOMS    COLORGROUP SYSTEM
3 21 22 23
@<TRIPOS>COMMENT
> <Gold.Version>
2022.2.0

> <Gold.Id.Protein>
3pbl|protein|mol2

> <Gold.Protein.RotatedTorsions>
[ 1303 1298 1297 1294 ] final   69.82 input  179.99 | X-H torsion
[ 2461 2456 2455 2452 ] final   26.66 input   30.03 | X-H torsion
[ 2515 2510 2509 2506 ] final   27.63 input  -89.99 | X-H torsion
[ 3721 3712 3711 3710 ] final  -33.53 input -179.91 | X-H torsion
[ 3841 3832 3831 3830 ] final -156.31 input -179.91 | X-H torsion
[ 3767 3762 3761 3758 ] final  -54.13 input  -89.99 | X-H torsion
[ 2472 2467 2466 2463 ] final  141.57 input  -89.97 | X-H torsion

> <Gold.Protein.ActiveResidues>
 VAL82   VAL86   LEU89   PHE106  VAL107  ASP110  VAL111  MET112  CYS114  THR115 
 CYS181  SER182  ILE183  PHE188  VAL189  ILE190  SER192  SER193  SER196  TRP342 
 PHE345  PHE346  HIS349  VAL350  TYR365  THR369  GLY372  TYR373 

> <Gold.Protein.RotatedAtoms>
    4.1433  -10.2467    4.7187 H   0  0  0  0  0  0  0  0  0  0  0  0  # atno 1303 bound_to 1298
    1.4632   -7.9166    7.1066 H   0  0  0  0  0  0  0  0  0  0  0  0  # atno 2461 bound_to 2456
   -5.5076   -5.1999    8.4499 H   0  0  0  0  0  0  0  0  0  0  0  0  # atno 2472 bound_to 2467
    2.3483   -7.4315    4.9635 H   0  0  0  0  0  0  0  0  0  0  0  0  # atno 2515 bound_to 2510
   -2.6229  -17.6605   14.6211 H   0  0  0  0  0  0  0  0  0  0  0  0  # atno 3721 bound_to 3712
   -5.4869  -22.1075   10.7290 H   0  0  0  0  0  0  0  0  0  0  0  0  # atno 3767 bound_to 3762
    2.7074  -19.8060    8.3479 H   0  0  0  0  0  0  0  0  0  0  0  0  # atno 3841 bound_to 3832
    3.4245   -9.1196    3.7812 LP  0  0  0  0  0  0  0  0  0  0  0  0  # atno 4297 bound_to 1298
    4.7944   -8.7547    4.5916 LP  0  0  0  0  0  0  0  0  0  0  0  0  # atno 4298 bound_to 1298
    0.3673   -8.9430    7.7492 LP  0  0  0  0  0  0  0  0  0  0  0  0  # atno 4299 bound_to 2456
    1.9073   -8.9484    8.2922 LP  0  0  0  0  0  0  0  0  0  0  0  0  # atno 4300 bound_to 2456
    2.8162   -8.9611    4.6359 LP  0  0  0  0  0  0  0  0  0  0  0  0  # atno 4301 bound_to 2510
    2.1323   -8.6070    6.0759 LP  0  0  0  0  0  0  0  0  0  0  0  0  # atno 4302 bound_to 2510
   -3.5618  -16.5556   13.9314 LP  0  0  0  0  0  0  0  0  0  0  0  0  # atno 4306 bound_to 3712
   -2.9377  -17.7814   13.0513 LP  0  0  0  0  0  0  0  0  0  0  0  0  # atno 4307 bound_to 3712
    2.7099  -21.1447    9.2333 LP  0  0  0  0  0  0  0  0  0  0  0  0  # atno 4314 bound_to 3832
    1.3919  -20.1817    9.1872 LP  0  0  0  0  0  0  0  0  0  0  0  0  # atno 4315 bound_to 3832
   -4.1511  -22.4616   11.5991 LP  0  0  0  0  0  0  0  0  0  0  0  0  # atno 4318 bound_to 3762
   -4.4896  -23.3058   10.2429 LP  0  0  0  0  0  0  0  0  0  0  0  0  # atno 4319 bound_to 3762
   -4.0466   -4.8151    7.8305 LP  0  0  0  0  0  0  0  0  0  0  0  0  # atno 4320 bound_to 2467
   -4.1628   -5.3786    9.3587 LP  0  0  0  0  0  0  0  0  0  0  0  0  # atno 4321 bound_to 2467

> <Gold.Score>
     Score     S(PLP)   S(hbond)     S(cho)   S(metal)  DE(clash)   DE(tors)     intcor
     34.59     -31.91       1.00       0.00       0.00       0.00       0.75       1.17

> <Gold.PLP.Fitness>
34.5898

> <Gold.PLP.PLP>
-31.9114

> <Gold.PLP.part.hbond>
-1.0000

> <Gold.PLP.part.metal>
0.0000

> <Gold.PLP.part.buried>
-3.2710

> <Gold.PLP.part.nonpolar>
-28.2625

> <Gold.PLP.part.repulsive>
0.0000

> <Gold.PLP.ligand.clash>
0.0000

> <Gold.PLP.ligand.torsion>
0.7464

> <Gold.PLP.Chemscore.Hbond>
1.0000

> <Gold.PLP.Chemscore.CHOScore>
0.0000

> <Gold.PLP.Chemscore.Metal>
0.0000

> <Gold.Chemscore.Hbonds>
donor molecule, donor type, donor heavy atom, donor atom, acceptor molecule, acceptor atom, score
      L1  H     1    21       P1  2456  1.00

> <Gold.PLP.Chemscore.Internal.Correction>
1.1711

