#       Name:                EN300-1428682_i001
#       Creating user name   fsindt
#       Creation time:       Wed Mar  1 14:23:56 2023


#       File generated by GOLD software.
#

@<TRIPOS>MOLECULE
EN300-1428682_i001|amine_1|mol2|11013|dock18
    23    24     1
SMALL
USER_CHARGES


@<TRIPOS>ATOM
      1 O1           0.6517 -15.4111   9.3310 O.3            1 <1>                0.0000
      2 C2           0.1611 -14.4842   8.3604 C.3            1 <1>                0.0000
      3 C3           1.0720 -14.4652   7.1149 C.3            1 <1>                0.0000
      4 N4           1.1786 -13.0626   6.6729 N.4            1 <1>                1.0000
      5 C5           0.3587 -12.2223   7.5715 C.3            1 <1>                0.0000
      6 C6           0.2632 -13.0296   8.8901 C.3            1 <1>                0.0000
      7 C7          -0.9899 -12.6444   9.6790 C.3            1 <1>                0.0000
      8 C8          -0.9642 -12.8574  11.1939 C.3            1 <1>                0.0000
      9 C9          -0.8908 -11.4413  10.6191 C.3            1 <1>                0.0000
     10 H10         -0.8653 -14.7253   8.0836 H              1 <1>                0.0000
     11 H11          2.0593 -14.8492   7.3716 H              1 <1>                0.0000
     12 H12          0.6305 -15.0709   6.3234 H              1 <1>                0.0000
     13 H13          0.8488 -11.2647   7.7475 H              1 <1>                0.0000
     14 H14         -0.6336 -12.0695   7.1474 H              1 <1>                0.0000
     15 H15          1.1599 -12.8965   9.4952 H              1 <1>                0.0000
     16 H16         -1.9372 -12.8046   9.1643 H              1 <1>                0.0000
     17 H17         -1.8948 -13.1573  11.6759 H              1 <1>                0.0000
     18 H18         -0.0546 -13.2719  11.6285 H              1 <1>                0.0000
     19 H19          0.0671 -10.9243  10.6756 H              1 <1>                0.0000
     20 H20         -1.7731 -10.8098  10.7229 H              1 <1>                0.0000
     21 H21          1.2935 -16.0441   8.9812 H              1 <1>                0.0000
     22 H22          2.1420 -12.7656   6.7154 H              1 <1>                0.0000
     23 H23          0.8398 -12.9782   5.7263 H              1 <1>                0.0000
@<TRIPOS>BOND
    1    1    2 1     
    2    1   21 1     
    3    2    3 1     
    4    2    6 1     
    5    2   10 1     
    6    3    4 1     
    7    3   11 1     
    8    3   12 1     
    9    4    5 1     
   10    4   22 1     
   11    4   23 1     
   12    5    6 1     
   13    5   13 1     
   14    5   14 1     
   15    6    7 1     
   16    6   15 1     
   17    7    8 1     
   18    7    9 1     
   19    7   16 1     
   20    8    9 1     
   21    8   17 1     
   22    8   18 1     
   23    9   19 1     
   24    9   20 1     
@<TRIPOS>SUBSTRUCTURE
      1 ****           1
@<TRIPOS>SET
DONOR_HYDROGENS      STATIC     ATOMS    <user>   **** ""
3 21 22 23
ATOM$RED        STATIC     ATOMS    COLORGROUP SYSTEM
3 21 22 23
@<TRIPOS>COMMENT
> <Gold.Version>
2022.2.0

> <Gold.Id.Protein>
3pbl|protein|mol2

> <Gold.Protein.RotatedTorsions>
[ 1303 1298 1297 1294 ] final   -9.86 input  179.99 | X-H torsion
[ 2461 2456 2455 2452 ] final  105.96 input   30.03 | X-H torsion
[ 2515 2510 2509 2506 ] final  -28.11 input  -89.99 | X-H torsion
[ 3721 3712 3711 3710 ] final    9.94 input -179.91 | X-H torsion
[ 3841 3832 3831 3830 ] final  -75.85 input -179.91 | X-H torsion
[ 3767 3762 3761 3758 ] final  170.17 input  -89.99 | X-H torsion
[ 2472 2467 2466 2463 ] final   36.59 input  -89.97 | X-H torsion

> <Gold.Protein.ActiveResidues>
 VAL82   VAL86   LEU89   PHE106  VAL107  ASP110  VAL111  MET112  CYS114  THR115 
 CYS181  SER182  ILE183  PHE188  VAL189  ILE190  SER192  SER193  SER196  TRP342 
 PHE345  PHE346  HIS349  VAL350  TYR365  THR369  GLY372  TYR373 

> <Gold.Protein.RotatedAtoms>
    3.3466   -9.7373    3.9674 H   0  0  0  0  0  0  0  0  0  0  0  0  # atno 1303 bound_to 1298
    2.1602   -8.4784    7.9110 H   0  0  0  0  0  0  0  0  0  0  0  0  # atno 2461 bound_to 2456
   -4.2657   -4.7997    7.7187 H   0  0  0  0  0  0  0  0  0  0  0  0  # atno 2472 bound_to 2467
    2.7112   -7.9944    4.3910 H   0  0  0  0  0  0  0  0  0  0  0  0  # atno 2515 bound_to 2510
   -2.4724  -18.0040   14.1007 H   0  0  0  0  0  0  0  0  0  0  0  0  # atno 3721 bound_to 3712
   -4.0155  -22.6544   11.4951 H   0  0  0  0  0  0  0  0  0  0  0  0  # atno 3767 bound_to 3762
    1.7179  -19.6884    8.8553 H   0  0  0  0  0  0  0  0  0  0  0  0  # atno 3841 bound_to 3832
    4.3658   -8.4806    4.1874 LP  0  0  0  0  0  0  0  0  0  0  0  0  # atno 4297 bound_to 1298
    4.6500   -9.9033    4.9369 LP  0  0  0  0  0  0  0  0  0  0  0  0  # atno 4298 bound_to 1298
    0.8308   -8.0807    7.0497 LP  0  0  0  0  0  0  0  0  0  0  0  0  # atno 4299 bound_to 2456
    0.7470   -9.2490    8.1875 LP  0  0  0  0  0  0  0  0  0  0  0  0  # atno 4300 bound_to 2456
    2.5453   -9.2476    5.4243 LP  0  0  0  0  0  0  0  0  0  0  0  0  # atno 4301 bound_to 2510
    2.0400   -7.7572    5.8603 LP  0  0  0  0  0  0  0  0  0  0  0  0  # atno 4302 bound_to 2510
   -3.3806  -16.7707   14.5823 LP  0  0  0  0  0  0  0  0  0  0  0  0  # atno 4306 bound_to 3712
   -3.2926  -17.1696   13.0012 LP  0  0  0  0  0  0  0  0  0  0  0  0  # atno 4307 bound_to 3712
    3.0666  -20.3808    8.3285 LP  0  0  0  0  0  0  0  0  0  0  0  0  # atno 4314 bound_to 3832
    2.1783  -21.0815    9.5059 LP  0  0  0  0  0  0  0  0  0  0  0  0  # atno 4315 bound_to 3832
   -4.7064  -23.2252   10.1300 LP  0  0  0  0  0  0  0  0  0  0  0  0  # atno 4318 bound_to 3762
   -5.4052  -21.9955   10.9462 LP  0  0  0  0  0  0  0  0  0  0  0  0  # atno 4319 bound_to 3762
   -3.9580   -5.3126    9.2381 LP  0  0  0  0  0  0  0  0  0  0  0  0  # atno 4320 bound_to 2467
   -5.4931   -5.2811    8.6821 LP  0  0  0  0  0  0  0  0  0  0  0  0  # atno 4321 bound_to 2467

> <Gold.Score>
     Score     S(PLP)   S(hbond)     S(cho)   S(metal)  DE(clash)   DE(tors)     intcor
     31.78     -29.47       0.77       0.00       0.00       0.00       0.59       1.17

> <Gold.PLP.Fitness>
31.7842

> <Gold.PLP.PLP>
-29.4729

> <Gold.PLP.part.hbond>
-1.0000

> <Gold.PLP.part.metal>
0.0000

> <Gold.PLP.part.buried>
-3.3799

> <Gold.PLP.part.nonpolar>
-25.7476

> <Gold.PLP.part.repulsive>
0.0185

> <Gold.PLP.ligand.clash>
0.0000

> <Gold.PLP.ligand.torsion>
0.5882

> <Gold.PLP.Chemscore.Hbond>
0.7722

> <Gold.PLP.Chemscore.CHOScore>
0.0000

> <Gold.PLP.Chemscore.Metal>
0.0000

> <Gold.Chemscore.Hbonds>
donor molecule, donor type, donor heavy atom, donor atom, acceptor molecule, acceptor atom, score
      L1  H     1    21       P1  1227  0.77

> <Gold.PLP.Chemscore.Internal.Correction>
1.1711

