#       Name:                EN300-1428682_i001
#       Creating user name   fsindt
#       Creation time:       Wed Mar  1 14:23:55 2023


#       File generated by GOLD software.
#

@<TRIPOS>MOLECULE
EN300-1428682_i001|amine_1|mol2|11013|dock13
    23    24     1
SMALL
USER_CHARGES


@<TRIPOS>ATOM
      1 O1           0.3221 -15.6647   9.8919 O.3            1 <1>                0.0000
      2 C2           0.2203 -14.8591   8.7161 C.3            1 <1>                0.0000
      3 C3           0.8150 -15.5954   7.4972 C.3            1 <1>                0.0000
      4 N4           1.5412 -14.5947   6.6939 N.4            1 <1>                1.0000
      5 C5           1.4017 -13.2757   7.3469 C.3            1 <1>                0.0000
      6 C6           1.1175 -13.5990   8.8350 C.3            1 <1>                0.0000
      7 C7           0.3641 -12.4517   9.5109 C.3            1 <1>                0.0000
      8 C8          -1.0951 -12.2301   9.1076 C.3            1 <1>                0.0000
      9 C9          -0.7617 -12.8196  10.4796 C.3            1 <1>                0.0000
     10 H10         -0.8170 -14.5808   8.5298 H              1 <1>                0.0000
     11 H11          1.5026 -16.3719   7.8322 H              1 <1>                0.0000
     12 H12          0.0142 -16.0370   6.9038 H              1 <1>                0.0000
     13 H13          2.3259 -12.7057   7.2523 H              1 <1>                0.0000
     14 H14          0.5682 -12.7236   6.9127 H              1 <1>                0.0000
     15 H15          2.0405 -13.8258   9.3684 H              1 <1>                0.0000
     16 H16          0.9611 -11.5702   9.7443 H              1 <1>                0.0000
     17 H17         -1.4581 -11.2027   9.0760 H              1 <1>                0.0000
     18 H18         -1.5183 -12.9016   8.3606 H              1 <1>                0.0000
     19 H19         -0.9657 -13.8789  10.6351 H              1 <1>                0.0000
     20 H20         -0.9053 -12.1801  11.3505 H              1 <1>                0.0000
     21 H21          1.0668 -16.2814   9.8830 H              1 <1>                0.0000
     22 H22          2.5170 -14.8456   6.6404 H              1 <1>                0.0000
     23 H23          1.1501 -14.5566   5.7646 H              1 <1>                0.0000
@<TRIPOS>BOND
    1    1    2 1     
    2    1   21 1     
    3    2    3 1     
    4    2    6 1     
    5    2   10 1     
    6    3    4 1     
    7    3   11 1     
    8    3   12 1     
    9    4    5 1     
   10    4   22 1     
   11    4   23 1     
   12    5    6 1     
   13    5   13 1     
   14    5   14 1     
   15    6    7 1     
   16    6   15 1     
   17    7    8 1     
   18    7    9 1     
   19    7   16 1     
   20    8    9 1     
   21    8   17 1     
   22    8   18 1     
   23    9   19 1     
   24    9   20 1     
@<TRIPOS>SUBSTRUCTURE
      1 ****           1
@<TRIPOS>SET
DONOR_HYDROGENS      STATIC     ATOMS    <user>   **** ""
3 21 22 23
ATOM$RED        STATIC     ATOMS    COLORGROUP SYSTEM
3 21 22 23
@<TRIPOS>COMMENT
> <Gold.Version>
2022.2.0

> <Gold.Id.Protein>
3pbl|protein|mol2

> <Gold.Protein.RotatedTorsions>
[ 1303 1298 1297 1294 ] final -122.55 input  179.99 | X-H torsion
[ 2461 2456 2455 2452 ] final   35.49 input   30.03 | X-H torsion
[ 2515 2510 2509 2506 ] final   24.88 input  -89.99 | X-H torsion
[ 3721 3712 3711 3710 ] final -122.75 input -179.91 | X-H torsion
[ 3841 3832 3831 3830 ] final   47.31 input -179.91 | X-H torsion
[ 3767 3762 3761 3758 ] final   -7.45 input  -89.99 | X-H torsion
[ 2472 2467 2466 2463 ] final  -18.92 input  -89.97 | X-H torsion

> <Gold.Protein.ActiveResidues>
 VAL82   VAL86   LEU89   PHE106  VAL107  ASP110  VAL111  MET112  CYS114  THR115 
 CYS181  SER182  ILE183  PHE188  VAL189  ILE190  SER192  SER193  SER196  TRP342 
 PHE345  PHE346  HIS349  VAL350  TYR365  THR369  GLY372  TYR373 

> <Gold.Protein.RotatedAtoms>
    4.2678   -8.4758    4.1180 H   0  0  0  0  0  0  0  0  0  0  0  0  # atno 1303 bound_to 1298
    1.5972   -7.9252    7.1619 H   0  0  0  0  0  0  0  0  0  0  0  0  # atno 2461 bound_to 2456
   -3.6682   -4.9587    8.3423 H   0  0  0  0  0  0  0  0  0  0  0  0  # atno 2472 bound_to 2467
    2.3674   -7.4424    4.9239 H   0  0  0  0  0  0  0  0  0  0  0  0  # atno 2515 bound_to 2510
   -3.2316  -16.6371   14.3712 H   0  0  0  0  0  0  0  0  0  0  0  0  # atno 3721 bound_to 3712
   -5.3849  -22.6245   10.1993 H   0  0  0  0  0  0  0  0  0  0  0  0  # atno 3767 bound_to 3762
    2.2972  -20.8966    9.5784 H   0  0  0  0  0  0  0  0  0  0  0  0  # atno 3841 bound_to 3832
    4.7205   -9.8068    4.9485 LP  0  0  0  0  0  0  0  0  0  0  0  0  # atno 4297 bound_to 1298
    3.3739   -9.8391    4.0252 LP  0  0  0  0  0  0  0  0  0  0  0  0  # atno 4298 bound_to 1298
    0.3383   -8.8475    7.6438 LP  0  0  0  0  0  0  0  0  0  0  0  0  # atno 4299 bound_to 2456
    1.8024   -9.0352    8.3423 LP  0  0  0  0  0  0  0  0  0  0  0  0  # atno 4300 bound_to 2456
    2.8097   -8.9930    4.6675 LP  0  0  0  0  0  0  0  0  0  0  0  0  # atno 4301 bound_to 2510
    2.1197   -8.5642    6.0840 LP  0  0  0  0  0  0  0  0  0  0  0  0  # atno 4302 bound_to 2510
   -3.1679  -17.3943   12.9568 LP  0  0  0  0  0  0  0  0  0  0  0  0  # atno 4306 bound_to 3712
   -2.6289  -18.1242   14.3145 LP  0  0  0  0  0  0  0  0  0  0  0  0  # atno 4307 bound_to 3712
    1.5480  -19.7668    8.7191 LP  0  0  0  0  0  0  0  0  0  0  0  0  # atno 4314 bound_to 3832
    3.0278  -20.2997    8.2800 LP  0  0  0  0  0  0  0  0  0  0  0  0  # atno 4315 bound_to 3832
   -4.7454  -22.0099   11.5705 LP  0  0  0  0  0  0  0  0  0  0  0  0  # atno 4318 bound_to 3762
   -3.9973  -23.2406   10.8010 LP  0  0  0  0  0  0  0  0  0  0  0  0  # atno 4319 bound_to 3762
   -4.8085   -5.4633    9.3965 LP  0  0  0  0  0  0  0  0  0  0  0  0  # atno 4320 bound_to 2467
   -5.2401   -4.9715    7.9003 LP  0  0  0  0  0  0  0  0  0  0  0  0  # atno 4321 bound_to 2467

> <Gold.Score>
     Score     S(PLP)   S(hbond)     S(cho)   S(metal)  DE(clash)   DE(tors)     intcor
     32.48     -26.56       1.99       0.00       0.00       0.00       0.61       1.17

> <Gold.PLP.Fitness>
32.4754

> <Gold.PLP.PLP>
-26.5564

> <Gold.PLP.part.hbond>
-1.9575

> <Gold.PLP.part.metal>
0.0000

> <Gold.PLP.part.buried>
-0.8078

> <Gold.PLP.part.nonpolar>
-24.7199

> <Gold.PLP.part.repulsive>
0.0614

> <Gold.PLP.ligand.clash>
0.0000

> <Gold.PLP.ligand.torsion>
0.6129

> <Gold.PLP.Chemscore.Hbond>
1.9913

> <Gold.PLP.Chemscore.CHOScore>
0.0000

> <Gold.PLP.Chemscore.Metal>
0.0000

> <Gold.Chemscore.Hbonds>
donor molecule, donor type, donor heavy atom, donor atom, acceptor molecule, acceptor atom, score
      L1  H     1    21       P1  1227  1.00
      L1  H     4    22       P1  1223  0.99

> <Gold.PLP.Chemscore.Internal.Correction>
1.1711

