#       Name:                EN300-1428682_i001
#       Creating user name   fsindt
#       Creation time:       Wed Mar  1 14:23:54 2023


#       File generated by GOLD software.
#

@<TRIPOS>MOLECULE
EN300-1428682_i001|amine_1|mol2|11013|dock8
    23    24     1
SMALL
USER_CHARGES


@<TRIPOS>ATOM
      1 O1           0.0962 -10.8405   7.8663 O.3            1 <1>                0.0000
      2 C2          -0.7149 -11.6611   8.7094 C.3            1 <1>                0.0000
      3 C3          -1.3193 -10.8305   9.8611 C.3            1 <1>                0.0000
      4 N4          -1.2782 -11.6694  11.0729 N.4            1 <1>                1.0000
      5 C5          -0.7004 -12.9828  10.7169 C.3            1 <1>                0.0000
      6 C6           0.1529 -12.7102   9.4532 C.3            1 <1>                0.0000
      7 C7           0.3141 -13.9807   8.6161 C.3            1 <1>                0.0000
      8 C8          -0.4006 -14.0315   7.2642 C.3            1 <1>                0.0000
      9 C9           1.1204 -13.8752   7.3200 C.3            1 <1>                0.0000
     10 H10         -1.5008 -12.1471   8.1312 H              1 <1>                0.0000
     11 H11         -0.7298  -9.9267  10.0155 H              1 <1>                0.0000
     12 H12         -2.3509 -10.5675   9.6269 H              1 <1>                0.0000
     13 H13         -0.0716 -13.3528  11.5268 H              1 <1>                0.0000
     14 H14         -1.4922 -13.6976  10.4932 H              1 <1>                0.0000
     15 H15          1.1244 -12.2945   9.7203 H              1 <1>                0.0000
     16 H16          0.3885 -14.9097   9.1812 H              1 <1>                0.0000
     17 H17         -0.7961 -14.9941   6.9398 H              1 <1>                0.0000
     18 H18         -0.9857 -13.1597   6.9712 H              1 <1>                0.0000
     19 H19          1.5359 -12.9007   7.0637 H              1 <1>                0.0000
     20 H20          1.7255 -14.7349   7.0324 H              1 <1>                0.0000
     21 H21          0.3533 -11.2632   7.0356 H              1 <1>                0.0000
     22 H22         -0.7049 -11.2250  11.7743 H              1 <1>                0.0000
     23 H23         -2.2133 -11.7955  11.4304 H              1 <1>                0.0000
@<TRIPOS>BOND
    1    1    2 1     
    2    1   21 1     
    3    2    3 1     
    4    2    6 1     
    5    2   10 1     
    6    3    4 1     
    7    3   11 1     
    8    3   12 1     
    9    4    5 1     
   10    4   22 1     
   11    4   23 1     
   12    5    6 1     
   13    5   13 1     
   14    5   14 1     
   15    6    7 1     
   16    6   15 1     
   17    7    8 1     
   18    7    9 1     
   19    7   16 1     
   20    8    9 1     
   21    8   17 1     
   22    8   18 1     
   23    9   19 1     
   24    9   20 1     
@<TRIPOS>SUBSTRUCTURE
      1 ****           1
@<TRIPOS>SET
DONOR_HYDROGENS      STATIC     ATOMS    <user>   **** ""
3 21 22 23
ATOM$RED        STATIC     ATOMS    COLORGROUP SYSTEM
3 21 22 23
@<TRIPOS>COMMENT
> <Gold.Version>
2022.2.0

> <Gold.Id.Protein>
3pbl|protein|mol2

> <Gold.Protein.RotatedTorsions>
[ 1303 1298 1297 1294 ] final    2.05 input  179.99 | X-H torsion
[ 2461 2456 2455 2452 ] final -117.01 input   30.03 | X-H torsion
[ 2515 2510 2509 2506 ] final   48.52 input  -89.99 | X-H torsion
[ 3721 3712 3711 3710 ] final   82.40 input -179.91 | X-H torsion
[ 3841 3832 3831 3830 ] final  -37.26 input -179.91 | X-H torsion
[ 3767 3762 3761 3758 ] final   63.51 input  -89.99 | X-H torsion
[ 2472 2467 2466 2463 ] final  156.74 input  -89.97 | X-H torsion

> <Gold.Protein.ActiveResidues>
 VAL82   VAL86   LEU89   PHE106  VAL107  ASP110  VAL111  MET112  CYS114  THR115 
 CYS181  SER182  ILE183  PHE188  VAL189  ILE190  SER192  SER193  SER196  TRP342 
 PHE345  PHE346  HIS349  VAL350  TYR365  THR369  GLY372  TYR373 

> <Gold.Protein.RotatedAtoms>
    3.3972   -9.8990    4.0653 H   0  0  0  0  0  0  0  0  0  0  0  0  # atno 1303 bound_to 1298
    0.5440   -9.1536    8.0214 H   0  0  0  0  0  0  0  0  0  0  0  0  # atno 2461 bound_to 2456
   -5.4926   -5.2827    8.6843 H   0  0  0  0  0  0  0  0  0  0  0  0  # atno 2472 bound_to 2467
    2.2131   -7.4179    5.2770 H   0  0  0  0  0  0  0  0  0  0  0  0  # atno 2515 bound_to 2510
   -2.7297  -17.7014   13.1570 H   0  0  0  0  0  0  0  0  0  0  0  0  # atno 3721 bound_to 3712
   -4.5210  -23.2965   10.2222 H   0  0  0  0  0  0  0  0  0  0  0  0  # atno 3767 bound_to 3762
    1.5616  -20.0466    9.2729 H   0  0  0  0  0  0  0  0  0  0  0  0  # atno 3841 bound_to 3832
    4.2052   -8.4801    4.0756 LP  0  0  0  0  0  0  0  0  0  0  0  0  # atno 4297 bound_to 1298
    4.7601   -9.7421    4.9509 LP  0  0  0  0  0  0  0  0  0  0  0  0  # atno 4298 bound_to 1298
    2.1057   -8.6814    8.0947 LP  0  0  0  0  0  0  0  0  0  0  0  0  # atno 4299 bound_to 2456
    1.0878   -7.9733    7.0321 LP  0  0  0  0  0  0  0  0  0  0  0  0  # atno 4300 bound_to 2456
    2.8354   -8.6778    4.4456 LP  0  0  0  0  0  0  0  0  0  0  0  0  # atno 4301 bound_to 2510
    2.2483   -8.9039    5.9526 LP  0  0  0  0  0  0  0  0  0  0  0  0  # atno 4302 bound_to 2510
   -2.8131  -17.7336   14.7601 LP  0  0  0  0  0  0  0  0  0  0  0  0  # atno 4306 bound_to 3712
   -3.5631  -16.5561   13.9130 LP  0  0  0  0  0  0  0  0  0  0  0  0  # atno 4307 bound_to 3712
    2.6897  -19.9091    8.1395 LP  0  0  0  0  0  0  0  0  0  0  0  0  # atno 4314 bound_to 3832
    2.7357  -21.1393    9.2125 LP  0  0  0  0  0  0  0  0  0  0  0  0  # atno 4315 bound_to 3832
   -5.4785  -22.0886   10.7617 LP  0  0  0  0  0  0  0  0  0  0  0  0  # atno 4318 bound_to 3762
   -4.1278  -22.4903   11.5869 LP  0  0  0  0  0  0  0  0  0  0  0  0  # atno 4319 bound_to 3762
   -4.2683   -4.7990    7.7181 LP  0  0  0  0  0  0  0  0  0  0  0  0  # atno 4320 bound_to 2467
   -3.9562   -5.3119    9.2367 LP  0  0  0  0  0  0  0  0  0  0  0  0  # atno 4321 bound_to 2467

> <Gold.Score>
     Score     S(PLP)   S(hbond)     S(cho)   S(metal)  DE(clash)   DE(tors)     intcor
     33.18     -30.49       1.00       0.00       0.00       0.00       0.74       1.17

> <Gold.PLP.Fitness>
33.1844

> <Gold.PLP.PLP>
-30.4931

> <Gold.PLP.part.hbond>
-1.0000

> <Gold.PLP.part.metal>
0.0000

> <Gold.PLP.part.buried>
-3.3934

> <Gold.PLP.part.nonpolar>
-26.4969

> <Gold.PLP.part.repulsive>
0.0558

> <Gold.PLP.ligand.clash>
0.0000

> <Gold.PLP.ligand.torsion>
0.7399

> <Gold.PLP.Chemscore.Hbond>
1.0000

> <Gold.PLP.Chemscore.CHOScore>
0.0000

> <Gold.PLP.Chemscore.Metal>
0.0000

> <Gold.Chemscore.Hbonds>
donor molecule, donor type, donor heavy atom, donor atom, acceptor molecule, acceptor atom, score
      P1  H  2456  2461       L1     1  1.00

> <Gold.PLP.Chemscore.Internal.Correction>
1.1711

