#       Name:                EN300-1428682_i001
#       Creating user name   fsindt
#       Creation time:       Wed Mar  1 14:23:52 2023


#       File generated by GOLD software.
#

@<TRIPOS>MOLECULE
EN300-1428682_i001|amine_1|mol2|11013|dock1
    23    24     1
SMALL
USER_CHARGES


@<TRIPOS>ATOM
      1 O1          -0.2546 -10.9050   8.1730 O.3            1 <1>                0.0000
      2 C2          -0.2236 -11.3967   9.5144 C.3            1 <1>                0.0000
      3 C3           0.5946 -12.7024   9.5982 C.3            1 <1>                0.0000
      4 N4          -0.1068 -13.5981  10.5360 N.4            1 <1>                1.0000
      5 C5          -1.3027 -12.8976  11.0507 C.3            1 <1>                0.0000
      6 C6          -1.6388 -11.8415   9.9686 C.3            1 <1>                0.0000
      7 C7          -2.4152 -10.6684  10.5701 C.3            1 <1>                0.0000
      8 C8          -3.1407  -9.7310   9.6026 C.3            1 <1>                0.0000
      9 C9          -3.9415 -10.7053  10.4689 C.3            1 <1>                0.0000
     10 H10          0.1820 -10.6437  10.1902 H              1 <1>                0.0000
     11 H11          0.6524 -13.1676   8.6141 H              1 <1>                0.0000
     12 H12          1.5971 -12.4886   9.9691 H              1 <1>                0.0000
     13 H13         -2.1305 -13.5968  11.1687 H              1 <1>                0.0000
     14 H14         -1.0781 -12.4105  11.9995 H              1 <1>                0.0000
     15 H15         -2.1906 -12.2905   9.1428 H              1 <1>                0.0000
     16 H16         -1.9806 -10.2275  11.4671 H              1 <1>                0.0000
     17 H17         -3.1836  -8.6735   9.8633 H              1 <1>                0.0000
     18 H18         -3.0648  -9.9501   8.5375 H              1 <1>                0.0000
     19 H19         -4.3924 -11.5652   9.9737 H              1 <1>                0.0000
     20 H20         -4.5111 -10.2887  11.2996 H              1 <1>                0.0000
     21 H21          0.0515  -9.9924   8.0814 H              1 <1>                0.0000
     22 H22         -0.3868 -14.4403  10.0560 H              1 <1>                0.0000
     23 H23          0.5053 -13.8333  11.3029 H              1 <1>                0.0000
@<TRIPOS>BOND
    1    1    2 1     
    2    1   21 1     
    3    2    3 1     
    4    2    6 1     
    5    2   10 1     
    6    3    4 1     
    7    3   11 1     
    8    3   12 1     
    9    4    5 1     
   10    4   22 1     
   11    4   23 1     
   12    5    6 1     
   13    5   13 1     
   14    5   14 1     
   15    6    7 1     
   16    6   15 1     
   17    7    8 1     
   18    7    9 1     
   19    7   16 1     
   20    8    9 1     
   21    8   17 1     
   22    8   18 1     
   23    9   19 1     
   24    9   20 1     
@<TRIPOS>SUBSTRUCTURE
      1 ****           1
@<TRIPOS>SET
DONOR_HYDROGENS      STATIC     ATOMS    <user>   **** ""
3 21 22 23
ATOM$RED        STATIC     ATOMS    COLORGROUP SYSTEM
3 21 22 23
@<TRIPOS>COMMENT
> <Gold.Version>
2022.2.0

> <Gold.Id.Protein>
3pbl|protein|mol2

> <Gold.Protein.RotatedTorsions>
[ 1303 1298 1297 1294 ] final  -46.57 input  179.99 | X-H torsion
[ 2461 2456 2455 2452 ] final    8.15 input   30.03 | X-H torsion
[ 2515 2510 2509 2506 ] final   96.54 input  -89.99 | X-H torsion
[ 3721 3712 3711 3710 ] final  163.99 input -179.91 | X-H torsion
[ 3841 3832 3831 3830 ] final  -93.31 input -179.91 | X-H torsion
[ 3767 3762 3761 3758 ] final  150.20 input  -89.99 | X-H torsion
[ 2472 2467 2466 2463 ] final -100.04 input  -89.97 | X-H torsion

> <Gold.Protein.ActiveResidues>
 VAL82   VAL86   LEU89   PHE106  VAL107  ASP110  VAL111  MET112  CYS114  THR115 
 CYS181  SER182  ILE183  PHE188  VAL189  ILE190  SER192  SER193  SER196  TRP342 
 PHE345  PHE346  HIS349  VAL350  TYR365  THR369  GLY372  TYR373 

> <Gold.Protein.RotatedAtoms>
    3.4020   -9.1743    3.7875 H   0  0  0  0  0  0  0  0  0  0  0  0  # atno 1303 bound_to 1298
    1.1695   -7.9512    7.0385 H   0  0  0  0  0  0  0  0  0  0  0  0  # atno 2461 bound_to 2456
   -4.1865   -5.3854    9.3682 H   0  0  0  0  0  0  0  0  0  0  0  0  # atno 2472 bound_to 2467
    2.0339   -7.8179    5.9064 H   0  0  0  0  0  0  0  0  0  0  0  0  # atno 2515 bound_to 2510
   -3.2724  -16.7256   13.3421 H   0  0  0  0  0  0  0  0  0  0  0  0  # atno 3721 bound_to 3712
   -3.9194  -22.8951   11.2958 H   0  0  0  0  0  0  0  0  0  0  0  0  # atno 3767 bound_to 3762
    1.8882  -19.6036    8.6740 H   0  0  0  0  0  0  0  0  0  0  0  0  # atno 3841 bound_to 3832
    4.7670   -8.7150    4.5571 LP  0  0  0  0  0  0  0  0  0  0  0  0  # atno 4297 bound_to 1298
    4.1934  -10.2321    4.7472 LP  0  0  0  0  0  0  0  0  0  0  0  0  # atno 4298 bound_to 1298
    0.4942   -9.1145    7.9648 LP  0  0  0  0  0  0  0  0  0  0  0  0  # atno 4299 bound_to 2456
    2.0740   -8.7423    8.1446 LP  0  0  0  0  0  0  0  0  0  0  0  0  # atno 4300 bound_to 2456
    2.6866   -7.9257    4.4137 LP  0  0  0  0  0  0  0  0  0  0  0  0  # atno 4301 bound_to 2510
    2.5764   -9.2557    5.3548 LP  0  0  0  0  0  0  0  0  0  0  0  0  # atno 4302 bound_to 2510
   -2.6571  -18.1853   13.6039 LP  0  0  0  0  0  0  0  0  0  0  0  0  # atno 4306 bound_to 3712
   -3.0926  -17.2310   14.8554 LP  0  0  0  0  0  0  0  0  0  0  0  0  # atno 4307 bound_to 3712
    3.1259  -20.6100    8.4970 LP  0  0  0  0  0  0  0  0  0  0  0  0  # atno 4314 bound_to 3832
    1.9222  -20.9501    9.5468 LP  0  0  0  0  0  0  0  0  0  0  0  0  # atno 4315 bound_to 3832
   -4.9805  -23.0591   10.0654 LP  0  0  0  0  0  0  0  0  0  0  0  0  # atno 4318 bound_to 3762
   -5.2272  -21.9209   11.2101 LP  0  0  0  0  0  0  0  0  0  0  0  0  # atno 4319 bound_to 3762
   -5.5054   -5.1900    8.4255 LP  0  0  0  0  0  0  0  0  0  0  0  0  # atno 4320 bound_to 2467
   -4.0249   -4.8181    7.8456 LP  0  0  0  0  0  0  0  0  0  0  0  0  # atno 4321 bound_to 2467

> <Gold.Score>
     Score     S(PLP)   S(hbond)     S(cho)   S(metal)  DE(clash)   DE(tors)     intcor
     37.35     -34.36       1.00       0.00       0.00       0.00       0.59       1.17

> <Gold.PLP.Fitness>
37.3471

> <Gold.PLP.PLP>
-34.3636

> <Gold.PLP.part.hbond>
-1.0000

> <Gold.PLP.part.metal>
0.0000

> <Gold.PLP.part.buried>
-2.9752

> <Gold.PLP.part.nonpolar>
-31.4018

> <Gold.PLP.part.repulsive>
0.0047

> <Gold.PLP.ligand.clash>
0.0000

> <Gold.PLP.ligand.torsion>
0.5938

> <Gold.PLP.Chemscore.Hbond>
1.0000

> <Gold.PLP.Chemscore.CHOScore>
0.0000

> <Gold.PLP.Chemscore.Metal>
0.0000

> <Gold.Chemscore.Hbonds>
donor molecule, donor type, donor heavy atom, donor atom, acceptor molecule, acceptor atom, score
      L1  H     1    21       P1  2456  1.00

> <Gold.PLP.Chemscore.Internal.Correction>
1.1711

