#       Name:                EN300-1428682_i001
#       Creating user name   fsindt
#       Creation time:       Wed Mar  1 14:23:55 2023


#       File generated by GOLD software.
#

@<TRIPOS>MOLECULE
EN300-1428682_i001|amine_1|mol2|11013|dock14
    23    24     1
SMALL
USER_CHARGES


@<TRIPOS>ATOM
      1 O1           0.9355 -11.1121   8.6866 O.3            1 <1>                0.0000
      2 C2           0.0307 -12.1426   9.0882 C.3            1 <1>                0.0000
      3 C3          -0.8530 -11.6665  10.2603 C.3            1 <1>                0.0000
      4 N4          -0.9993 -12.8038  11.1871 N.4            1 <1>                1.0000
      5 C5          -0.2688 -13.9621  10.6299 C.3            1 <1>                0.0000
      6 C6           0.8019 -13.3432   9.6972 C.3            1 <1>                0.0000
      7 C7           1.2203 -14.3343   8.6094 C.3            1 <1>                0.0000
      8 C8           0.1212 -14.8981   7.7066 C.3            1 <1>                0.0000
      9 C9           1.1139 -13.8730   7.1545 C.3            1 <1>                0.0000
     10 H10         -0.5844 -12.4628   8.2472 H              1 <1>                0.0000
     11 H11         -0.3734 -10.8314  10.7709 H              1 <1>                0.0000
     12 H12         -1.8316 -11.3635   9.8877 H              1 <1>                0.0000
     13 H13          0.2070 -14.5308  11.4289 H              1 <1>                0.0000
     14 H14         -0.9454 -14.5993  10.0606 H              1 <1>                0.0000
     15 H15          1.6666 -13.0031  10.2670 H              1 <1>                0.0000
     16 H16          2.0470 -14.9957   8.8688 H              1 <1>                0.0000
     17 H17          0.2250 -15.9302   7.3717 H              1 <1>                0.0000
     18 H18         -0.9000 -14.5628   7.8877 H              1 <1>                0.0000
     19 H19          0.7457 -12.8635   6.9723 H              1 <1>                0.0000
     20 H20          1.8707 -14.2308   6.4565 H              1 <1>                0.0000
     21 H21          1.8680 -11.3568   8.7600 H              1 <1>                0.0000
     22 H22         -0.6138 -12.5602  12.0872 H              1 <1>                0.0000
     23 H23         -1.9761 -13.0355  11.2889 H              1 <1>                0.0000
@<TRIPOS>BOND
    1    1    2 1     
    2    1   21 1     
    3    2    3 1     
    4    2    6 1     
    5    2   10 1     
    6    3    4 1     
    7    3   11 1     
    8    3   12 1     
    9    4    5 1     
   10    4   22 1     
   11    4   23 1     
   12    5    6 1     
   13    5   13 1     
   14    5   14 1     
   15    6    7 1     
   16    6   15 1     
   17    7    8 1     
   18    7    9 1     
   19    7   16 1     
   20    8    9 1     
   21    8   17 1     
   22    8   18 1     
   23    9   19 1     
   24    9   20 1     
@<TRIPOS>SUBSTRUCTURE
      1 ****           1
@<TRIPOS>SET
DONOR_HYDROGENS      STATIC     ATOMS    <user>   **** ""
3 21 22 23
ATOM$RED        STATIC     ATOMS    COLORGROUP SYSTEM
3 21 22 23
@<TRIPOS>COMMENT
> <Gold.Version>
2022.2.0

> <Gold.Id.Protein>
3pbl|protein|mol2

> <Gold.Protein.RotatedTorsions>
[ 1303 1298 1297 1294 ] final   -0.86 input  179.99 | X-H torsion
[ 2461 2456 2455 2452 ] final -159.18 input   30.03 | X-H torsion
[ 2515 2510 2509 2506 ] final -152.69 input  -89.99 | X-H torsion
[ 3721 3712 3711 3710 ] final   74.89 input -179.91 | X-H torsion
[ 3841 3832 3831 3830 ] final   41.07 input -179.91 | X-H torsion
[ 3767 3762 3761 3758 ] final  112.17 input  -89.99 | X-H torsion
[ 2472 2467 2466 2463 ] final   -4.83 input  -89.97 | X-H torsion

> <Gold.Protein.ActiveResidues>
 VAL82   VAL86   LEU89   PHE106  VAL107  ASP110  VAL111  MET112  CYS114  THR115 
 CYS181  SER182  ILE183  PHE188  VAL189  ILE190  SER192  SER193  SER196  TRP342 
 PHE345  PHE346  HIS349  VAL350  TYR365  THR369  GLY372  TYR373 

> <Gold.Protein.RotatedAtoms>
    3.3818   -9.8613    4.0400 H   0  0  0  0  0  0  0  0  0  0  0  0  # atno 1303 bound_to 1298
    1.1203   -9.2855    8.3543 H   0  0  0  0  0  0  0  0  0  0  0  0  # atno 2461 bound_to 2456
   -3.7560   -4.8948    8.1381 H   0  0  0  0  0  0  0  0  0  0  0  0  # atno 2472 bound_to 2467
    2.5142   -9.2334    5.4913 H   0  0  0  0  0  0  0  0  0  0  0  0  # atno 2515 bound_to 2510
   -2.6792  -17.7794   13.2220 H   0  0  0  0  0  0  0  0  0  0  0  0  # atno 3721 bound_to 3712
   -3.9992  -23.2426   10.7953 H   0  0  0  0  0  0  0  0  0  0  0  0  # atno 3767 bound_to 3762
    2.2123  -20.8622    9.6002 H   0  0  0  0  0  0  0  0  0  0  0  0  # atno 3841 bound_to 3832
    4.2451   -8.4766    4.1019 LP  0  0  0  0  0  0  0  0  0  0  0  0  # atno 4297 bound_to 1298
    4.7355   -9.7832    4.9498 LP  0  0  0  0  0  0  0  0  0  0  0  0  # atno 4298 bound_to 1298
    2.0939   -8.2036    7.6133 LP  0  0  0  0  0  0  0  0  0  0  0  0  # atno 4299 bound_to 2456
    0.5235   -8.3192    7.1807 LP  0  0  0  0  0  0  0  0  0  0  0  0  # atno 4300 bound_to 2456
    2.0489   -7.7013    5.8107 LP  0  0  0  0  0  0  0  0  0  0  0  0  # atno 4301 bound_to 2510
    2.7336   -8.0640    4.3732 LP  0  0  0  0  0  0  0  0  0  0  0  0  # atno 4302 bound_to 2510
   -2.8670  -17.6319   14.8097 LP  0  0  0  0  0  0  0  0  0  0  0  0  # atno 4306 bound_to 3712
   -3.5675  -16.5678   13.7882 LP  0  0  0  0  0  0  0  0  0  0  0  0  # atno 4307 bound_to 3712
    1.6065  -19.7239    8.6445 LP  0  0  0  0  0  0  0  0  0  0  0  0  # atno 4314 bound_to 3832
    3.0673  -20.3824    8.3295 LP  0  0  0  0  0  0  0  0  0  0  0  0  # atno 4315 bound_to 3832
   -5.3880  -22.6203   10.2028 LP  0  0  0  0  0  0  0  0  0  0  0  0  # atno 4318 bound_to 3762
   -4.7399  -22.0123   11.5729 LP  0  0  0  0  0  0  0  0  0  0  0  0  # atno 4319 bound_to 3762
   -4.5804   -5.4514    9.4331 LP  0  0  0  0  0  0  0  0  0  0  0  0  # atno 4320 bound_to 2467
   -5.3803   -5.0474    8.0679 LP  0  0  0  0  0  0  0  0  0  0  0  0  # atno 4321 bound_to 2467

> <Gold.Score>
     Score     S(PLP)   S(hbond)     S(cho)   S(metal)  DE(clash)   DE(tors)     intcor
     32.58     -29.83       1.00       0.00       0.00       0.00       0.71       1.17

> <Gold.PLP.Fitness>
32.5846

> <Gold.PLP.PLP>
-29.8297

> <Gold.PLP.part.hbond>
-1.0000

> <Gold.PLP.part.metal>
0.0000

> <Gold.PLP.part.buried>
-3.6948

> <Gold.PLP.part.nonpolar>
-25.7435

> <Gold.PLP.part.repulsive>
0.0651

> <Gold.PLP.ligand.clash>
0.0000

> <Gold.PLP.ligand.torsion>
0.7081

> <Gold.PLP.Chemscore.Hbond>
1.0000

> <Gold.PLP.Chemscore.CHOScore>
0.0000

> <Gold.PLP.Chemscore.Metal>
0.0000

> <Gold.Chemscore.Hbonds>
donor molecule, donor type, donor heavy atom, donor atom, acceptor molecule, acceptor atom, score
      P1  H  2456  2461       L1     1  1.00

> <Gold.PLP.Chemscore.Internal.Correction>
1.1711

