#       Name:                EN300-1428682_i001
#       Creating user name   fsindt
#       Creation time:       Wed Mar  1 14:23:53 2023


#       File generated by GOLD software.
#

@<TRIPOS>MOLECULE
EN300-1428682_i001|amine_1|mol2|11013|dock4
    23    24     1
SMALL
USER_CHARGES


@<TRIPOS>ATOM
      1 O1           1.5265 -14.8382   9.9869 O.3            1 <1>                0.0000
      2 C2           0.6700 -14.1515   9.0722 C.3            1 <1>                0.0000
      3 C3           1.3408 -14.0228   7.6884 C.3            1 <1>                0.0000
      4 N4           1.0141 -12.6827   7.1675 N.4            1 <1>                1.0000
      5 C5           0.1558 -11.9910   8.1527 C.3            1 <1>                0.0000
      6 C6           0.4764 -12.6744   9.5054 C.3            1 <1>                0.0000
      7 C7          -0.6953 -12.5381  10.4797 C.3            1 <1>                0.0000
      8 C8          -0.9406 -11.1619  11.1017 C.3            1 <1>                0.0000
      9 C9          -1.8931 -11.6983  10.0311 C.3            1 <1>                0.0000
     10 H10         -0.2902 -14.6606   8.9891 H              1 <1>                0.0000
     11 H11          2.4211 -14.1284   7.7887 H              1 <1>                0.0000
     12 H12          0.9522 -14.7872   7.0154 H              1 <1>                0.0000
     13 H13          0.4049 -10.9307   8.1948 H              1 <1>                0.0000
     14 H14         -0.8959 -12.1249   7.8998 H              1 <1>                0.0000
     15 H15          1.3917 -12.2716   9.9391 H              1 <1>                0.0000
     16 H16         -0.8970 -13.4129  11.0978 H              1 <1>                0.0000
     17 H17         -1.3039 -11.1314  12.1289 H              1 <1>                0.0000
     18 H18         -0.2671 -10.3536  10.8168 H              1 <1>                0.0000
     19 H19         -1.8461 -11.2428   9.0420 H              1 <1>                0.0000
     20 H20         -2.8829 -12.0206  10.3541 H              1 <1>                0.0000
     21 H21          1.8908 -15.6641   9.6403 H              1 <1>                0.0000
     22 H22          1.8635 -12.1562   7.0282 H              1 <1>                0.0000
     23 H23          0.5223 -12.7698   6.2908 H              1 <1>                0.0000
@<TRIPOS>BOND
    1    1    2 1     
    2    1   21 1     
    3    2    3 1     
    4    2    6 1     
    5    2   10 1     
    6    3    4 1     
    7    3   11 1     
    8    3   12 1     
    9    4    5 1     
   10    4   22 1     
   11    4   23 1     
   12    5    6 1     
   13    5   13 1     
   14    5   14 1     
   15    6    7 1     
   16    6   15 1     
   17    7    8 1     
   18    7    9 1     
   19    7   16 1     
   20    8    9 1     
   21    8   17 1     
   22    8   18 1     
   23    9   19 1     
   24    9   20 1     
@<TRIPOS>SUBSTRUCTURE
      1 ****           1
@<TRIPOS>SET
DONOR_HYDROGENS      STATIC     ATOMS    <user>   **** ""
3 21 22 23
ATOM$RED        STATIC     ATOMS    COLORGROUP SYSTEM
3 21 22 23
@<TRIPOS>COMMENT
> <Gold.Version>
2022.2.0

> <Gold.Id.Protein>
3pbl|protein|mol2

> <Gold.Protein.RotatedTorsions>
[ 1303 1298 1297 1294 ] final -175.62 input  179.99 | X-H torsion
[ 2461 2456 2455 2452 ] final  -18.23 input   30.03 | X-H torsion
[ 2515 2510 2509 2506 ] final  164.10 input  -89.99 | X-H torsion
[ 3721 3712 3711 3710 ] final  -29.88 input -179.91 | X-H torsion
[ 3841 3832 3831 3830 ] final -175.24 input -179.91 | X-H torsion
[ 3767 3762 3761 3758 ] final   99.41 input  -89.99 | X-H torsion
[ 2472 2467 2466 2463 ] final -167.76 input  -89.97 | X-H torsion

> <Gold.Protein.ActiveResidues>
 VAL82   VAL86   LEU89   PHE106  VAL107  ASP110  VAL111  MET112  CYS114  THR115 
 CYS181  SER182  ILE183  PHE188  VAL189  ILE190  SER192  SER193  SER196  TRP342 
 PHE345  PHE346  HIS349  VAL350  TYR365  THR369  GLY372  TYR373 

> <Gold.Protein.RotatedAtoms>
    4.8303   -8.8192    4.6422 H   0  0  0  0  0  0  0  0  0  0  0  0  # atno 1303 bound_to 1298
    0.7721   -8.1145    7.0630 H   0  0  0  0  0  0  0  0  0  0  0  0  # atno 2461 bound_to 2456
   -5.2170   -5.4266    9.1677 H   0  0  0  0  0  0  0  0  0  0  0  0  # atno 2472 bound_to 2467
    2.2214   -8.8458    5.9872 H   0  0  0  0  0  0  0  0  0  0  0  0  # atno 2515 bound_to 2510
   -2.6025  -17.7010   14.5900 H   0  0  0  0  0  0  0  0  0  0  0  0  # atno 3721 bound_to 3712
   -4.0994  -23.3049   10.6221 H   0  0  0  0  0  0  0  0  0  0  0  0  # atno 3767 bound_to 3762
    2.9146  -19.9966    8.3903 H   0  0  0  0  0  0  0  0  0  0  0  0  # atno 3841 bound_to 3832
    4.0685  -10.2632    4.6724 LP  0  0  0  0  0  0  0  0  0  0  0  0  # atno 4297 bound_to 1298
    3.4631   -9.0392    3.7768 LP  0  0  0  0  0  0  0  0  0  0  0  0  # atno 4298 bound_to 1298
    0.8045   -9.2641    8.2226 LP  0  0  0  0  0  0  0  0  0  0  0  0  # atno 4299 bound_to 2456
    2.1610   -8.4294    7.8623 LP  0  0  0  0  0  0  0  0  0  0  0  0  # atno 4300 bound_to 2456
    2.2397   -7.4102    5.2097 LP  0  0  0  0  0  0  0  0  0  0  0  0  # atno 4301 bound_to 2510
    2.8357   -8.7428    4.4780 LP  0  0  0  0  0  0  0  0  0  0  0  0  # atno 4302 bound_to 2510
   -3.5561  -16.5561   13.9920 LP  0  0  0  0  0  0  0  0  0  0  0  0  # atno 4306 bound_to 3712
   -2.9670  -17.7341   13.0267 LP  0  0  0  0  0  0  0  0  0  0  0  0  # atno 4307 bound_to 3712
    2.4444  -21.1501    9.4025 LP  0  0  0  0  0  0  0  0  0  0  0  0  # atno 4314 bound_to 3832
    1.4181  -19.9561    8.9690 LP  0  0  0  0  0  0  0  0  0  0  0  0  # atno 4315 bound_to 3832
   -5.4656  -22.4636   10.3181 LP  0  0  0  0  0  0  0  0  0  0  0  0  # atno 4318 bound_to 3762
   -4.5622  -22.1069   11.6308 LP  0  0  0  0  0  0  0  0  0  0  0  0  # atno 4319 bound_to 3762
   -4.8398   -4.8506    7.6870 LP  0  0  0  0  0  0  0  0  0  0  0  0  # atno 4320 bound_to 2467
   -3.6603   -5.1164    8.7846 LP  0  0  0  0  0  0  0  0  0  0  0  0  # atno 4321 bound_to 2467

> <Gold.Score>
     Score     S(PLP)   S(hbond)     S(cho)   S(metal)  DE(clash)   DE(tors)     intcor
     33.43     -30.85       1.00       0.00       0.00       0.00       0.79       1.17

> <Gold.PLP.Fitness>
33.4321

> <Gold.PLP.PLP>
-30.8457

> <Gold.PLP.part.hbond>
-1.0000

> <Gold.PLP.part.metal>
0.0000

> <Gold.PLP.part.buried>
-3.5886

> <Gold.PLP.part.nonpolar>
-26.4654

> <Gold.PLP.part.repulsive>
0.0108

> <Gold.PLP.ligand.clash>
0.0000

> <Gold.PLP.ligand.torsion>
0.7924

> <Gold.PLP.Chemscore.Hbond>
1.0000

> <Gold.PLP.Chemscore.CHOScore>
0.0000

> <Gold.PLP.Chemscore.Metal>
0.0000

> <Gold.Chemscore.Hbonds>
donor molecule, donor type, donor heavy atom, donor atom, acceptor molecule, acceptor atom, score
      L1  H     1    21       P1  1227  1.00

> <Gold.PLP.Chemscore.Internal.Correction>
1.1711

