#       Name:                EN300-1428682_i001
#       Creating user name   fsindt
#       Creation time:       Wed Mar  1 14:23:56 2023


#       File generated by GOLD software.
#

@<TRIPOS>MOLECULE
EN300-1428682_i001|amine_1|mol2|11013|dock16
    23    24     1
SMALL
USER_CHARGES


@<TRIPOS>ATOM
      1 O1           0.7920 -12.4942   9.6891 O.3            1 <1>                0.0000
      2 C2           0.2390 -13.5406   8.8883 C.3            1 <1>                0.0000
      3 C3           0.2979 -14.8892   9.6362 C.3            1 <1>                0.0000
      4 N4           0.6542 -15.9224   8.6466 N.4            1 <1>                1.0000
      5 C5           0.7936 -15.2785   7.3231 C.3            1 <1>                0.0000
      6 C6           1.1189 -13.7967   7.6364 C.3            1 <1>                0.0000
      7 C7           0.7024 -12.8875   6.4786 C.3            1 <1>                0.0000
      8 C8           0.4989 -11.4023   6.7846 C.3            1 <1>                0.0000
      9 C9           1.7220 -11.8583   5.9865 C.3            1 <1>                0.0000
     10 H10         -0.7854 -13.3038   8.6008 H              1 <1>                0.0000
     11 H11          1.0565 -14.8469  10.4178 H              1 <1>                0.0000
     12 H12         -0.6754 -15.1138  10.0729 H              1 <1>                0.0000
     13 H13          1.6090 -15.7357   6.7627 H              1 <1>                0.0000
     14 H14         -0.1397 -15.3523   6.7651 H              1 <1>                0.0000
     15 H15          2.1760 -13.6700   7.8696 H              1 <1>                0.0000
     16 H16          0.0476 -13.3425   5.7355 H              1 <1>                0.0000
     17 H17         -0.2897 -10.8802   6.2425 H              1 <1>                0.0000
     18 H18          0.6616 -11.0729   7.8108 H              1 <1>                0.0000
     19 H19          2.6895 -11.8289   6.4877 H              1 <1>                0.0000
     20 H20          1.7382 -11.6362   4.9195 H              1 <1>                0.0000
     21 H21          0.9900 -11.6855   9.1975 H              1 <1>                0.0000
     22 H22          1.5275 -16.3555   8.9073 H              1 <1>                0.0000
     23 H23         -0.0723 -16.6216   8.6092 H              1 <1>                0.0000
@<TRIPOS>BOND
    1    1    2 1     
    2    1   21 1     
    3    2    3 1     
    4    2    6 1     
    5    2   10 1     
    6    3    4 1     
    7    3   11 1     
    8    3   12 1     
    9    4    5 1     
   10    4   22 1     
   11    4   23 1     
   12    5    6 1     
   13    5   13 1     
   14    5   14 1     
   15    6    7 1     
   16    6   15 1     
   17    7    8 1     
   18    7    9 1     
   19    7   16 1     
   20    8    9 1     
   21    8   17 1     
   22    8   18 1     
   23    9   19 1     
   24    9   20 1     
@<TRIPOS>SUBSTRUCTURE
      1 ****           1
@<TRIPOS>SET
DONOR_HYDROGENS      STATIC     ATOMS    <user>   **** ""
3 21 22 23
ATOM$RED        STATIC     ATOMS    COLORGROUP SYSTEM
3 21 22 23
@<TRIPOS>COMMENT
> <Gold.Version>
2022.2.0

> <Gold.Id.Protein>
3pbl|protein|mol2

> <Gold.Protein.RotatedTorsions>
[ 1303 1298 1297 1294 ] final  -38.54 input  179.99 | X-H torsion
[ 2461 2456 2455 2452 ] final   70.61 input   30.03 | X-H torsion
[ 2515 2510 2509 2506 ] final   20.64 input  -89.99 | X-H torsion
[ 3721 3712 3711 3710 ] final -159.94 input -179.91 | X-H torsion
[ 3841 3832 3831 3830 ] final   91.82 input -179.91 | X-H torsion
[ 3767 3762 3761 3758 ] final  127.11 input  -89.99 | X-H torsion
[ 2472 2467 2466 2463 ] final -119.45 input  -89.97 | X-H torsion

> <Gold.Protein.ActiveResidues>
 VAL82   VAL86   LEU89   PHE106  VAL107  ASP110  VAL111  MET112  CYS114  THR115 
 CYS181  SER182  ILE183  PHE188  VAL189  ILE190  SER192  SER193  SER196  TRP342 
 PHE345  PHE346  HIS349  VAL350  TYR365  THR369  GLY372  TYR373 

> <Gold.Protein.RotatedAtoms>
    3.3629   -9.2985    3.8084 H   0  0  0  0  0  0  0  0  0  0  0  0  # atno 1303 bound_to 1298
    2.0196   -8.1109    7.4948 H   0  0  0  0  0  0  0  0  0  0  0  0  # atno 2461 bound_to 2456
   -4.4925   -5.4424    9.4328 H   0  0  0  0  0  0  0  0  0  0  0  0  # atno 2472 bound_to 2467
    2.3970   -7.4631    4.8644 H   0  0  0  0  0  0  0  0  0  0  0  0  # atno 2515 bound_to 2510
   -3.3378  -16.5342   13.8389 H   0  0  0  0  0  0  0  0  0  0  0  0  # atno 3721 bound_to 3712
   -3.9267  -23.1311   11.0015 H   0  0  0  0  0  0  0  0  0  0  0  0  # atno 3767 bound_to 3762
    2.8615  -20.9144    9.2449 H   0  0  0  0  0  0  0  0  0  0  0  0  # atno 3841 bound_to 3832
    4.6969   -8.6362    4.4778 LP  0  0  0  0  0  0  0  0  0  0  0  0  # atno 4297 bound_to 1298
    4.3027  -10.1866    4.8056 LP  0  0  0  0  0  0  0  0  0  0  0  0  # atno 4298 bound_to 1298
    0.4353   -8.4344    7.2649 LP  0  0  0  0  0  0  0  0  0  0  0  0  # atno 4299 bound_to 2456
    1.2831   -9.2627    8.3883 LP  0  0  0  0  0  0  0  0  0  0  0  0  # atno 4300 bound_to 2456
    2.7981   -9.0390    4.7185 LP  0  0  0  0  0  0  0  0  0  0  0  0  # atno 4301 bound_to 2510
    2.1017   -8.4975    6.0926 LP  0  0  0  0  0  0  0  0  0  0  0  0  # atno 4302 bound_to 2510
   -2.8653  -17.8954   13.1305 LP  0  0  0  0  0  0  0  0  0  0  0  0  # atno 4306 bound_to 3712
   -2.8088  -17.7418   14.7553 LP  0  0  0  0  0  0  0  0  0  0  0  0  # atno 4307 bound_to 3712
    1.4012  -20.2484    9.2412 LP  0  0  0  0  0  0  0  0  0  0  0  0  # atno 4314 bound_to 3832
    2.5226  -19.7976    8.1431 LP  0  0  0  0  0  0  0  0  0  0  0  0  # atno 4315 bound_to 3832
   -5.2547  -22.8038   10.1093 LP  0  0  0  0  0  0  0  0  0  0  0  0  # atno 4318 bound_to 3762
   -4.9456  -21.9403   11.4604 LP  0  0  0  0  0  0  0  0  0  0  0  0  # atno 4319 bound_to 3762
   -5.4214   -5.0779    8.1402 LP  0  0  0  0  0  0  0  0  0  0  0  0  # atno 4320 bound_to 2467
   -3.8030   -4.8733    8.0664 LP  0  0  0  0  0  0  0  0  0  0  0  0  # atno 4321 bound_to 2467

> <Gold.Score>
     Score     S(PLP)   S(hbond)     S(cho)   S(metal)  DE(clash)   DE(tors)     intcor
     35.44     -29.97       2.00       0.00       0.00       0.00       0.85       1.17

> <Gold.PLP.Fitness>
35.4419

> <Gold.PLP.PLP>
-29.9694

> <Gold.PLP.part.hbond>
-1.0000

> <Gold.PLP.part.metal>
0.0000

> <Gold.PLP.part.buried>
-3.3058

> <Gold.PLP.part.nonpolar>
-26.5193

> <Gold.PLP.part.repulsive>
0.0000

> <Gold.PLP.ligand.clash>
0.0000

> <Gold.PLP.ligand.torsion>
0.8493

> <Gold.PLP.Chemscore.Hbond>
2.0000

> <Gold.PLP.Chemscore.CHOScore>
0.0000

> <Gold.PLP.Chemscore.Metal>
0.0000

> <Gold.Chemscore.Hbonds>
donor molecule, donor type, donor heavy atom, donor atom, acceptor molecule, acceptor atom, score
      L1  H     4    22       P1  1227  2.00

> <Gold.PLP.Chemscore.Internal.Correction>
1.1711

