#       Name:                EN300-1428682_i001
#       Creating user name   fsindt
#       Creation time:       Wed Mar  1 14:23:57 2023


#       File generated by GOLD software.
#

@<TRIPOS>MOLECULE
EN300-1428682_i001|amine_1|mol2|11013|dock20
    23    24     1
SMALL
USER_CHARGES


@<TRIPOS>ATOM
      1 O1           0.2219 -16.5297   8.1543 O.3            1 <1>                0.0000
      2 C2          -0.0187 -15.1218   8.1089 C.3            1 <1>                0.0000
      3 C3          -0.0819 -14.6259   6.6490 C.3            1 <1>                0.0000
      4 N4           0.6006 -13.3199   6.6013 N.4            1 <1>                1.0000
      5 C5           1.0588 -12.9782   7.9648 C.3            1 <1>                0.0000
      6 C6           1.1879 -14.3399   8.6916 C.3            1 <1>                0.0000
      7 C7           1.0502 -14.1683  10.2057 C.3            1 <1>                0.0000
      8 C8          -0.3313 -13.8029  10.7525 C.3            1 <1>                0.0000
      9 C9           0.2265 -15.2120  10.9629 C.3            1 <1>                0.0000
     10 H10         -0.9367 -14.8718   8.6409 H              1 <1>                0.0000
     11 H11          0.4263 -15.3340   5.9944 H              1 <1>                0.0000
     12 H12         -1.1213 -14.5127   6.3405 H              1 <1>                0.0000
     13 H13          2.0254 -12.4758   7.9255 H              1 <1>                0.0000
     14 H14          0.3233 -12.3489   8.4657 H              1 <1>                0.0000
     15 H15          2.1287 -14.8294   8.4397 H              1 <1>                0.0000
     16 H16          1.9191 -13.7484  10.7122 H              1 <1>                0.0000
     17 H17         -0.3711 -13.1427  11.6190 H              1 <1>                0.0000
     18 H18         -1.1420 -13.6846  10.0335 H              1 <1>                0.0000
     19 H19         -0.2173 -16.0207  10.3824 H              1 <1>                0.0000
     20 H20          0.5536 -15.4788  11.9678 H              1 <1>                0.0000
     21 H21          1.0741 -16.7708   8.5422 H              1 <1>                0.0000
     22 H22          1.3938 -13.3737   5.9800 H              1 <1>                0.0000
     23 H23         -0.0402 -12.6137   6.2715 H              1 <1>                0.0000
@<TRIPOS>BOND
    1    1    2 1     
    2    1   21 1     
    3    2    3 1     
    4    2    6 1     
    5    2   10 1     
    6    3    4 1     
    7    3   11 1     
    8    3   12 1     
    9    4    5 1     
   10    4   22 1     
   11    4   23 1     
   12    5    6 1     
   13    5   13 1     
   14    5   14 1     
   15    6    7 1     
   16    6   15 1     
   17    7    8 1     
   18    7    9 1     
   19    7   16 1     
   20    8    9 1     
   21    8   17 1     
   22    8   18 1     
   23    9   19 1     
   24    9   20 1     
@<TRIPOS>SUBSTRUCTURE
      1 ****           1
@<TRIPOS>SET
DONOR_HYDROGENS      STATIC     ATOMS    <user>   **** ""
3 21 22 23
ATOM$RED        STATIC     ATOMS    COLORGROUP SYSTEM
3 21 22 23
@<TRIPOS>COMMENT
> <Gold.Version>
2022.2.0

> <Gold.Id.Protein>
3pbl|protein|mol2

> <Gold.Protein.RotatedTorsions>
[ 1303 1298 1297 1294 ] final  -70.28 input  179.99 | X-H torsion
[ 2461 2456 2455 2452 ] final   15.16 input   30.03 | X-H torsion
[ 2515 2510 2509 2506 ] final  -50.83 input  -89.99 | X-H torsion
[ 3721 3712 3711 3710 ] final  -82.08 input -179.91 | X-H torsion
[ 3841 3832 3831 3830 ] final   -0.95 input -179.91 | X-H torsion
[ 3767 3762 3761 3758 ] final -106.92 input  -89.99 | X-H torsion
[ 2472 2467 2466 2463 ] final -110.38 input  -89.97 | X-H torsion

> <Gold.Protein.ActiveResidues>
 VAL82   VAL86   LEU89   PHE106  VAL107  ASP110  VAL111  MET112  CYS114  THR115 
 CYS181  SER182  ILE183  PHE188  VAL189  ILE190  SER192  SER193  SER196  TRP342 
 PHE345  PHE346  HIS349  VAL350  TYR365  THR369  GLY372  TYR373 

> <Gold.Protein.RotatedAtoms>
    3.5958   -8.8390    3.7920 H   0  0  0  0  0  0  0  0  0  0  0  0  # atno 1303 bound_to 1298
    1.2815   -7.9298    7.0563 H   0  0  0  0  0  0  0  0  0  0  0  0  # atno 2461 bound_to 2456
   -4.3462   -5.4199    9.4150 H   0  0  0  0  0  0  0  0  0  0  0  0  # atno 2472 bound_to 2467
    2.8022   -8.3529    4.3585 H   0  0  0  0  0  0  0  0  0  0  0  0  # atno 2515 bound_to 2510
   -2.9662  -17.0452   14.7254 H   0  0  0  0  0  0  0  0  0  0  0  0  # atno 3721 bound_to 3712
   -5.0238  -21.9237   11.4032 H   0  0  0  0  0  0  0  0  0  0  0  0  # atno 3767 bound_to 3762
    1.7287  -20.4759    9.5538 H   0  0  0  0  0  0  0  0  0  0  0  0  # atno 3841 bound_to 3832
    4.8961   -9.0162    4.7637 LP  0  0  0  0  0  0  0  0  0  0  0  0  # atno 4297 bound_to 1298
    3.8705  -10.2663    4.5361 LP  0  0  0  0  0  0  0  0  0  0  0  0  # atno 4298 bound_to 1298
    0.4361   -9.0549    7.8850 LP  0  0  0  0  0  0  0  0  0  0  0  0  # atno 4299 bound_to 2456
    2.0202   -8.8233    8.2066 LP  0  0  0  0  0  0  0  0  0  0  0  0  # atno 4300 bound_to 2456
    2.3869   -9.1238    5.7366 LP  0  0  0  0  0  0  0  0  0  0  0  0  # atno 4301 bound_to 2510
    2.1074   -7.5225    5.5806 LP  0  0  0  0  0  0  0  0  0  0  0  0  # atno 4302 bound_to 2510
   -3.4569  -16.8507   13.2090 LP  0  0  0  0  0  0  0  0  0  0  0  0  # atno 4306 bound_to 3712
   -2.6462  -18.1967   13.6533 LP  0  0  0  0  0  0  0  0  0  0  0  0  # atno 4307 bound_to 3712
    2.1588  -19.6568    8.2423 LP  0  0  0  0  0  0  0  0  0  0  0  0  # atno 4314 bound_to 3832
    3.0737  -20.8957    8.7852 LP  0  0  0  0  0  0  0  0  0  0  0  0  # atno 4315 bound_to 3832
   -3.9129  -23.0769   11.0822 LP  0  0  0  0  0  0  0  0  0  0  0  0  # atno 4318 bound_to 3762
   -5.1907  -22.8742   10.0858 LP  0  0  0  0  0  0  0  0  0  0  0  0  # atno 4319 bound_to 3762
   -5.4735   -5.1303    8.2696 LP  0  0  0  0  0  0  0  0  0  0  0  0  # atno 4320 bound_to 2467
   -3.8971   -4.8434    7.9547 LP  0  0  0  0  0  0  0  0  0  0  0  0  # atno 4321 bound_to 2467

> <Gold.Score>
     Score     S(PLP)   S(hbond)     S(cho)   S(metal)  DE(clash)   DE(tors)     intcor
     32.53     -29.59       1.00       0.00       0.00       0.00       0.62       1.17

> <Gold.PLP.Fitness>
32.5251

> <Gold.PLP.PLP>
-29.5866

> <Gold.PLP.part.hbond>
-1.0000

> <Gold.PLP.part.metal>
0.0000

> <Gold.PLP.part.buried>
-3.7592

> <Gold.PLP.part.nonpolar>
-24.7132

> <Gold.PLP.part.repulsive>
0.0000

> <Gold.PLP.ligand.clash>
0.0000

> <Gold.PLP.ligand.torsion>
0.6163

> <Gold.PLP.Chemscore.Hbond>
1.0000

> <Gold.PLP.Chemscore.CHOScore>
0.0000

> <Gold.PLP.Chemscore.Metal>
0.0000

> <Gold.Chemscore.Hbonds>
donor molecule, donor type, donor heavy atom, donor atom, acceptor molecule, acceptor atom, score
      L1  H     1    21       P1  1227  1.00

> <Gold.PLP.Chemscore.Internal.Correction>
1.1711

