#       Name:                plp ligand
#       Creating user name   fsindt
#       Creation time:       Wed Mar  1 14:23:52 2023


#       File generated by GOLD software.
#

@<TRIPOS>MOLECULE
plp ligand
    23    24     1
SMALL
USER_CHARGES


@<TRIPOS>ATOM
      1 O1           0.3524   2.1830  -0.3417 DONACC         1 <1>                0.0000
      2 C2           0.6921   0.9625   0.3193 NONPOLAR       1 <1>                0.0000
      3 C3           2.1618   0.5825   0.0418 NONPOLAR       1 <1>                0.0000
      4 N4           2.2074  -0.8794  -0.1444 DONOR          1 <1>                1.0000
      5 C5           0.8418  -1.4188   0.0288 NONPOLAR       1 <1>                0.0000
      6 C6          -0.0970  -0.2278  -0.2869 NONPOLAR       1 <1>                0.0000
      7 C7          -1.4503  -0.3979   0.4062 NONPOLAR       1 <1>                0.0000
      8 C8          -2.4834   0.7155   0.2218 NONPOLAR       1 <1>                0.0000
      9 C9          -2.6746  -0.6297  -0.4817 NONPOLAR       1 <1>                0.0000
     10 H10          0.5106   1.0428   1.3911                1 <1>                0.0000
     11 H11          2.5098   1.0825  -0.8621                1 <1>                0.0000
     12 H12          2.7850   0.8680   0.8894                1 <1>                0.0000
     13 H13          0.6654  -2.2366  -0.6699                1 <1>                0.0000
     14 H14          0.6945  -1.7565   1.0546                1 <1>                0.0000
     15 H15         -0.2236  -0.1049  -1.3625                1 <1>                0.0000
     16 H16         -1.4242  -0.9055   1.3704                1 <1>                0.0000
     17 H17         -3.1372   0.9401   1.0646                1 <1>                0.0000
     18 H18         -2.1989   1.5692  -0.3933                1 <1>                0.0000
     19 H19         -2.5159  -0.6609  -1.5596                1 <1>                0.0000
     20 H20         -3.4541  -1.2900  -0.1017                1 <1>                0.0000
     21 H21          0.8726   2.9450  -0.0524                1 <1>                0.0000
     22 H22          2.5419  -1.0933  -1.0720                1 <1>                0.0000
     23 H23          2.8240  -1.2899   0.5407                1 <1>                0.0000
@<TRIPOS>BOND
    1    1    2 1     
    2    1   21 1     
    3    2    3 1     
    4    2    6 1     
    5    2   10 1     
    6    3    4 1     
    7    3   11 1     
    8    3   12 1     
    9    4    5 1     
   10    4   22 1     
   11    4   23 1     
   12    5    6 1     
   13    5   13 1     
   14    5   14 1     
   15    6    7 1     
   16    6   15 1     
   17    7    8 1     
   18    7    9 1     
   19    7   16 1     
   20    8    9 1     
   21    8   17 1     
   22    8   18 1     
   23    9   19 1     
   24    9   20 1     
@<TRIPOS>SUBSTRUCTURE
      1 ****           1
@<TRIPOS>SET
DONOR_HYDROGENS      STATIC     ATOMS    <user>   **** ""
3 21 22 23
ATOM$RED        STATIC     ATOMS    COLORGROUP SYSTEM
3 21 22 23
