#       Name:                EN300-177026_i002
#       Creating user name   aseyller
#       Creation time:       Fri Apr 21 19:47:45 2023


#       File generated by GOLD software.
#

@<TRIPOS>MOLECULE
EN300-177026_i002|benzaldehydes|mol2|945|dock18
    17    17     1
SMALL
USER_CHARGES


@<TRIPOS>ATOM
      1 C1          26.9204  36.4457  41.0948 C.3            1 <1>                0.0000
      2 C2          26.3970  36.4726  39.6575 C.3            1 <1>                0.0000
      3 O3          25.1866  37.2303  39.6052 O.3            1 <1>                0.0000
      4 C4          27.4268  37.1085  38.7595 C.2            1 <1>                0.0000
      5 N5          28.6685  36.7480  38.6919 N.2            1 <1>                0.0000
      6 C6          29.4418  37.3980  37.8615 C.2            1 <1>                0.0000
      7 C7          28.7998  38.3926  37.1681 C.2            1 <1>                0.0000
      8 C8          29.3830  39.2522  36.2089 C.2            1 <1>                0.0000
      9 O9          30.5755  39.1949  35.9877 O.2            1 <1>                0.0000
     10 S10         27.1149  38.4001  37.6844 S.3            1 <1>                0.0000
     11 H11         27.8438  35.8678  41.1346 H              1 <1>                0.0000
     12 H12         27.1149  37.4646  41.4298 H              1 <1>                0.0000
     13 H13         26.1756  35.9858  41.7442 H              1 <1>                0.0000
     14 H14         26.2026  35.4537  39.3225 H              1 <1>                0.0000
     15 H15         30.4903  37.1728  37.7336 H              1 <1>                0.0000
     16 H16         28.7677  39.9598  35.6731 H              1 <1>                0.0000
     17 H17         24.4035  36.7407  39.8920 H              1 <1>                0.0000
@<TRIPOS>BOND
    1    1    2 1     
    2    1   11 1     
    3    1   12 1     
    4    1   13 1     
    5    2    3 1     
    6    2    4 1     
    7    2   14 1     
    8    3   17 1     
    9    4    5 2     
   10    4   10 1     
   11    5    6 1     
   12    6    7 2     
   13    6   15 1     
   14    7    8 1     
   15    7   10 1     
   16    8    9 2     
   17    8   16 1     
@<TRIPOS>SUBSTRUCTURE
      1 ****           1
@<TRIPOS>SET
DONOR_HYDROGENS      STATIC     ATOMS    <user>   **** ""
1 17
ATOM$RED        STATIC     ATOMS    COLORGROUP SYSTEM
1 17
@<TRIPOS>COMMENT
> <Gold.Version>
2022.2.0

> <Gold.Id.Protein>
1qkm|1qkm_protein|mol2

> <Gold.Protein.RotatedTorsions>
[  496  491  490  487 ] final  118.45 input  -89.99 | X-H torsion

> <Gold.Protein.ActiveResidues>
 MET295  LEU298  THR299  LEU301  ALA302  GLU305  TRP335  MET336  LEU339  MET340 
 GLY342  LEU343  ARG346  PHE356  ILE373  ILE376  PHE377  LEU380  LYS471  GLY472 
 MET473  HIS475  LEU476  LEU477  ASN478  MET479  VAL484  VAL487 

> <Gold.Protein.RotatedAtoms>
   37.0685   32.9413   41.6411 H   0  0  0  0  0  0  0  0  0  0  0  0  # atno 496  bound_to 491 

> <Gold.Score>
     Score     S(PLP)   S(hbond)     S(cho)   S(metal)  DE(clash)   DE(tors)     intcor
     32.55     -29.92       0.96       0.00       0.00       0.00       0.12       0.00

> <Gold.PLP.Fitness>
32.5533

> <Gold.PLP.PLP>
-29.9166

> <Gold.PLP.part.hbond>
-1.0000

> <Gold.PLP.part.metal>
0.0000

> <Gold.PLP.part.buried>
-2.7524

> <Gold.PLP.part.nonpolar>
-26.2560

> <Gold.PLP.part.repulsive>
0.0015

> <Gold.PLP.ligand.clash>
0.0000

> <Gold.PLP.ligand.torsion>
0.1198

> <Gold.PLP.Chemscore.Hbond>
0.9588

> <Gold.PLP.Chemscore.CHOScore>
0.0000

> <Gold.PLP.Chemscore.Metal>
0.0000

> <Gold.Chemscore.Hbonds>
donor molecule, donor type, donor heavy atom, donor atom, acceptor molecule, acceptor atom, score
      L1  H     3    17       P1  1131  0.96

> <Gold.PLP.Chemscore.Internal.Correction>
0.0001

