#       Name:                EN300-177026_i002
#       Creating user name   aseyller
#       Creation time:       Fri Apr 21 19:47:40 2023


#       File generated by GOLD software.
#

@<TRIPOS>MOLECULE
EN300-177026_i002|benzaldehydes|mol2|945|dock10
    17    17     1
SMALL
USER_CHARGES


@<TRIPOS>ATOM
      1 C1          27.1932  35.8086  40.4623 C.3            1 <1>                0.0000
      2 C2          28.5435  36.4313  40.8224 C.3            1 <1>                0.0000
      3 O3          29.2002  35.6157  41.7947 O.3            1 <1>                0.0000
      4 C4          29.3991  36.5256  39.5854 C.2            1 <1>                0.0000
      5 N5          30.5029  35.8743  39.4018 N.2            1 <1>                0.0000
      6 C6          31.1343  36.0620  38.2722 C.2            1 <1>                0.0000
      7 C7          30.5117  36.9470  37.4287 C.2            1 <1>                0.0000
      8 C8          30.9642  37.3391  36.1479 C.2            1 <1>                0.0000
      9 O9          30.3264  38.1429  35.4986 O.2            1 <1>                0.0000
     10 S10         29.0424  37.5014  38.2282 S.3            1 <1>                0.0000
     11 H11         26.6923  36.4307  39.7206 H              1 <1>                0.0000
     12 H12         27.3509  34.8108  40.0527 H              1 <1>                0.0000
     13 H13         26.5744  35.7403  41.3570 H              1 <1>                0.0000
     14 H14         28.3857  37.4291  41.2320 H              1 <1>                0.0000
     15 H15         32.0615  35.5659  38.0257 H              1 <1>                0.0000
     16 H16         31.8769  36.9237  35.7471 H              1 <1>                0.0000
     17 H17         30.1655  35.6604  41.7583 H              1 <1>                0.0000
@<TRIPOS>BOND
    1    1    2 1     
    2    1   11 1     
    3    1   12 1     
    4    1   13 1     
    5    2    3 1     
    6    2    4 1     
    7    2   14 1     
    8    3   17 1     
    9    4    5 2     
   10    4   10 1     
   11    5    6 1     
   12    6    7 2     
   13    6   15 1     
   14    7    8 1     
   15    7   10 1     
   16    8    9 2     
   17    8   16 1     
@<TRIPOS>SUBSTRUCTURE
      1 ****           1
@<TRIPOS>SET
DONOR_HYDROGENS      STATIC     ATOMS    <user>   **** ""
1 17
ATOM$RED        STATIC     ATOMS    COLORGROUP SYSTEM
1 17
@<TRIPOS>COMMENT
> <Gold.Version>
2022.2.0

> <Gold.Id.Protein>
1qkm|1qkm_protein|mol2

> <Gold.Protein.RotatedTorsions>
[  496  491  490  487 ] final   17.16 input  -89.99 | X-H torsion

> <Gold.Protein.ActiveResidues>
 MET295  LEU298  THR299  LEU301  ALA302  GLU305  TRP335  MET336  LEU339  MET340 
 GLY342  LEU343  ARG346  PHE356  ILE373  ILE376  PHE377  LEU380  LYS471  GLY472 
 MET473  HIS475  LEU476  LEU477  ASN478  MET479  VAL484  VAL487 

> <Gold.Protein.RotatedAtoms>
   36.2926   33.9561   42.3450 H   0  0  0  0  0  0  0  0  0  0  0  0  # atno 496  bound_to 491 

> <Gold.Score>
     Score     S(PLP)   S(hbond)     S(cho)   S(metal)  DE(clash)   DE(tors)     intcor
     32.67     -29.78       1.00       0.00       0.00       0.00       0.05       0.00

> <Gold.PLP.Fitness>
32.6716

> <Gold.PLP.PLP>
-29.7792

> <Gold.PLP.part.hbond>
-1.6572

> <Gold.PLP.part.metal>
0.0000

> <Gold.PLP.part.buried>
-4.0824

> <Gold.PLP.part.nonpolar>
-25.3797

> <Gold.PLP.part.repulsive>
0.4721

> <Gold.PLP.ligand.clash>
0.0000

> <Gold.PLP.ligand.torsion>
0.0539

> <Gold.PLP.Chemscore.Hbond>
1.0000

> <Gold.PLP.Chemscore.CHOScore>
0.0000

> <Gold.PLP.Chemscore.Metal>
0.0000

> <Gold.Chemscore.Hbonds>
donor molecule, donor type, donor heavy atom, donor atom, acceptor molecule, acceptor atom, score
      L1  H     3    17       P1   470  1.00

> <Gold.PLP.Chemscore.Internal.Correction>
0.0001

