#       Name:                EN300-177026_i002
#       Creating user name   aseyller
#       Creation time:       Fri Apr 21 19:47:41 2023


#       File generated by GOLD software.
#

@<TRIPOS>MOLECULE
EN300-177026_i002|benzaldehydes|mol2|945|dock11
    17    17     1
SMALL
USER_CHARGES


@<TRIPOS>ATOM
      1 C1          30.7340  36.7946  37.8460 C.3            1 <1>                0.0000
      2 C2          30.1034  35.5553  38.4840 C.3            1 <1>                0.0000
      3 O3          31.0289  34.9681  39.4009 O.3            1 <1>                0.0000
      4 C4          28.8499  35.9520  39.2206 C.2            1 <1>                0.0000
      5 N5          27.7690  36.3853  38.6549 N.2            1 <1>                0.0000
      6 C6          26.7614  36.6897  39.4309 C.2            1 <1>                0.0000
      7 C7          27.0112  36.4974  40.7661 C.2            1 <1>                0.0000
      8 C8          26.1101  36.7414  41.8279 C.2            1 <1>                0.0000
      9 O9          25.0152  37.2136  41.5985 O.2            1 <1>                0.0000
     10 S10         28.6566  35.8847  40.9175 S.3            1 <1>                0.0000
     11 H11         30.0280  37.2425  37.1467 H              1 <1>                0.0000
     12 H12         30.9828  37.5168  38.6236 H              1 <1>                0.0000
     13 H13         31.6406  36.5077  37.3134 H              1 <1>                0.0000
     14 H14         29.8546  34.8330  37.7064 H              1 <1>                0.0000
     15 H15         25.8186  37.0591  39.0550 H              1 <1>                0.0000
     16 H16         26.3957  36.5079  42.8429 H              1 <1>                0.0000
     17 H17         30.8519  35.1793  40.3278 H              1 <1>                0.0000
@<TRIPOS>BOND
    1    1    2 1     
    2    1   11 1     
    3    1   12 1     
    4    1   13 1     
    5    2    3 1     
    6    2    4 1     
    7    2   14 1     
    8    3   17 1     
    9    4    5 2     
   10    4   10 1     
   11    5    6 1     
   12    6    7 2     
   13    6   15 1     
   14    7    8 1     
   15    7   10 1     
   16    8    9 2     
   17    8   16 1     
@<TRIPOS>SUBSTRUCTURE
      1 ****           1
@<TRIPOS>SET
DONOR_HYDROGENS      STATIC     ATOMS    <user>   **** ""
1 17
ATOM$RED        STATIC     ATOMS    COLORGROUP SYSTEM
1 17
@<TRIPOS>COMMENT
> <Gold.Version>
2022.2.0

> <Gold.Id.Protein>
1qkm|1qkm_protein|mol2

> <Gold.Protein.RotatedTorsions>
[  496  491  490  487 ] final   38.28 input  -89.99 | X-H torsion

> <Gold.Protein.ActiveResidues>
 MET295  LEU298  THR299  LEU301  ALA302  GLU305  TRP335  MET336  LEU339  MET340 
 GLY342  LEU343  ARG346  PHE356  ILE373  ILE376  PHE377  LEU380  LYS471  GLY472 
 MET473  HIS475  LEU476  LEU477  ASN478  MET479  VAL484  VAL487 

> <Gold.Protein.RotatedAtoms>
   36.3930   33.6275   42.3816 H   0  0  0  0  0  0  0  0  0  0  0  0  # atno 496  bound_to 491 

> <Gold.Score>
     Score     S(PLP)   S(hbond)     S(cho)   S(metal)  DE(clash)   DE(tors)     intcor
     33.46     -30.41       1.09       0.00       0.00       0.00       0.10       0.00

> <Gold.PLP.Fitness>
33.4625

> <Gold.PLP.PLP>
-30.4132

> <Gold.PLP.part.hbond>
-2.0000

> <Gold.PLP.part.metal>
0.0000

> <Gold.PLP.part.buried>
-1.9023

> <Gold.PLP.part.nonpolar>
-27.9317

> <Gold.PLP.part.repulsive>
0.2421

> <Gold.PLP.ligand.clash>
0.0000

> <Gold.PLP.ligand.torsion>
0.1030

> <Gold.PLP.Chemscore.Hbond>
1.0851

> <Gold.PLP.Chemscore.CHOScore>
0.0000

> <Gold.PLP.Chemscore.Metal>
0.0000

> <Gold.Chemscore.Hbonds>
donor molecule, donor type, donor heavy atom, donor atom, acceptor molecule, acceptor atom, score
      L1  H     3    17       P1   470  0.75
      P1  H  1258  1270       L1     9  0.33

> <Gold.PLP.Chemscore.Internal.Correction>
0.0001

