#       Name:                EN300-177026_i002
#       Creating user name   aseyller
#       Creation time:       Fri Apr 21 19:47:37 2023


#       File generated by GOLD software.
#

@<TRIPOS>MOLECULE
EN300-177026_i002|benzaldehydes|mol2|945|dock4
    17    17     1
SMALL
USER_CHARGES


@<TRIPOS>ATOM
      1 C1          30.8547  34.6388  38.8027 C.3            1 <1>                0.0000
      2 C2          30.4575  36.1160  38.8285 C.3            1 <1>                0.0000
      3 O3          30.2964  36.5895  37.4900 O.3            1 <1>                0.0000
      4 C4          29.1590  36.2741  39.5770 C.2            1 <1>                0.0000
      5 N5          28.9834  35.9626  40.8213 N.2            1 <1>                0.0000
      6 C6          27.7953  36.1588  41.3312 C.2            1 <1>                0.0000
      7 C7          26.8893  36.6806  40.4428 C.2            1 <1>                0.0000
      8 C8          25.5377  36.9934  40.7154 C.2            1 <1>                0.0000
      9 O9          25.0609  36.7314  41.8009 O.2            1 <1>                0.0000
     10 S10         27.7172  36.8965  38.9023 S.3            1 <1>                0.0000
     11 H11         30.9776  34.2776  39.8238 H              1 <1>                0.0000
     12 H12         30.0757  34.0617  38.3045 H              1 <1>                0.0000
     13 H13         31.7938  34.5244  38.2613 H              1 <1>                0.0000
     14 H14         31.2366  36.6931  39.3267 H              1 <1>                0.0000
     15 H15         27.5495  35.9306  42.3578 H              1 <1>                0.0000
     16 H16         24.9293  37.4653  39.9580 H              1 <1>                0.0000
     17 H17         29.3863  36.8249  37.2629 H              1 <1>                0.0000
@<TRIPOS>BOND
    1    1    2 1     
    2    1   11 1     
    3    1   12 1     
    4    1   13 1     
    5    2    3 1     
    6    2    4 1     
    7    2   14 1     
    8    3   17 1     
    9    4    5 2     
   10    4   10 1     
   11    5    6 1     
   12    6    7 2     
   13    6   15 1     
   14    7    8 1     
   15    7   10 1     
   16    8    9 2     
   17    8   16 1     
@<TRIPOS>SUBSTRUCTURE
      1 ****           1
@<TRIPOS>SET
DONOR_HYDROGENS      STATIC     ATOMS    <user>   **** ""
1 17
ATOM$RED        STATIC     ATOMS    COLORGROUP SYSTEM
1 17
@<TRIPOS>COMMENT
> <Gold.Version>
2022.2.0

> <Gold.Id.Protein>
1qkm|1qkm_protein|mol2

> <Gold.Protein.RotatedTorsions>
[  496  491  490  487 ] final -149.98 input  -89.99 | X-H torsion

> <Gold.Protein.ActiveResidues>
 MET295  LEU298  THR299  LEU301  ALA302  GLU305  TRP335  MET336  LEU339  MET340 
 GLY342  LEU343  ARG346  PHE356  ILE373  ILE376  PHE377  LEU380  LYS471  GLY472 
 MET473  HIS475  LEU476  LEU477  ASN478  MET479  VAL484  VAL487 

> <Gold.Protein.RotatedAtoms>
   37.2312   33.9201   40.7228 H   0  0  0  0  0  0  0  0  0  0  0  0  # atno 496  bound_to 491 

> <Gold.Score>
     Score     S(PLP)   S(hbond)     S(cho)   S(metal)  DE(clash)   DE(tors)     intcor
     37.97     -33.35       0.54       1.00       0.00       0.00       0.01       0.00

> <Gold.PLP.Fitness>
37.9675

> <Gold.PLP.PLP>
-33.3512

> <Gold.PLP.part.hbond>
-1.0000

> <Gold.PLP.part.metal>
0.0000

> <Gold.PLP.part.buried>
-4.9236

> <Gold.PLP.part.nonpolar>
-29.1659

> <Gold.PLP.part.repulsive>
0.6057

> <Gold.PLP.ligand.clash>
0.0000

> <Gold.PLP.ligand.torsion>
0.0079

> <Gold.PLP.Chemscore.Hbond>
0.5440

> <Gold.PLP.Chemscore.CHOScore>
1.0000

> <Gold.PLP.Chemscore.Metal>
0.0000

> <Gold.Chemscore.Hbonds>
donor molecule, donor type, donor heavy atom, donor atom, acceptor molecule, acceptor atom, score
      P1  H  1258  1270       L1     9  0.54
      L1  C     6    15       P1   582  1.00

> <Gold.PLP.Chemscore.Internal.Correction>
0.0002

