#       Name:                EN300-177026_i002
#       Creating user name   aseyller
#       Creation time:       Fri Apr 21 19:47:38 2023


#       File generated by GOLD software.
#

@<TRIPOS>MOLECULE
EN300-177026_i002|benzaldehydes|mol2|945|dock6
    17    17     1
SMALL
USER_CHARGES


@<TRIPOS>ATOM
      1 C1          30.6300  34.6011  38.6548 C.3            1 <1>                0.0000
      2 C2          30.4201  36.0389  39.1338 C.3            1 <1>                0.0000
      3 O3          30.8201  36.9469  38.1054 O.3            1 <1>                0.0000
      4 C4          28.9635  36.2539  39.4549 C.2            1 <1>                0.0000
      5 N5          27.9975  36.1519  38.5989 N.2            1 <1>                0.0000
      6 C6          26.7823  36.3682  39.0308 C.2            1 <1>                0.0000
      7 C7          26.7147  36.6795  40.3652 C.2            1 <1>                0.0000
      8 C8          25.5391  36.9609  41.0986 C.2            1 <1>                0.0000
      9 O9          25.6162  37.3080  42.2596 O.2            1 <1>                0.0000
     10 S10         28.3580  36.6586  41.0013 S.3            1 <1>                0.0000
     11 H11         30.3248  33.9086  39.4392 H              1 <1>                0.0000
     12 H12         30.0311  34.4248  37.7613 H              1 <1>                0.0000
     13 H13         31.6835  34.4457  38.4224 H              1 <1>                0.0000
     14 H14         31.0190  36.2153  40.0273 H              1 <1>                0.0000
     15 H15         25.9113  36.3077  38.3950 H              1 <1>                0.0000
     16 H16         24.5724  36.8669  40.6261 H              1 <1>                0.0000
     17 H17         30.8062  36.5656  37.2168 H              1 <1>                0.0000
@<TRIPOS>BOND
    1    1    2 1     
    2    1   11 1     
    3    1   12 1     
    4    1   13 1     
    5    2    3 1     
    6    2    4 1     
    7    2   14 1     
    8    3   17 1     
    9    4    5 2     
   10    4   10 1     
   11    5    6 1     
   12    6    7 2     
   13    6   15 1     
   14    7    8 1     
   15    7   10 1     
   16    8    9 2     
   17    8   16 1     
@<TRIPOS>SUBSTRUCTURE
      1 ****           1
@<TRIPOS>SET
DONOR_HYDROGENS      STATIC     ATOMS    <user>   **** ""
1 17
ATOM$RED        STATIC     ATOMS    COLORGROUP SYSTEM
1 17
@<TRIPOS>COMMENT
> <Gold.Version>
2022.2.0

> <Gold.Id.Protein>
1qkm|1qkm_protein|mol2

> <Gold.Protein.RotatedTorsions>
[  496  491  490  487 ] final  138.34 input  -89.99 | X-H torsion

> <Gold.Protein.ActiveResidues>
 MET295  LEU298  THR299  LEU301  ALA302  GLU305  TRP335  MET336  LEU339  MET340 
 GLY342  LEU343  ARG346  PHE356  ILE373  ILE376  PHE377  LEU380  LYS471  GLY472 
 MET473  HIS475  LEU476  LEU477  ASN478  MET479  VAL484  VAL487 

> <Gold.Protein.RotatedAtoms>
   37.2050   33.0146   41.3545 H   0  0  0  0  0  0  0  0  0  0  0  0  # atno 496  bound_to 491 

> <Gold.Score>
     Score     S(PLP)   S(hbond)     S(cho)   S(metal)  DE(clash)   DE(tors)     intcor
     35.45     -35.31       0.05       0.00       0.00       0.00       0.01       0.00

> <Gold.PLP.Fitness>
35.4518

> <Gold.PLP.PLP>
-35.3107

> <Gold.PLP.part.hbond>
-1.0000

> <Gold.PLP.part.metal>
0.0000

> <Gold.PLP.part.buried>
-4.8292

> <Gold.PLP.part.nonpolar>
-30.6235

> <Gold.PLP.part.repulsive>
0.2632

> <Gold.PLP.ligand.clash>
0.0000

> <Gold.PLP.ligand.torsion>
0.0114

> <Gold.PLP.Chemscore.Hbond>
0.0546

> <Gold.PLP.Chemscore.CHOScore>
0.0000

> <Gold.PLP.Chemscore.Metal>
0.0000

> <Gold.Chemscore.Hbonds>
donor molecule, donor type, donor heavy atom, donor atom, acceptor molecule, acceptor atom, score
      P1  H  1258  1270       L1     9  0.05

> <Gold.PLP.Chemscore.Internal.Correction>
0.0002

