#       Name:                EN300-177026_i002
#       Creating user name   aseyller
#       Creation time:       Fri Apr 21 19:47:47 2023


#       File generated by GOLD software.
#

@<TRIPOS>MOLECULE
EN300-177026_i002|benzaldehydes|mol2|945|dock20
    17    17     1
SMALL
USER_CHARGES


@<TRIPOS>ATOM
      1 C1          25.7943  36.8831  40.8639 C.3            1 <1>                0.0000
      2 C2          27.2366  36.5215  41.2240 C.3            1 <1>                0.0000
      3 O3          27.2933  35.1600  41.6542 O.3            1 <1>                0.0000
      4 C4          28.1171  36.7031  40.0145 C.2            1 <1>                0.0000
      5 N5          29.3975  36.5120  40.0000 N.2            1 <1>                0.0000
      6 C6          30.0252  36.7107  38.8702 C.2            1 <1>                0.0000
      7 C7          29.2062  37.1031  37.8418 C.2            1 <1>                0.0000
      8 C8          29.6079  37.3871  36.5163 C.2            1 <1>                0.0000
      9 O9          30.7863  37.3768  36.2236 O.2            1 <1>                0.0000
     10 S10         27.5619  37.1823  38.4706 S.3            1 <1>                0.0000
     11 H11         25.7511  37.9216  40.5357 H              1 <1>                0.0000
     12 H12         25.4466  36.2335  40.0606 H              1 <1>                0.0000
     13 H13         25.1575  36.7516  41.7387 H              1 <1>                0.0000
     14 H14         27.5843  37.1711  42.0273 H              1 <1>                0.0000
     15 H15         31.0911  36.5784  38.7570 H              1 <1>                0.0000
     16 H16         28.8665  37.6133  35.7642 H              1 <1>                0.0000
     17 H17         26.8654  34.9986  42.5063 H              1 <1>                0.0000
@<TRIPOS>BOND
    1    1    2 1     
    2    1   11 1     
    3    1   12 1     
    4    1   13 1     
    5    2    3 1     
    6    2    4 1     
    7    2   14 1     
    8    3   17 1     
    9    4    5 2     
   10    4   10 1     
   11    5    6 1     
   12    6    7 2     
   13    6   15 1     
   14    7    8 1     
   15    7   10 1     
   16    8    9 2     
   17    8   16 1     
@<TRIPOS>SUBSTRUCTURE
      1 ****           1
@<TRIPOS>SET
DONOR_HYDROGENS      STATIC     ATOMS    <user>   **** ""
1 17
ATOM$RED        STATIC     ATOMS    COLORGROUP SYSTEM
1 17
@<TRIPOS>COMMENT
> <Gold.Version>
2022.2.0

> <Gold.Id.Protein>
1qkm|1qkm_protein|mol2

> <Gold.Protein.RotatedTorsions>
[  496  491  490  487 ] final  154.90 input  -89.99 | X-H torsion

> <Gold.Protein.ActiveResidues>
 MET295  LEU298  THR299  LEU301  ALA302  GLU305  TRP335  MET336  LEU339  MET340 
 GLY342  LEU343  ARG346  PHE356  ILE373  ILE376  PHE377  LEU380  LYS471  GLY472 
 MET473  HIS475  LEU476  LEU477  ASN478  MET479  VAL484  VAL487 

> <Gold.Protein.RotatedAtoms>
   37.2812   33.1511   41.1325 H   0  0  0  0  0  0  0  0  0  0  0  0  # atno 496  bound_to 491 

> <Gold.Score>
     Score     S(PLP)   S(hbond)     S(cho)   S(metal)  DE(clash)   DE(tors)     intcor
     32.76     -29.79       1.00       0.00       0.00       0.00       0.01       0.00

> <Gold.PLP.Fitness>
32.7610

> <Gold.PLP.PLP>
-29.7866

> <Gold.PLP.part.hbond>
-0.9710

> <Gold.PLP.part.metal>
0.0000

> <Gold.PLP.part.buried>
-4.2276

> <Gold.PLP.part.nonpolar>
-25.1467

> <Gold.PLP.part.repulsive>
0.0822

> <Gold.PLP.ligand.clash>
0.0000

> <Gold.PLP.ligand.torsion>
0.0129

> <Gold.PLP.Chemscore.Hbond>
1.0000

> <Gold.PLP.Chemscore.CHOScore>
0.0000

> <Gold.PLP.Chemscore.Metal>
0.0000

> <Gold.Chemscore.Hbonds>
donor molecule, donor type, donor heavy atom, donor atom, acceptor molecule, acceptor atom, score
      L1  H     3    17       P1   582  1.00

> <Gold.PLP.Chemscore.Internal.Correction>
0.0001

