#       Name:                EN300-177026_i002
#       Creating user name   aseyller
#       Creation time:       Fri Apr 21 19:47:39 2023


#       File generated by GOLD software.
#

@<TRIPOS>MOLECULE
EN300-177026_i002|benzaldehydes|mol2|945|dock8
    17    17     1
SMALL
USER_CHARGES


@<TRIPOS>ATOM
      1 C1          27.3540  35.5186  40.5692 C.3            1 <1>                0.0000
      2 C2          28.5949  36.3426  40.9180 C.3            1 <1>                0.0000
      3 O3          29.2051  35.8101  42.0953 O.3            1 <1>                0.0000
      4 C4          29.5745  36.2844  39.7743 C.2            1 <1>                0.0000
      5 N5          30.2062  35.2183  39.3990 N.2            1 <1>                0.0000
      6 C6          31.0258  35.3270  38.3858 C.2            1 <1>                0.0000
      7 C7          31.0930  36.5922  37.8595 C.2            1 <1>                0.0000
      8 C8          31.8910  37.0006  36.7662 C.2            1 <1>                0.0000
      9 O9          32.5141  36.1765  36.1281 O.2            1 <1>                0.0000
     10 S10         29.9992  37.6147  38.7888 S.3            1 <1>                0.0000
     11 H11         26.8886  35.9248  39.6711 H              1 <1>                0.0000
     12 H12         27.6437  34.4829  40.3914 H              1 <1>                0.0000
     13 H13         26.6455  35.5606  41.3964 H              1 <1>                0.0000
     14 H14         28.3051  37.3783  41.0957 H              1 <1>                0.0000
     15 H15         31.5980  34.4967  37.9988 H              1 <1>                0.0000
     16 H16         31.9465  38.0455  36.4986 H              1 <1>                0.0000
     17 H17         30.1590  35.6726  42.0161 H              1 <1>                0.0000
@<TRIPOS>BOND
    1    1    2 1     
    2    1   11 1     
    3    1   12 1     
    4    1   13 1     
    5    2    3 1     
    6    2    4 1     
    7    2   14 1     
    8    3   17 1     
    9    4    5 2     
   10    4   10 1     
   11    5    6 1     
   12    6    7 2     
   13    6   15 1     
   14    7    8 1     
   15    7   10 1     
   16    8    9 2     
   17    8   16 1     
@<TRIPOS>SUBSTRUCTURE
      1 ****           1
@<TRIPOS>SET
DONOR_HYDROGENS      STATIC     ATOMS    <user>   **** ""
1 17
ATOM$RED        STATIC     ATOMS    COLORGROUP SYSTEM
1 17
@<TRIPOS>COMMENT
> <Gold.Version>
2022.2.0

> <Gold.Id.Protein>
1qkm|1qkm_protein|mol2

> <Gold.Protein.RotatedTorsions>
[  496  491  490  487 ] final -157.08 input  -89.99 | X-H torsion

> <Gold.Protein.ActiveResidues>
 MET295  LEU298  THR299  LEU301  ALA302  GLU305  TRP335  MET336  LEU339  MET340 
 GLY342  LEU343  ARG346  PHE356  ILE373  ILE376  PHE377  LEU380  LYS471  GLY472 
 MET473  HIS475  LEU476  LEU477  ASN478  MET479  VAL484  VAL487 

> <Gold.Protein.RotatedAtoms>
   37.2638   33.8089   40.7374 H   0  0  0  0  0  0  0  0  0  0  0  0  # atno 496  bound_to 491 

> <Gold.Score>
     Score     S(PLP)   S(hbond)     S(cho)   S(metal)  DE(clash)   DE(tors)     intcor
     33.93     -31.14       1.00       0.00       0.00       0.00       0.11       0.00

> <Gold.PLP.Fitness>
33.9317

> <Gold.PLP.PLP>
-31.1449

> <Gold.PLP.part.hbond>
-1.6279

> <Gold.PLP.part.metal>
0.0000

> <Gold.PLP.part.buried>
-4.3062

> <Gold.PLP.part.nonpolar>
-25.8755

> <Gold.PLP.part.repulsive>
0.1608

> <Gold.PLP.ligand.clash>
0.0000

> <Gold.PLP.ligand.torsion>
0.1067

> <Gold.PLP.Chemscore.Hbond>
1.0000

> <Gold.PLP.Chemscore.CHOScore>
0.0000

> <Gold.PLP.Chemscore.Metal>
0.0000

> <Gold.Chemscore.Hbonds>
donor molecule, donor type, donor heavy atom, donor atom, acceptor molecule, acceptor atom, score
      L1  H     3    17       P1   470  1.00

> <Gold.PLP.Chemscore.Internal.Correction>
0.0002

