#       Name:                EN300-177026_i002
#       Creating user name   aseyller
#       Creation time:       Fri Apr 21 19:47:39 2023


#       File generated by GOLD software.
#

@<TRIPOS>MOLECULE
EN300-177026_i002|benzaldehydes|mol2|945|dock9
    17    17     1
SMALL
USER_CHARGES


@<TRIPOS>ATOM
      1 C1          28.1821  36.4536  38.8107 C.3            1 <1>                0.0000
      2 C2          29.5440  36.6787  39.4705 C.3            1 <1>                0.0000
      3 O3          29.6881  35.7907  40.5807 O.3            1 <1>                0.0000
      4 C4          30.6378  36.4121  38.4687 C.2            1 <1>                0.0000
      5 N5          31.5385  35.4899  38.5895 N.2            1 <1>                0.0000
      6 C6          32.4239  35.3813  37.6332 C.2            1 <1>                0.0000
      7 C7          32.2579  36.2886  36.6176 C.2            1 <1>                0.0000
      8 C8          33.0626  36.4035  35.4607 C.2            1 <1>                0.0000
      9 O9          32.8338  37.2744  34.6461 O.2            1 <1>                0.0000
     10 S10         30.8560  37.2805  37.0128 S.3            1 <1>                0.0000
     11 H11         28.0722  37.1309  37.9638 H              1 <1>                0.0000
     12 H12         28.1128  35.4228  38.4629 H              1 <1>                0.0000
     13 H13         27.3910  36.6463  39.5353 H              1 <1>                0.0000
     14 H14         29.6132  37.7094  39.8183 H              1 <1>                0.0000
     15 H15         33.2139  34.6449  37.6423 H              1 <1>                0.0000
     16 H16         33.8807  35.7166  35.3016 H              1 <1>                0.0000
     17 H17         30.5939  35.7189  40.9119 H              1 <1>                0.0000
@<TRIPOS>BOND
    1    1    2 1     
    2    1   11 1     
    3    1   12 1     
    4    1   13 1     
    5    2    3 1     
    6    2    4 1     
    7    2   14 1     
    8    3   17 1     
    9    4    5 2     
   10    4   10 1     
   11    5    6 1     
   12    6    7 2     
   13    6   15 1     
   14    7    8 1     
   15    7   10 1     
   16    8    9 2     
   17    8   16 1     
@<TRIPOS>SUBSTRUCTURE
      1 ****           1
@<TRIPOS>SET
DONOR_HYDROGENS      STATIC     ATOMS    <user>   **** ""
1 17
ATOM$RED        STATIC     ATOMS    COLORGROUP SYSTEM
1 17
@<TRIPOS>COMMENT
> <Gold.Version>
2022.2.0

> <Gold.Id.Protein>
1qkm|1qkm_protein|mol2

> <Gold.Protein.RotatedTorsions>
[  496  491  490  487 ] final  -40.43 input  -89.99 | X-H torsion

> <Gold.Protein.ActiveResidues>
 MET295  LEU298  THR299  LEU301  ALA302  GLU305  TRP335  MET336  LEU339  MET340 
 GLY342  LEU343  ARG346  PHE356  ILE373  ILE376  PHE377  LEU380  LYS471  GLY472 
 MET473  HIS475  LEU476  LEU477  ASN478  MET479  VAL484  VAL487 

> <Gold.Protein.RotatedAtoms>
   36.3657   34.6528   41.7662 H   0  0  0  0  0  0  0  0  0  0  0  0  # atno 496  bound_to 491 

> <Gold.Score>
     Score     S(PLP)   S(hbond)     S(cho)   S(metal)  DE(clash)   DE(tors)     intcor
     33.01     -30.02       1.00       0.00       0.00       0.00       0.01       0.00

> <Gold.PLP.Fitness>
33.0050

> <Gold.PLP.PLP>
-30.0197

> <Gold.PLP.part.hbond>
-1.0000

> <Gold.PLP.part.metal>
0.0000

> <Gold.PLP.part.buried>
-4.3240

> <Gold.PLP.part.nonpolar>
-25.0296

> <Gold.PLP.part.repulsive>
0.2411

> <Gold.PLP.ligand.clash>
0.0000

> <Gold.PLP.ligand.torsion>
0.0074

> <Gold.PLP.Chemscore.Hbond>
1.0000

> <Gold.PLP.Chemscore.CHOScore>
0.0000

> <Gold.PLP.Chemscore.Metal>
0.0000

> <Gold.Chemscore.Hbonds>
donor molecule, donor type, donor heavy atom, donor atom, acceptor molecule, acceptor atom, score
      L1  H     3    17       P1   470  1.00

> <Gold.PLP.Chemscore.Internal.Correction>
0.0001

