#       Name:                EN300-177026_i002
#       Creating user name   aseyller
#       Creation time:       Fri Apr 21 19:47:42 2023


#       File generated by GOLD software.
#

@<TRIPOS>MOLECULE
EN300-177026_i002|benzaldehydes|mol2|945|dock14
    17    17     1
SMALL
USER_CHARGES


@<TRIPOS>ATOM
      1 C1          31.2598  36.6056  38.0527 C.3            1 <1>                0.0000
      2 C2          30.5777  35.3256  38.5395 C.3            1 <1>                0.0000
      3 O3          31.4674  34.6081  39.3971 O.3            1 <1>                0.0000
      4 C4          29.3256  35.6812  39.2990 C.2            1 <1>                0.0000
      5 N5          29.0970  35.3627  40.5330 N.2            1 <1>                0.0000
      6 C6          27.9605  35.7448  41.0549 C.2            1 <1>                0.0000
      7 C7          27.1599  36.4458  40.1890 C.2            1 <1>                0.0000
      8 C8          25.8829  36.9791  40.4784 C.2            1 <1>                0.0000
      9 O9          25.2107  37.4615  39.5896 O.2            1 <1>                0.0000
     10 S10         28.0145  36.5671  38.6527 S.3            1 <1>                0.0000
     11 H11         30.5811  37.1529  37.3986 H              1 <1>                0.0000
     12 H12         31.5190  37.2276  38.9095 H              1 <1>                0.0000
     13 H13         32.1655  36.3484  37.5035 H              1 <1>                0.0000
     14 H14         30.3185  34.7036  37.6827 H              1 <1>                0.0000
     15 H15         27.6777  35.5279  42.0744 H              1 <1>                0.0000
     16 H16         25.5053  36.9575  41.4900 H              1 <1>                0.0000
     17 H17         31.3663  34.8206  40.3351 H              1 <1>                0.0000
@<TRIPOS>BOND
    1    1    2 1     
    2    1   11 1     
    3    1   12 1     
    4    1   13 1     
    5    2    3 1     
    6    2    4 1     
    7    2   14 1     
    8    3   17 1     
    9    4    5 2     
   10    4   10 1     
   11    5    6 1     
   12    6    7 2     
   13    6   15 1     
   14    7    8 1     
   15    7   10 1     
   16    8    9 2     
   17    8   16 1     
@<TRIPOS>SUBSTRUCTURE
      1 ****           1
@<TRIPOS>SET
DONOR_HYDROGENS      STATIC     ATOMS    <user>   **** ""
1 17
ATOM$RED        STATIC     ATOMS    COLORGROUP SYSTEM
1 17
@<TRIPOS>COMMENT
> <Gold.Version>
2022.2.0

> <Gold.Id.Protein>
1qkm|1qkm_protein|mol2

> <Gold.Protein.RotatedTorsions>
[  496  491  490  487 ] final -153.37 input  -89.99 | X-H torsion

> <Gold.Protein.ActiveResidues>
 MET295  LEU298  THR299  LEU301  ALA302  GLU305  TRP335  MET336  LEU339  MET340 
 GLY342  LEU343  ARG346  PHE356  ILE373  ILE376  PHE377  LEU380  LYS471  GLY472 
 MET473  HIS475  LEU476  LEU477  ASN478  MET479  VAL484  VAL487 

> <Gold.Protein.RotatedAtoms>
   37.2476   33.8671   40.7282 H   0  0  0  0  0  0  0  0  0  0  0  0  # atno 496  bound_to 491 

> <Gold.Score>
     Score     S(PLP)   S(hbond)     S(cho)   S(metal)  DE(clash)   DE(tors)     intcor
     33.46     -27.51       1.00       0.99       0.00       0.00       0.02       0.00

> <Gold.PLP.Fitness>
33.4567

> <Gold.PLP.PLP>
-27.5131

> <Gold.PLP.part.hbond>
-1.0000

> <Gold.PLP.part.metal>
0.0000

> <Gold.PLP.part.buried>
-1.2585

> <Gold.PLP.part.nonpolar>
-26.2413

> <Gold.PLP.part.repulsive>
0.4280

> <Gold.PLP.ligand.clash>
0.0000

> <Gold.PLP.ligand.torsion>
0.0157

> <Gold.PLP.Chemscore.Hbond>
1.0000

> <Gold.PLP.Chemscore.CHOScore>
0.9916

> <Gold.PLP.Chemscore.Metal>
0.0000

> <Gold.Chemscore.Hbonds>
donor molecule, donor type, donor heavy atom, donor atom, acceptor molecule, acceptor atom, score
      L1  H     3    17       P1   470  1.00
      L1  C     6    15       P1   582  0.99

> <Gold.PLP.Chemscore.Internal.Correction>
0.0001

