#       Name:                EN300-177026_i002
#       Creating user name   aseyller
#       Creation time:       Fri Apr 21 19:47:38 2023


#       File generated by GOLD software.
#

@<TRIPOS>MOLECULE
EN300-177026_i002|benzaldehydes|mol2|945|dock7
    17    17     1
SMALL
USER_CHARGES


@<TRIPOS>ATOM
      1 C1          28.8003  36.4769  42.1013 C.3            1 <1>                0.0000
      2 C2          28.1428  35.7111  40.9516 C.3            1 <1>                0.0000
      3 O3          26.7609  35.5004  41.2483 O.3            1 <1>                0.0000
      4 C4          28.2673  36.5099  39.6798 C.2            1 <1>                0.0000
      5 N5          27.2697  36.8831  38.9437 N.2            1 <1>                0.0000
      6 C6          27.5391  37.5739  37.8665 C.2            1 <1>                0.0000
      7 C7          28.8779  37.8045  37.6753 C.2            1 <1>                0.0000
      8 C8          29.4572  38.5191  36.6017 C.2            1 <1>                0.0000
      9 O9          30.6628  38.5247  36.4564 O.2            1 <1>                0.0000
     10 S10         29.7443  37.0545  39.0141 S.3            1 <1>                0.0000
     11 H11         29.8544  36.6377  41.8750 H              1 <1>                0.0000
     12 H12         28.3048  37.4396  42.2270 H              1 <1>                0.0000
     13 H13         28.7102  35.8992  43.0212 H              1 <1>                0.0000
     14 H14         28.6383  34.7484  40.8259 H              1 <1>                0.0000
     15 H15         26.7772  37.9301  37.1889 H              1 <1>                0.0000
     16 H16         28.8275  39.0600  35.9108 H              1 <1>                0.0000
     17 H17         26.5953  35.1856  42.1476 H              1 <1>                0.0000
@<TRIPOS>BOND
    1    1    2 1     
    2    1   11 1     
    3    1   12 1     
    4    1   13 1     
    5    2    3 1     
    6    2    4 1     
    7    2   14 1     
    8    3   17 1     
    9    4    5 2     
   10    4   10 1     
   11    5    6 1     
   12    6    7 2     
   13    6   15 1     
   14    7    8 1     
   15    7   10 1     
   16    8    9 2     
   17    8   16 1     
@<TRIPOS>SUBSTRUCTURE
      1 ****           1
@<TRIPOS>SET
DONOR_HYDROGENS      STATIC     ATOMS    <user>   **** ""
1 17
ATOM$RED        STATIC     ATOMS    COLORGROUP SYSTEM
1 17
@<TRIPOS>COMMENT
> <Gold.Version>
2022.2.0

> <Gold.Id.Protein>
1qkm|1qkm_protein|mol2

> <Gold.Protein.RotatedTorsions>
[  496  491  490  487 ] final  -19.11 input  -89.99 | X-H torsion

> <Gold.Protein.ActiveResidues>
 MET295  LEU298  THR299  LEU301  ALA302  GLU305  TRP335  MET336  LEU339  MET340 
 GLY342  LEU343  ARG346  PHE356  ILE373  ILE376  PHE377  LEU380  LYS471  GLY472 
 MET473  HIS475  LEU476  LEU477  ASN478  MET479  VAL484  VAL487 

> <Gold.Protein.RotatedAtoms>
   36.2786   34.4600   42.0436 H   0  0  0  0  0  0  0  0  0  0  0  0  # atno 496  bound_to 491 

> <Gold.Score>
     Score     S(PLP)   S(hbond)     S(cho)   S(metal)  DE(clash)   DE(tors)     intcor
     33.83     -30.91       1.00       0.00       0.00       0.00       0.04       0.00

> <Gold.PLP.Fitness>
33.8289

> <Gold.PLP.PLP>
-30.9083

> <Gold.PLP.part.hbond>
-1.0000

> <Gold.PLP.part.metal>
0.0000

> <Gold.PLP.part.buried>
-3.5239

> <Gold.PLP.part.nonpolar>
-26.2565

> <Gold.PLP.part.repulsive>
0.0020

> <Gold.PLP.ligand.clash>
0.0000

> <Gold.PLP.ligand.torsion>
0.0398

> <Gold.PLP.Chemscore.Hbond>
1.0000

> <Gold.PLP.Chemscore.CHOScore>
0.0000

> <Gold.PLP.Chemscore.Metal>
0.0000

> <Gold.Chemscore.Hbonds>
donor molecule, donor type, donor heavy atom, donor atom, acceptor molecule, acceptor atom, score
      L1  H     3    17       P1   582  1.00

> <Gold.PLP.Chemscore.Internal.Correction>
0.0002

