#       Name:                EN300-177026_i002
#       Creating user name   aseyller
#       Creation time:       Fri Apr 21 19:47:44 2023


#       File generated by GOLD software.
#

@<TRIPOS>MOLECULE
EN300-177026_i002|benzaldehydes|mol2|945|dock17
    17    17     1
SMALL
USER_CHARGES


@<TRIPOS>ATOM
      1 C1          26.1616  37.2823  41.8948 C.3            1 <1>                0.0000
      2 C2          26.1051  36.6054  40.5239 C.3            1 <1>                0.0000
      3 O3          25.1790  37.3009  39.6869 O.3            1 <1>                0.0000
      4 C4          27.4731  36.6349  39.8923 C.2            1 <1>                0.0000
      5 N5          28.5453  36.1525  40.4344 N.2            1 <1>                0.0000
      6 C6          29.6612  36.2536  39.7600 C.2            1 <1>                0.0000
      7 C7          29.5208  36.8740  38.5445 C.2            1 <1>                0.0000
      8 C8          30.5515  37.1198  37.6084 C.2            1 <1>                0.0000
      9 O9          30.3168  37.7531  36.5993 O.2            1 <1>                0.0000
     10 S10         27.8218  37.3031  38.3582 S.3            1 <1>                0.0000
     11 H11         26.8680  36.7518  42.5332 H              1 <1>                0.0000
     12 H12         26.4848  38.3165  41.7764 H              1 <1>                0.0000
     13 H13         25.1721  37.2610  42.3516 H              1 <1>                0.0000
     14 H14         25.7819  35.5712  40.6424 H              1 <1>                0.0000
     15 H15         30.6070  35.8828  40.1266 H              1 <1>                0.0000
     16 H16         31.5475  36.7442  37.7909 H              1 <1>                0.0000
     17 H17         24.3049  36.8898  39.6410 H              1 <1>                0.0000
@<TRIPOS>BOND
    1    1    2 1     
    2    1   11 1     
    3    1   12 1     
    4    1   13 1     
    5    2    3 1     
    6    2    4 1     
    7    2   14 1     
    8    3   17 1     
    9    4    5 2     
   10    4   10 1     
   11    5    6 1     
   12    6    7 2     
   13    6   15 1     
   14    7    8 1     
   15    7   10 1     
   16    8    9 2     
   17    8   16 1     
@<TRIPOS>SUBSTRUCTURE
      1 ****           1
@<TRIPOS>SET
DONOR_HYDROGENS      STATIC     ATOMS    <user>   **** ""
1 17
ATOM$RED        STATIC     ATOMS    COLORGROUP SYSTEM
1 17
@<TRIPOS>COMMENT
> <Gold.Version>
2022.2.0

> <Gold.Id.Protein>
1qkm|1qkm_protein|mol2

> <Gold.Protein.RotatedTorsions>
[  496  491  490  487 ] final -140.30 input  -89.99 | X-H torsion

> <Gold.Protein.ActiveResidues>
 MET295  LEU298  THR299  LEU301  ALA302  GLU305  TRP335  MET336  LEU339  MET340 
 GLY342  LEU343  ARG346  PHE356  ILE373  ILE376  PHE377  LEU380  LYS471  GLY472 
 MET473  HIS475  LEU476  LEU477  ASN478  MET479  VAL484  VAL487 

> <Gold.Protein.RotatedAtoms>
   37.1758   34.0693   40.7234 H   0  0  0  0  0  0  0  0  0  0  0  0  # atno 496  bound_to 491 

> <Gold.Score>
     Score     S(PLP)   S(hbond)     S(cho)   S(metal)  DE(clash)   DE(tors)     intcor
     34.72     -28.93       0.95       1.00       0.00       0.00       0.03       0.00

> <Gold.PLP.Fitness>
34.7150

> <Gold.PLP.PLP>
-28.9341

> <Gold.PLP.part.hbond>
-1.0000

> <Gold.PLP.part.metal>
0.0000

> <Gold.PLP.part.buried>
-2.5691

> <Gold.PLP.part.nonpolar>
-25.2806

> <Gold.PLP.part.repulsive>
0.0889

> <Gold.PLP.ligand.clash>
0.0000

> <Gold.PLP.ligand.torsion>
0.0346

> <Gold.PLP.Chemscore.Hbond>
0.9500

> <Gold.PLP.Chemscore.CHOScore>
1.0000

> <Gold.PLP.Chemscore.Metal>
0.0000

> <Gold.Chemscore.Hbonds>
donor molecule, donor type, donor heavy atom, donor atom, acceptor molecule, acceptor atom, score
      L1  H     3    17       P1  1131  0.95
      L1  C     6    15       P1   470  1.00

> <Gold.PLP.Chemscore.Internal.Correction>
0.0001

