#       Name:                EN300-177026_i002
#       Creating user name   aseyller
#       Creation time:       Fri Apr 21 19:47:42 2023


#       File generated by GOLD software.
#

@<TRIPOS>MOLECULE
EN300-177026_i002|benzaldehydes|mol2|945|dock13
    17    17     1
SMALL
USER_CHARGES


@<TRIPOS>ATOM
      1 C1          26.0342  37.0002  41.3925 C.3            1 <1>                0.0000
      2 C2          26.1539  36.5831  39.9255 C.3            1 <1>                0.0000
      3 O3          25.4915  37.5442  39.1012 O.3            1 <1>                0.0000
      4 C4          27.6092  36.5097  39.5411 C.2            1 <1>                0.0000
      5 N5          28.4959  35.7875  40.1480 N.2            1 <1>                0.0000
      6 C6          29.7219  35.8290  39.6950 C.2            1 <1>                0.0000
      7 C7          29.8861  36.6566  38.6131 C.2            1 <1>                0.0000
      8 C8          31.0952  36.8955  37.9204 C.2            1 <1>                0.0000
      9 O9          32.0030  36.0919  37.9886 O.2            1 <1>                0.0000
     10 S10         28.3154  37.3626  38.2390 S.3            1 <1>                0.0000
     11 H11         26.5395  36.2670  42.0212 H              1 <1>                0.0000
     12 H12         26.4963  37.9777  41.5312 H              1 <1>                0.0000
     13 H13         24.9816  37.0533  41.6705 H              1 <1>                0.0000
     14 H14         25.6918  35.6056  39.7868 H              1 <1>                0.0000
     15 H15         30.5315  35.2638  40.1327 H              1 <1>                0.0000
     16 H16         31.2115  37.7928  37.3306 H              1 <1>                0.0000
     17 H17         26.0423  37.8984  38.3897 H              1 <1>                0.0000
@<TRIPOS>BOND
    1    1    2 1     
    2    1   11 1     
    3    1   12 1     
    4    1   13 1     
    5    2    3 1     
    6    2    4 1     
    7    2   14 1     
    8    3   17 1     
    9    4    5 2     
   10    4   10 1     
   11    5    6 1     
   12    6    7 2     
   13    6   15 1     
   14    7    8 1     
   15    7   10 1     
   16    8    9 2     
   17    8   16 1     
@<TRIPOS>SUBSTRUCTURE
      1 ****           1
@<TRIPOS>SET
DONOR_HYDROGENS      STATIC     ATOMS    <user>   **** ""
1 17
ATOM$RED        STATIC     ATOMS    COLORGROUP SYSTEM
1 17
@<TRIPOS>COMMENT
> <Gold.Version>
2022.2.0

> <Gold.Id.Protein>
1qkm|1qkm_protein|mol2

> <Gold.Protein.RotatedTorsions>
[  496  491  490  487 ] final  -58.85 input  -89.99 | X-H torsion

> <Gold.Protein.ActiveResidues>
 MET295  LEU298  THR299  LEU301  ALA302  GLU305  TRP335  MET336  LEU339  MET340 
 GLY342  LEU343  ARG346  PHE356  ILE373  ILE376  PHE377  LEU380  LYS471  GLY472 
 MET473  HIS475  LEU476  LEU477  ASN478  MET479  VAL484  VAL487 

> <Gold.Protein.RotatedAtoms>
   36.4882   34.7302   41.5013 H   0  0  0  0  0  0  0  0  0  0  0  0  # atno 496  bound_to 491 

> <Gold.Score>
     Score     S(PLP)   S(hbond)     S(cho)   S(metal)  DE(clash)   DE(tors)     intcor
     33.65     -30.93       0.00       1.00       0.00       0.00       0.14       0.00

> <Gold.PLP.Fitness>
33.6509

> <Gold.PLP.PLP>
-30.9269

> <Gold.PLP.part.hbond>
0.0000

> <Gold.PLP.part.metal>
0.0000

> <Gold.PLP.part.buried>
-3.5292

> <Gold.PLP.part.nonpolar>
-27.3018

> <Gold.PLP.part.repulsive>
0.1208

> <Gold.PLP.ligand.clash>
0.0000

> <Gold.PLP.ligand.torsion>
0.1381

> <Gold.PLP.Chemscore.Hbond>
0.0000

> <Gold.PLP.Chemscore.CHOScore>
1.0000

> <Gold.PLP.Chemscore.Metal>
0.0000

> <Gold.Chemscore.Hbonds>
donor molecule, donor type, donor heavy atom, donor atom, acceptor molecule, acceptor atom, score
      L1  C     6    15       P1   470  1.00

> <Gold.PLP.Chemscore.Internal.Correction>
0.0001

