#       Name:                EN300-177026_i002
#       Creating user name   aseyller
#       Creation time:       Fri Apr 21 19:47:35 2023


#       File generated by GOLD software.
#

@<TRIPOS>MOLECULE
EN300-177026_i002|benzaldehydes|mol2|945|dock1
    17    17     1
SMALL
USER_CHARGES


@<TRIPOS>ATOM
      1 C1          30.4070  36.3722  37.5658 C.3            1 <1>                0.0000
      2 C2          30.0529  35.2815  38.5784 C.3            1 <1>                0.0000
      3 O3          31.1942  34.9954  39.3893 O.3            1 <1>                0.0000
      4 C4          28.9214  35.7563  39.4534 C.2            1 <1>                0.0000
      5 N5          29.0005  35.9209  40.7351 N.2            1 <1>                0.0000
      6 C6          27.9297  36.3406  41.3575 C.2            1 <1>                0.0000
      7 C7          26.8537  36.5487  40.5321 C.2            1 <1>                0.0000
      8 C8          25.5731  36.9992  40.9270 C.2            1 <1>                0.0000
      9 O9          25.3465  37.2351  42.0964 O.2            1 <1>                0.0000
     10 S10         27.3590  36.1592  38.8894 S.3            1 <1>                0.0000
     11 H11         29.5363  36.5904  36.9473 H              1 <1>                0.0000
     12 H12         30.7116  37.2748  38.0956 H              1 <1>                0.0000
     13 H13         31.2254  36.0288  36.9330 H              1 <1>                0.0000
     14 H14         29.7482  34.3789  38.0486 H              1 <1>                0.0000
     15 H15         27.8953  36.5078  42.4239 H              1 <1>                0.0000
     16 H16         24.7965  37.1335  40.1886 H              1 <1>                0.0000
     17 H17         31.0421  35.1109  40.3373 H              1 <1>                0.0000
@<TRIPOS>BOND
    1    1    2 1     
    2    1   11 1     
    3    1   12 1     
    4    1   13 1     
    5    2    3 1     
    6    2    4 1     
    7    2   14 1     
    8    3   17 1     
    9    4    5 2     
   10    4   10 1     
   11    5    6 1     
   12    6    7 2     
   13    6   15 1     
   14    7    8 1     
   15    7   10 1     
   16    8    9 2     
   17    8   16 1     
@<TRIPOS>SUBSTRUCTURE
      1 ****           1
@<TRIPOS>SET
DONOR_HYDROGENS      STATIC     ATOMS    <user>   **** ""
1 17
ATOM$RED        STATIC     ATOMS    COLORGROUP SYSTEM
1 17
@<TRIPOS>COMMENT
> <Gold.Version>
2022.2.0

> <Gold.Id.Protein>
1qkm|1qkm_protein|mol2

> <Gold.Protein.RotatedTorsions>
[  496  491  490  487 ] final  164.03 input  -89.99 | X-H torsion

> <Gold.Protein.ActiveResidues>
 MET295  LEU298  THR299  LEU301  ALA302  GLU305  TRP335  MET336  LEU339  MET340 
 GLY342  LEU343  ARG346  PHE356  ILE373  ILE376  PHE377  LEU380  LYS471  GLY472 
 MET473  HIS475  LEU476  LEU477  ASN478  MET479  VAL484  VAL487 

> <Gold.Protein.RotatedAtoms>
   37.3061   33.2518   41.0238 H   0  0  0  0  0  0  0  0  0  0  0  0  # atno 496  bound_to 491 

> <Gold.Score>
     Score     S(PLP)   S(hbond)     S(cho)   S(metal)  DE(clash)   DE(tors)     intcor
     35.62     -32.32       1.10       0.00       0.00       0.00       0.01       0.00

> <Gold.PLP.Fitness>
35.6152

> <Gold.PLP.PLP>
-32.3225

> <Gold.PLP.part.hbond>
-1.9858

> <Gold.PLP.part.metal>
0.0000

> <Gold.PLP.part.buried>
-4.4249

> <Gold.PLP.part.nonpolar>
-27.0489

> <Gold.PLP.part.repulsive>
0.3929

> <Gold.PLP.ligand.clash>
0.0000

> <Gold.PLP.ligand.torsion>
0.0097

> <Gold.PLP.Chemscore.Hbond>
1.1040

> <Gold.PLP.Chemscore.CHOScore>
0.0000

> <Gold.PLP.Chemscore.Metal>
0.0000

> <Gold.Chemscore.Hbonds>
donor molecule, donor type, donor heavy atom, donor atom, acceptor molecule, acceptor atom, score
      L1  H     3    17       P1   470  0.91
      P1  H  1258  1270       L1     9  0.19

> <Gold.PLP.Chemscore.Internal.Correction>
0.0002

