#       Name:                EN300-177026_i002
#       Creating user name   aseyller
#       Creation time:       Fri Apr 21 19:47:41 2023


#       File generated by GOLD software.
#

@<TRIPOS>MOLECULE
EN300-177026_i002|benzaldehydes|mol2|945|dock12
    17    17     1
SMALL
USER_CHARGES


@<TRIPOS>ATOM
      1 C1          31.4023  33.9901  38.5063 C.3            1 <1>                0.0000
      2 C2          31.5069  35.4880  38.7991 C.3            1 <1>                0.0000
      3 O3          32.4399  36.0859  37.8969 O.3            1 <1>                0.0000
      4 C4          30.1551  36.1302  38.6222 C.2            1 <1>                0.0000
      5 N5          29.8942  37.0777  37.7793 N.2            1 <1>                0.0000
      6 C6          28.6690  37.5331  37.7425 C.2            1 <1>                0.0000
      7 C7          27.8216  36.9186  38.6293 C.2            1 <1>                0.0000
      8 C8          26.4486  37.2050  38.8078 C.2            1 <1>                0.0000
      9 O9          25.8433  36.7190  39.7415 O.2            1 <1>                0.0000
     10 S10         28.7528  35.7028  39.5012 S.3            1 <1>                0.0000
     11 H11         30.6906  33.5340  39.1944 H              1 <1>                0.0000
     12 H12         31.0618  33.8431  37.4813 H              1 <1>                0.0000
     13 H13         32.3801  33.5257  38.6342 H              1 <1>                0.0000
     14 H14         31.8475  35.6350  39.8241 H              1 <1>                0.0000
     15 H15         28.3529  38.3212  37.0751 H              1 <1>                0.0000
     16 H16         25.9381  37.8560  38.1135 H              1 <1>                0.0000
     17 H17         32.8084  36.9234  38.2101 H              1 <1>                0.0000
@<TRIPOS>BOND
    1    1    2 1     
    2    1   11 1     
    3    1   12 1     
    4    1   13 1     
    5    2    3 1     
    6    2    4 1     
    7    2   14 1     
    8    3   17 1     
    9    4    5 2     
   10    4   10 1     
   11    5    6 1     
   12    6    7 2     
   13    6   15 1     
   14    7    8 1     
   15    7   10 1     
   16    8    9 2     
   17    8   16 1     
@<TRIPOS>SUBSTRUCTURE
      1 ****           1
@<TRIPOS>SET
DONOR_HYDROGENS      STATIC     ATOMS    <user>   **** ""
1 17
ATOM$RED        STATIC     ATOMS    COLORGROUP SYSTEM
1 17
@<TRIPOS>COMMENT
> <Gold.Version>
2022.2.0

> <Gold.Id.Protein>
1qkm|1qkm_protein|mol2

> <Gold.Protein.RotatedTorsions>
[  496  491  490  487 ] final  -79.77 input  -89.99 | X-H torsion

> <Gold.Protein.ActiveResidues>
 MET295  LEU298  THR299  LEU301  ALA302  GLU305  TRP335  MET336  LEU339  MET340 
 GLY342  LEU343  ARG346  PHE356  ILE373  ILE376  PHE377  LEU380  LYS471  GLY472 
 MET473  HIS475  LEU476  LEU477  ASN478  MET479  VAL484  VAL487 

> <Gold.Protein.RotatedAtoms>
   36.6638   34.7071   41.2083 H   0  0  0  0  0  0  0  0  0  0  0  0  # atno 496  bound_to 491 

> <Gold.Score>
     Score     S(PLP)   S(hbond)     S(cho)   S(metal)  DE(clash)   DE(tors)     intcor
     31.44     -31.48       0.00       0.00       0.00       0.00       0.02       0.00

> <Gold.PLP.Fitness>
31.4368

> <Gold.PLP.PLP>
-31.4796

> <Gold.PLP.part.hbond>
0.0000

> <Gold.PLP.part.metal>
0.0000

> <Gold.PLP.part.buried>
-3.8225

> <Gold.PLP.part.nonpolar>
-27.6678

> <Gold.PLP.part.repulsive>
0.1041

> <Gold.PLP.ligand.clash>
0.0000

> <Gold.PLP.ligand.torsion>
0.0214

> <Gold.PLP.Chemscore.Hbond>
0.0000

> <Gold.PLP.Chemscore.CHOScore>
0.0000

> <Gold.PLP.Chemscore.Metal>
0.0000

> <Gold.PLP.Chemscore.Internal.Correction>
0.0001

