#       Name:                EN300-177026_i002
#       Creating user name   aseyller
#       Creation time:       Fri Apr 21 19:47:36 2023


#       File generated by GOLD software.
#

@<TRIPOS>MOLECULE
EN300-177026_i002|benzaldehydes|mol2|945|dock3
    17    17     1
SMALL
USER_CHARGES


@<TRIPOS>ATOM
      1 C1          27.4609  35.5021  40.6426 C.3            1 <1>                0.0000
      2 C2          28.6725  36.3758  40.9729 C.3            1 <1>                0.0000
      3 O3          29.3903  35.8013  42.0668 O.3            1 <1>                0.0000
      4 C4          29.5748  36.4595  39.7687 C.2            1 <1>                0.0000
      5 N5          29.7832  37.5343  39.0776 N.2            1 <1>                0.0000
      6 C6          30.5961  37.4481  38.0569 C.2            1 <1>                0.0000
      7 C7          31.1197  36.1940  37.8688 C.2            1 <1>                0.0000
      8 C8          32.0213  35.8098  36.8498 C.2            1 <1>                0.0000
      9 O9          32.4575  36.6413  36.0799 O.2            1 <1>                0.0000
     10 S10         30.4702  35.1504  39.1315 S.3            1 <1>                0.0000
     11 H11         26.9134  35.9403  39.8081 H              1 <1>                0.0000
     12 H12         27.7976  34.5016  40.3708 H              1 <1>                0.0000
     13 H13         26.8083  35.4415  41.5136 H              1 <1>                0.0000
     14 H14         28.3358  37.3762  41.2447 H              1 <1>                0.0000
     15 H15         30.8334  38.2874  37.4199 H              1 <1>                0.0000
     16 H16         32.3220  34.7767  36.7561 H              1 <1>                0.0000
     17 H17         30.3434  35.7320  41.9188 H              1 <1>                0.0000
@<TRIPOS>BOND
    1    1    2 1     
    2    1   11 1     
    3    1   12 1     
    4    1   13 1     
    5    2    3 1     
    6    2    4 1     
    7    2   14 1     
    8    3   17 1     
    9    4    5 2     
   10    4   10 1     
   11    5    6 1     
   12    6    7 2     
   13    6   15 1     
   14    7    8 1     
   15    7   10 1     
   16    8    9 2     
   17    8   16 1     
@<TRIPOS>SUBSTRUCTURE
      1 ****           1
@<TRIPOS>SET
DONOR_HYDROGENS      STATIC     ATOMS    <user>   **** ""
1 17
ATOM$RED        STATIC     ATOMS    COLORGROUP SYSTEM
1 17
@<TRIPOS>COMMENT
> <Gold.Version>
2022.2.0

> <Gold.Id.Protein>
1qkm|1qkm_protein|mol2

> <Gold.Protein.RotatedTorsions>
[  496  491  490  487 ] final   18.59 input  -89.99 | X-H torsion

> <Gold.Protein.ActiveResidues>
 MET295  LEU298  THR299  LEU301  ALA302  GLU305  TRP335  MET336  LEU339  MET340 
 GLY342  LEU343  ARG346  PHE356  ILE373  ILE376  PHE377  LEU380  LYS471  GLY472 
 MET473  HIS475  LEU476  LEU477  ASN478  MET479  VAL484  VAL487 

> <Gold.Protein.RotatedAtoms>
   36.2973   33.9340   42.3510 H   0  0  0  0  0  0  0  0  0  0  0  0  # atno 496  bound_to 491 

> <Gold.Score>
     Score     S(PLP)   S(hbond)     S(cho)   S(metal)  DE(clash)   DE(tors)     intcor
     34.56     -31.79       1.00       0.00       0.00       0.00       0.12       0.00

> <Gold.PLP.Fitness>
34.5558

> <Gold.PLP.PLP>
-31.7898

> <Gold.PLP.part.hbond>
-1.7147

> <Gold.PLP.part.metal>
0.0000

> <Gold.PLP.part.buried>
-3.5561

> <Gold.PLP.part.nonpolar>
-26.8730

> <Gold.PLP.part.repulsive>
0.0687

> <Gold.PLP.ligand.clash>
0.0000

> <Gold.PLP.ligand.torsion>
0.1171

> <Gold.PLP.Chemscore.Hbond>
1.0000

> <Gold.PLP.Chemscore.CHOScore>
0.0000

> <Gold.PLP.Chemscore.Metal>
0.0000

> <Gold.Chemscore.Hbonds>
donor molecule, donor type, donor heavy atom, donor atom, acceptor molecule, acceptor atom, score
      L1  H     3    17       P1   470  1.00

> <Gold.PLP.Chemscore.Internal.Correction>
0.0002

