#       Name:                EN300-177026_i002
#       Creating user name   aseyller
#       Creation time:       Fri Apr 21 19:47:35 2023


#       File generated by GOLD software.
#

@<TRIPOS>MOLECULE
EN300-177026_i002|benzaldehydes|mol2|945|dock2
    17    17     1
SMALL
USER_CHARGES


@<TRIPOS>ATOM
      1 C1          25.5062  37.4734  39.6284 C.3            1 <1>                0.0000
      2 C2          26.4949  36.9409  40.6673 C.3            1 <1>                0.0000
      3 O3          26.0067  35.7090  41.2022 O.3            1 <1>                0.0000
      4 C4          27.8335  36.7097  40.0147 C.2            1 <1>                0.0000
      5 N5          28.8225  36.0809  40.5650 N.2            1 <1>                0.0000
      6 C6          29.9235  35.9604  39.8698 C.2            1 <1>                0.0000
      7 C7          29.8604  36.5360  38.6260 C.2            1 <1>                0.0000
      8 C8          30.8955  36.5597  37.6632 C.2            1 <1>                0.0000
      9 O9          31.9692  36.0509  37.9136 O.2            1 <1>                0.0000
     10 S10         28.2530  37.2348  38.4432 S.3            1 <1>                0.0000
     11 H11         25.8786  38.4131  39.2204 H              1 <1>                0.0000
     12 H12         25.3973  36.7459  38.8240 H              1 <1>                0.0000
     13 H13         24.5380  37.6406  40.1004 H              1 <1>                0.0000
     14 H14         26.6038  37.6684  41.4717 H              1 <1>                0.0000
     15 H15         30.8025  35.4543  40.2408 H              1 <1>                0.0000
     16 H16         30.7312  37.0303  36.7052 H              1 <1>                0.0000
     17 H17         26.2268  35.5699  42.1335 H              1 <1>                0.0000
@<TRIPOS>BOND
    1    1    2 1     
    2    1   11 1     
    3    1   12 1     
    4    1   13 1     
    5    2    3 1     
    6    2    4 1     
    7    2   14 1     
    8    3   17 1     
    9    4    5 2     
   10    4   10 1     
   11    5    6 1     
   12    6    7 2     
   13    6   15 1     
   14    7    8 1     
   15    7   10 1     
   16    8    9 2     
   17    8   16 1     
@<TRIPOS>SUBSTRUCTURE
      1 ****           1
@<TRIPOS>SET
DONOR_HYDROGENS      STATIC     ATOMS    <user>   **** ""
1 17
ATOM$RED        STATIC     ATOMS    COLORGROUP SYSTEM
1 17
@<TRIPOS>COMMENT
> <Gold.Version>
2022.2.0

> <Gold.Id.Protein>
1qkm|1qkm_protein|mol2

> <Gold.Protein.RotatedTorsions>
[  496  491  490  487 ] final  -55.65 input  -89.99 | X-H torsion

> <Gold.Protein.ActiveResidues>
 MET295  LEU298  THR299  LEU301  ALA302  GLU305  TRP335  MET336  LEU339  MET340 
 GLY342  LEU343  ARG346  PHE356  ILE373  ILE376  PHE377  LEU380  LYS471  GLY472 
 MET473  HIS475  LEU476  LEU477  ASN478  MET479  VAL484  VAL487 

> <Gold.Protein.RotatedAtoms>
   36.4643   34.7232   41.5477 H   0  0  0  0  0  0  0  0  0  0  0  0  # atno 496  bound_to 491 

> <Gold.Score>
     Score     S(PLP)   S(hbond)     S(cho)   S(metal)  DE(clash)   DE(tors)     intcor
     33.57     -27.99       1.00       1.00       0.00       0.00       0.21       0.00

> <Gold.PLP.Fitness>
33.5657

> <Gold.PLP.PLP>
-27.9877

> <Gold.PLP.part.hbond>
-1.0000

> <Gold.PLP.part.metal>
0.0000

> <Gold.PLP.part.buried>
-2.6575

> <Gold.PLP.part.nonpolar>
-24.7524

> <Gold.PLP.part.repulsive>
0.1423

> <Gold.PLP.ligand.clash>
0.0000

> <Gold.PLP.ligand.torsion>
0.2111

> <Gold.PLP.Chemscore.Hbond>
1.0000

> <Gold.PLP.Chemscore.CHOScore>
1.0000

> <Gold.PLP.Chemscore.Metal>
0.0000

> <Gold.Chemscore.Hbonds>
donor molecule, donor type, donor heavy atom, donor atom, acceptor molecule, acceptor atom, score
      L1  H     3    17       P1   582  1.00
      L1  C     6    15       P1   470  1.00

> <Gold.PLP.Chemscore.Internal.Correction>
0.0002

