#       Name:                EN300-177026_i002
#       Creating user name   aseyller
#       Creation time:       Fri Apr 21 19:47:46 2023


#       File generated by GOLD software.
#

@<TRIPOS>MOLECULE
EN300-177026_i002|benzaldehydes|mol2|945|dock19
    17    17     1
SMALL
USER_CHARGES


@<TRIPOS>ATOM
      1 C1          25.6553  37.0570  39.3807 C.3            1 <1>                0.0000
      2 C2          26.7017  36.7971  40.4660 C.3            1 <1>                0.0000
      3 O3          26.3432  35.6266  41.2031 O.3            1 <1>                0.0000
      4 C4          28.0504  36.5937  39.8252 C.2            1 <1>                0.0000
      5 N5          28.5510  37.3544  38.9048 N.2            1 <1>                0.0000
      6 C6          29.7367  37.0478  38.4464 C.2            1 <1>                0.0000
      7 C7          30.2856  35.9332  39.0285 C.2            1 <1>                0.0000
      8 C8          31.5490  35.3724  38.7314 C.2            1 <1>                0.0000
      9 O9          32.2287  35.8438  37.8425 O.2            1 <1>                0.0000
     10 S10         29.1336  35.3313  40.2185 S.3            1 <1>                0.0000
     11 H11         25.9288  37.9498  38.8184 H              1 <1>                0.0000
     12 H12         25.6116  36.2020  38.7060 H              1 <1>                0.0000
     13 H13         24.6798  37.2040  39.8442 H              1 <1>                0.0000
     14 H14         26.7454  37.6521  41.1408 H              1 <1>                0.0000
     15 H15         30.2380  37.6194  37.6794 H              1 <1>                0.0000
     16 H16         31.9094  34.5245  39.2951 H              1 <1>                0.0000
     17 H17         26.4005  35.7331  42.1626 H              1 <1>                0.0000
@<TRIPOS>BOND
    1    1    2 1     
    2    1   11 1     
    3    1   12 1     
    4    1   13 1     
    5    2    3 1     
    6    2    4 1     
    7    2   14 1     
    8    3   17 1     
    9    4    5 2     
   10    4   10 1     
   11    5    6 1     
   12    6    7 2     
   13    6   15 1     
   14    7    8 1     
   15    7   10 1     
   16    8    9 2     
   17    8   16 1     
@<TRIPOS>SUBSTRUCTURE
      1 ****           1
@<TRIPOS>SET
DONOR_HYDROGENS      STATIC     ATOMS    <user>   **** ""
1 17
ATOM$RED        STATIC     ATOMS    COLORGROUP SYSTEM
1 17
@<TRIPOS>COMMENT
> <Gold.Version>
2022.2.0

> <Gold.Id.Protein>
1qkm|1qkm_protein|mol2

> <Gold.Protein.RotatedTorsions>
[  496  491  490  487 ] final   29.50 input  -89.99 | X-H torsion

> <Gold.Protein.ActiveResidues>
 MET295  LEU298  THR299  LEU301  ALA302  GLU305  TRP335  MET336  LEU339  MET340 
 GLY342  LEU343  ARG346  PHE356  ILE373  ILE376  PHE377  LEU380  LYS471  GLY472 
 MET473  HIS475  LEU476  LEU477  ASN478  MET479  VAL484  VAL487 

> <Gold.Protein.RotatedAtoms>
   36.3438   33.7632   42.3800 H   0  0  0  0  0  0  0  0  0  0  0  0  # atno 496  bound_to 491 

> <Gold.Score>
     Score     S(PLP)   S(hbond)     S(cho)   S(metal)  DE(clash)   DE(tors)     intcor
     31.43     -29.88       0.72       0.00       0.00       0.00       0.30       0.00

> <Gold.PLP.Fitness>
31.4331

> <Gold.PLP.PLP>
-29.8829

> <Gold.PLP.part.hbond>
-1.0000

> <Gold.PLP.part.metal>
0.0000

> <Gold.PLP.part.buried>
-2.5079

> <Gold.PLP.part.nonpolar>
-27.1909

> <Gold.PLP.part.repulsive>
0.0358

> <Gold.PLP.ligand.clash>
0.0000

> <Gold.PLP.ligand.torsion>
0.3050

> <Gold.PLP.Chemscore.Hbond>
0.7200

> <Gold.PLP.Chemscore.CHOScore>
0.0000

> <Gold.PLP.Chemscore.Metal>
0.0000

> <Gold.Chemscore.Hbonds>
donor molecule, donor type, donor heavy atom, donor atom, acceptor molecule, acceptor atom, score
      L1  H     3    17       P1   582  0.72

> <Gold.PLP.Chemscore.Internal.Correction>
0.0001

