#       Name:                EN300-177026_i002
#       Creating user name   aseyller
#       Creation time:       Fri Apr 21 19:47:37 2023


#       File generated by GOLD software.
#

@<TRIPOS>MOLECULE
EN300-177026_i002|benzaldehydes|mol2|945|dock5
    17    17     1
SMALL
USER_CHARGES


@<TRIPOS>ATOM
      1 C1          27.8744  35.6094  39.4803 C.3            1 <1>                0.0000
      2 C2          29.1234  36.4084  39.8576 C.3            1 <1>                0.0000
      3 O3          29.3994  36.2324  41.2485 O.3            1 <1>                0.0000
      4 C4          30.2962  35.9198  39.0470 C.2            1 <1>                0.0000
      5 N5          30.7785  34.7194  39.0988 N.2            1 <1>                0.0000
      6 C6          31.8018  34.4459  38.3319 C.2            1 <1>                0.0000
      7 C7          32.2204  35.5048  37.5665 C.2            1 <1>                0.0000
      8 C8          33.2974  35.4988  36.6505 C.2            1 <1>                0.0000
      9 O9          33.3635  36.3485  35.7856 O.2            1 <1>                0.0000
     10 S10         31.1682  36.8717  37.9268 S.3            1 <1>                0.0000
     11 H11         27.6638  35.7437  38.4193 H              1 <1>                0.0000
     12 H12         28.0432  34.5524  39.6863 H              1 <1>                0.0000
     13 H13         27.0262  35.9628  40.0666 H              1 <1>                0.0000
     14 H14         28.9546  37.4653  39.6516 H              1 <1>                0.0000
     15 H15         32.2746  33.4753  38.3039 H              1 <1>                0.0000
     16 H16         34.0613  34.7386  36.7202 H              1 <1>                0.0000
     17 H17         30.3401  36.1438  41.4547 H              1 <1>                0.0000
@<TRIPOS>BOND
    1    1    2 1     
    2    1   11 1     
    3    1   12 1     
    4    1   13 1     
    5    2    3 1     
    6    2    4 1     
    7    2   14 1     
    8    3   17 1     
    9    4    5 2     
   10    4   10 1     
   11    5    6 1     
   12    6    7 2     
   13    6   15 1     
   14    7    8 1     
   15    7   10 1     
   16    8    9 2     
   17    8   16 1     
@<TRIPOS>SUBSTRUCTURE
      1 ****           1
@<TRIPOS>SET
DONOR_HYDROGENS      STATIC     ATOMS    <user>   **** ""
1 17
ATOM$RED        STATIC     ATOMS    COLORGROUP SYSTEM
1 17
@<TRIPOS>COMMENT
> <Gold.Version>
2022.2.0

> <Gold.Id.Protein>
1qkm|1qkm_protein|mol2

> <Gold.Protein.RotatedTorsions>
[  496  491  490  487 ] final  174.97 input  -89.99 | X-H torsion

> <Gold.Protein.ActiveResidues>
 MET295  LEU298  THR299  LEU301  ALA302  GLU305  TRP335  MET336  LEU339  MET340 
 GLY342  LEU343  ARG346  PHE356  ILE373  ILE376  PHE377  LEU380  LYS471  GLY472 
 MET473  HIS475  LEU476  LEU477  ASN478  MET479  VAL484  VAL487 

> <Gold.Protein.RotatedAtoms>
   37.3186   33.3916   40.9114 H   0  0  0  0  0  0  0  0  0  0  0  0  # atno 496  bound_to 491 

> <Gold.Score>
     Score     S(PLP)   S(hbond)     S(cho)   S(metal)  DE(clash)   DE(tors)     intcor
     34.75     -31.94       1.00       0.00       0.00       0.00       0.09       0.00

> <Gold.PLP.Fitness>
34.7473

> <Gold.PLP.PLP>
-31.9366

> <Gold.PLP.part.hbond>
-1.0000

> <Gold.PLP.part.metal>
0.0000

> <Gold.PLP.part.buried>
-4.4962

> <Gold.PLP.part.nonpolar>
-27.2467

> <Gold.PLP.part.repulsive>
0.1745

> <Gold.PLP.ligand.clash>
0.0000

> <Gold.PLP.ligand.torsion>
0.0947

> <Gold.PLP.Chemscore.Hbond>
1.0000

> <Gold.PLP.Chemscore.CHOScore>
0.0000

> <Gold.PLP.Chemscore.Metal>
0.0000

> <Gold.Chemscore.Hbonds>
donor molecule, donor type, donor heavy atom, donor atom, acceptor molecule, acceptor atom, score
      L1  H     3    17       P1   470  1.00

> <Gold.PLP.Chemscore.Internal.Correction>
0.0002

