#       Name:                EN300-177026_i002
#       Creating user name   aseyller
#       Creation time:       Fri Apr 21 19:47:44 2023


#       File generated by GOLD software.
#

@<TRIPOS>MOLECULE
EN300-177026_i002|benzaldehydes|mol2|945|dock16
    17    17     1
SMALL
USER_CHARGES


@<TRIPOS>ATOM
      1 C1          27.6213  36.4335  39.5168 C.3            1 <1>                0.0000
      2 C2          29.0236  36.7659  40.0303 C.3            1 <1>                0.0000
      3 O3          29.4071  35.8103  41.0211 O.3            1 <1>                0.0000
      4 C4          30.0018  36.7219  38.8848 C.2            1 <1>                0.0000
      5 N5          29.9400  37.4756  37.8339 N.2            1 <1>                0.0000
      6 C6          30.8652  37.3193  36.9231 C.2            1 <1>                0.0000
      7 C7          31.7878  36.3512  37.2296 C.2            1 <1>                0.0000
      8 C8          32.8926  35.9690  36.4344 C.2            1 <1>                0.0000
      9 O9          33.1185  36.5472  35.3908 O.2            1 <1>                0.0000
     10 S10         31.3502  35.6752  38.7970 S.3            1 <1>                0.0000
     11 H11         27.3288  37.1624  38.7610 H              1 <1>                0.0000
     12 H12         27.6222  35.4357  39.0780 H              1 <1>                0.0000
     13 H13         26.9139  36.4653  40.3454 H              1 <1>                0.0000
     14 H14         29.0228  37.7637  40.4691 H              1 <1>                0.0000
     15 H15         30.8997  37.8990  36.0125 H              1 <1>                0.0000
     16 H16         33.5356  35.1627  36.7553 H              1 <1>                0.0000
     17 H17         30.3432  35.8466  41.2610 H              1 <1>                0.0000
@<TRIPOS>BOND
    1    1    2 1     
    2    1   11 1     
    3    1   12 1     
    4    1   13 1     
    5    2    3 1     
    6    2    4 1     
    7    2   14 1     
    8    3   17 1     
    9    4    5 2     
   10    4   10 1     
   11    5    6 1     
   12    6    7 2     
   13    6   15 1     
   14    7    8 1     
   15    7   10 1     
   16    8    9 2     
   17    8   16 1     
@<TRIPOS>SUBSTRUCTURE
      1 ****           1
@<TRIPOS>SET
DONOR_HYDROGENS      STATIC     ATOMS    <user>   **** ""
1 17
ATOM$RED        STATIC     ATOMS    COLORGROUP SYSTEM
1 17
@<TRIPOS>COMMENT
> <Gold.Version>
2022.2.0

> <Gold.Id.Protein>
1qkm|1qkm_protein|mol2

> <Gold.Protein.RotatedTorsions>
[  496  491  490  487 ] final -107.53 input  -89.99 | X-H torsion

> <Gold.Protein.ActiveResidues>
 MET295  LEU298  THR299  LEU301  ALA302  GLU305  TRP335  MET336  LEU339  MET340 
 GLY342  LEU343  ARG346  PHE356  ILE373  ILE376  PHE377  LEU380  LYS471  GLY472 
 MET473  HIS475  LEU476  LEU477  ASN478  MET479  VAL484  VAL487 

> <Gold.Protein.RotatedAtoms>
   36.9182   34.5022   40.8950 H   0  0  0  0  0  0  0  0  0  0  0  0  # atno 496  bound_to 491 

> <Gold.Score>
     Score     S(PLP)   S(hbond)     S(cho)   S(metal)  DE(clash)   DE(tors)     intcor
     31.79     -28.79       1.00       0.00       0.00       0.00       0.00       0.00

> <Gold.PLP.Fitness>
31.7899

> <Gold.PLP.PLP>
-28.7943

> <Gold.PLP.part.hbond>
-1.0000

> <Gold.PLP.part.metal>
0.0000

> <Gold.PLP.part.buried>
-4.1476

> <Gold.PLP.part.nonpolar>
-23.8920

> <Gold.PLP.part.repulsive>
0.1104

> <Gold.PLP.ligand.clash>
0.0000

> <Gold.PLP.ligand.torsion>
0.0023

> <Gold.PLP.Chemscore.Hbond>
1.0000

> <Gold.PLP.Chemscore.CHOScore>
0.0000

> <Gold.PLP.Chemscore.Metal>
0.0000

> <Gold.Chemscore.Hbonds>
donor molecule, donor type, donor heavy atom, donor atom, acceptor molecule, acceptor atom, score
      L1  H     3    17       P1   470  1.00

> <Gold.PLP.Chemscore.Internal.Correction>
0.0001

