#       Name:                plp ligand
#       Creating user name   aseyller
#       Creation time:       Fri Apr 21 19:47:34 2023


#       File generated by GOLD software.
#

@<TRIPOS>MOLECULE
plp ligand
    17    17     1
SMALL
USER_CHARGES


@<TRIPOS>ATOM
      1 C1           2.3221   0.2435   1.0685 NONPOLAR       1 <1>                0.0000
      2 C2           1.7325   0.3330  -0.3404 NONPOLAR       1 <1>                0.0000
      3 O3           2.3347  -0.6601  -1.1729 DONACC         1 <1>                0.0000
      4 C4           0.2447   0.1013  -0.2781 NONPOLAR       1 <1>                0.0000
      5 N5          -0.3143  -1.0531  -0.1016 ACCEPTOR       1 <1>                0.0000
      6 C6          -1.6210  -1.0930  -0.0698 NONPOLAR       1 <1>                0.0000
      7 C7          -2.2178   0.1315  -0.2332 NONPOLAR       1 <1>                0.0000
      8 C8          -3.6081   0.3883  -0.2422 NONPOLAR       1 <1>                0.0000
      9 O9          -4.3951  -0.5248  -0.0962 ACCEPTOR       1 <1>                0.0000
     10 S10         -0.9374   1.3273  -0.4231 NONPOLAR       1 <1>                0.0000
     11 H11          1.8627   1.0010   1.7035                1 <1>                0.0000
     12 H12          2.1255  -0.7455   1.4825                1 <1>                0.0000
     13 H13          3.3982   0.4110   1.0234                1 <1>                0.0000
     14 H14          1.9291   1.3220  -0.7544                1 <1>                0.0000
     15 H15         -2.1795  -2.0065   0.0718                1 <1>                0.0000
     16 H16         -3.9701   1.3966  -0.3790                1 <1>                0.0000
     17 H17          3.2939  -0.5723  -1.2589                1 <1>                0.0000
@<TRIPOS>BOND
    1    1    2 1     
    2    1   11 1     
    3    1   12 1     
    4    1   13 1     
    5    2    3 1     
    6    2    4 1     
    7    2   14 1     
    8    3   17 1     
    9    4    5 2     
   10    4   10 1     
   11    5    6 1     
   12    6    7 2     
   13    6   15 1     
   14    7    8 1     
   15    7   10 1     
   16    8    9 2     
   17    8   16 1     
@<TRIPOS>SUBSTRUCTURE
      1 ****           1
@<TRIPOS>SET
DONOR_HYDROGENS      STATIC     ATOMS    <user>   **** ""
1 17
ATOM$RED        STATIC     ATOMS    COLORGROUP SYSTEM
1 17
