#       Name:                EN300-7371540_i001
#       Creating user name   fsindt
#       Creation time:       Wed Mar  1 22:57:15 2023


#       File generated by GOLD software.
#

@<TRIPOS>MOLECULE
EN300-7371540_i001|acide_1|mol2|10402|dock19
    20    21     1
SMALL
USER_CHARGES


@<TRIPOS>ATOM
      1 C1          -0.1503 -16.1781  12.4632 C.3            1 <1>                0.0000
      2 C2          -0.1239 -14.9626  11.5728 C.2            1 <1>                0.0000
      3 C3          -0.7723 -13.7834  11.9796 C.2            1 <1>                0.0000
      4 C4          -0.7474 -12.6881  11.1749 C.2            1 <1>                0.0000
      5 Br5         -1.6135 -11.0933  11.7059 Br             1 <1>                0.0000
      6 C6          -0.0671 -12.7529   9.9375 C.2            1 <1>                0.0000
      7 N7           0.1112 -11.8584   8.9810 N.2            1 <1>                0.0000
      8 C8           0.8385 -12.4112   7.9911 C.2            1 <1>                0.0000
      9 C9           1.1251 -13.7099   8.3501 C.2            1 <1>                0.0000
     10 N10          0.5564 -13.9190   9.5685 N.pl3          1 <1>                0.0000
     11 C11          0.5262 -15.0100  10.3926 C.2            1 <1>                0.0000
     12 C12          1.2537 -11.7450   6.7457 C.2            1 <1>                0.0000
     13 O13          1.6940 -12.4066   5.8156 O.co2          1 <1>                0.0000
     14 O14          1.1583 -10.5298   6.6409 O.co2          1 <1>               -1.0000
     15 H15         -0.7135 -15.9527  13.3689 H              1 <1>                0.0000
     16 H16         -0.6262 -17.0047  11.9358 H              1 <1>                0.0000
     17 H17          0.8696 -16.4558  12.7292 H              1 <1>                0.0000
     18 H18         -1.2886 -13.7480  12.9275 H              1 <1>                0.0000
     19 H19          1.6924 -14.4260   7.7740 H              1 <1>                0.0000
     20 H20          1.0254 -15.9198  10.0935 H              1 <1>                0.0000
@<TRIPOS>BOND
    1    1    2 1     
    2    1   15 1     
    3    1   16 1     
    4    1   17 1     
    5    2    3 1     
    6    2   11 2     
    7    3    4 2     
    8    3   18 1     
    9    4    5 1     
   10    4    6 1     
   11    6    7 2     
   12    6   10 1     
   13    7    8 1     
   14    8    9 2     
   15    8   12 1     
   16    9   10 1     
   17    9   19 1     
   18   10   11 1     
   19   11   20 1     
   20   12   13 ar    
   21   12   14 ar    
@<TRIPOS>SUBSTRUCTURE
      1 ****           1
@<TRIPOS>COMMENT
> <Gold.Version>
2022.2.0

> <Gold.Id.Protein>
3pbl|protein|mol2

> <Gold.Protein.RotatedTorsions>
[ 1303 1298 1297 1294 ] final   49.68 input  179.99 | X-H torsion
[ 2461 2456 2455 2452 ] final -135.44 input   30.03 | X-H torsion
[ 2515 2510 2509 2506 ] final  167.06 input  -89.99 | X-H torsion
[ 3721 3712 3711 3710 ] final  -52.49 input -179.91 | X-H torsion
[ 3841 3832 3831 3830 ] final -119.88 input -179.91 | X-H torsion
[ 3767 3762 3761 3758 ] final  158.97 input  -89.99 | X-H torsion
[ 2472 2467 2466 2463 ] final  121.08 input  -89.97 | X-H torsion

> <Gold.Protein.ActiveResidues>
 VAL82   VAL86   LEU89   PHE106  VAL107  ASP110  VAL111  MET112  CYS114  THR115 
 CYS181  SER182  ILE183  PHE188  VAL189  ILE190  SER192  SER193  SER196  TRP342 
 PHE345  PHE346  HIS349  VAL350  TYR365  THR369  GLY372  TYR373 

> <Gold.Protein.RotatedAtoms>
    3.8696  -10.2659    4.5360 H   0  0  0  0  0  0  0  0  0  0  0  0  # atno 1303 bound_to 1298
    0.7658   -9.2546    8.1997 H   0  0  0  0  0  0  0  0  0  0  0  0  # atno 2461 bound_to 2456
   -5.4250   -5.0816    8.1472 H   0  0  0  0  0  0  0  0  0  0  0  0  # atno 2472 bound_to 2467
    2.2395   -8.8850    5.9643 H   0  0  0  0  0  0  0  0  0  0  0  0  # atno 2515 bound_to 2510
   -2.7458  -17.4287   14.7334 H   0  0  0  0  0  0  0  0  0  0  0  0  # atno 3721 bound_to 3712
   -3.9503  -22.7917   11.3914 H   0  0  0  0  0  0  0  0  0  0  0  0  # atno 3767 bound_to 3762
    2.2221  -19.5932    8.4579 H   0  0  0  0  0  0  0  0  0  0  0  0  # atno 3841 bound_to 3832
    3.5964   -8.8385    3.7916 LP  0  0  0  0  0  0  0  0  0  0  0  0  # atno 4297 bound_to 1298
    4.8962   -9.0167    4.7640 LP  0  0  0  0  0  0  0  0  0  0  0  0  # atno 4298 bound_to 1298
    2.1609   -8.4620    7.8948 LP  0  0  0  0  0  0  0  0  0  0  0  0  # atno 4299 bound_to 2456
    0.8110   -8.0918    7.0538 LP  0  0  0  0  0  0  0  0  0  0  0  0  # atno 4300 bound_to 2456
    2.2216   -7.4145    5.2549 LP  0  0  0  0  0  0  0  0  0  0  0  0  # atno 4301 bound_to 2510
    2.8357   -8.6994    4.4557 LP  0  0  0  0  0  0  0  0  0  0  0  0  # atno 4302 bound_to 2510
   -3.5601  -16.6068   13.6202 LP  0  0  0  0  0  0  0  0  0  0  0  0  # atno 4306 bound_to 3712
   -2.7975  -17.9978   13.2330 LP  0  0  0  0  0  0  0  0  0  0  0  0  # atno 4307 bound_to 3712
    3.0632  -20.9145    8.8085 LP  0  0  0  0  0  0  0  0  0  0  0  0  # atno 4314 bound_to 3832
    1.5993  -20.6577    9.4850 LP  0  0  0  0  0  0  0  0  0  0  0  0  # atno 4315 bound_to 3832
   -4.8623  -23.1398   10.0822 LP  0  0  0  0  0  0  0  0  0  0  0  0  # atno 4318 bound_to 3762
   -5.3145  -21.9436   11.0976 LP  0  0  0  0  0  0  0  0  0  0  0  0  # atno 4319 bound_to 3762
   -3.8081   -4.8713    8.0593 LP  0  0  0  0  0  0  0  0  0  0  0  0  # atno 4320 bound_to 2467
   -4.4840   -5.4406    9.4325 LP  0  0  0  0  0  0  0  0  0  0  0  0  # atno 4321 bound_to 2467

> <Gold.Score>
     Score     S(PLP)   S(hbond)     S(cho)   S(metal)  DE(clash)   DE(tors)     intcor
     43.33     -38.43       0.69       1.00       0.00       0.00       0.08       0.00

> <Gold.PLP.Fitness>
43.3341

> <Gold.PLP.PLP>
-38.4341

> <Gold.PLP.part.hbond>
-1.7319

> <Gold.PLP.part.metal>
0.0000

> <Gold.PLP.part.buried>
-0.4623

> <Gold.PLP.part.nonpolar>
-37.3609

> <Gold.PLP.part.repulsive>
0.2036

> <Gold.PLP.ligand.clash>
0.0000

> <Gold.PLP.ligand.torsion>
0.0820

> <Gold.PLP.Chemscore.Hbond>
0.6880

> <Gold.PLP.Chemscore.CHOScore>
1.0000

> <Gold.PLP.Chemscore.Metal>
0.0000

> <Gold.Chemscore.Hbonds>
donor molecule, donor type, donor heavy atom, donor atom, acceptor molecule, acceptor atom, score
      P1  H  2456  2461       L1    14  0.13
      P1  H  2510  2515       L1    14  0.56
      L1  C    11    20       P1  1227  1.00

> <Gold.PLP.Chemscore.Internal.Correction>
0.0000

