#       Name:                EN300-7371540_i001
#       Creating user name   fsindt
#       Creation time:       Wed Mar  1 22:57:11 2023


#       File generated by GOLD software.
#

@<TRIPOS>MOLECULE
EN300-7371540_i001|acide_1|mol2|10402|dock2
    20    21     1
SMALL
USER_CHARGES


@<TRIPOS>ATOM
      1 C1          -2.8181 -10.1206   9.6066 C.3            1 <1>                0.0000
      2 C2          -1.8836 -11.2802   9.8368 C.2            1 <1>                0.0000
      3 C3          -0.9951 -11.6746   8.8212 C.2            1 <1>                0.0000
      4 C4          -0.1530 -12.7209   9.0309 C.2            1 <1>                0.0000
      5 Br5          1.0493 -13.2651   7.6766 Br             1 <1>                0.0000
      6 C6          -0.1845 -13.3978  10.2714 C.2            1 <1>                0.0000
      7 N7           0.5072 -14.4248  10.7338 N.2            1 <1>                0.0000
      8 C8           0.1018 -14.6996  11.9886 C.2            1 <1>                0.0000
      9 C9          -0.8881 -13.8009  12.3207 C.2            1 <1>                0.0000
     10 N10         -1.0636 -12.9886  11.2432 N.pl3          1 <1>                0.0000
     11 C11         -1.9002 -11.9304  11.0177 C.2            1 <1>                0.0000
     12 C12          0.6243 -15.7711  12.8524 C.2            1 <1>                0.0000
     13 O13          0.5838 -15.6503  14.0692 O.co2          1 <1>                0.0000
     14 O14          1.0990 -16.7823  12.3535 O.co2          1 <1>               -1.0000
     15 H15         -2.6600  -9.7200   8.6052 H              1 <1>                0.0000
     16 H16         -3.8492 -10.4600   9.7035 H              1 <1>                0.0000
     17 H17         -2.6207  -9.3429  10.3444 H              1 <1>                0.0000
     18 H18         -0.9819 -11.1487   7.8781 H              1 <1>                0.0000
     19 H19         -1.4233 -13.7510  13.2575 H              1 <1>                0.0000
     20 H20         -2.5833 -11.6146  11.7923 H              1 <1>                0.0000
@<TRIPOS>BOND
    1    1    2 1     
    2    1   15 1     
    3    1   16 1     
    4    1   17 1     
    5    2    3 1     
    6    2   11 2     
    7    3    4 2     
    8    3   18 1     
    9    4    5 1     
   10    4    6 1     
   11    6    7 2     
   12    6   10 1     
   13    7    8 1     
   14    8    9 2     
   15    8   12 1     
   16    9   10 1     
   17    9   19 1     
   18   10   11 1     
   19   11   20 1     
   20   12   13 ar    
   21   12   14 ar    
@<TRIPOS>SUBSTRUCTURE
      1 ****           1
@<TRIPOS>COMMENT
> <Gold.Version>
2022.2.0

> <Gold.Id.Protein>
3pbl|protein|mol2

> <Gold.Protein.RotatedTorsions>
[ 1303 1298 1297 1294 ] final   74.36 input  179.99 | X-H torsion
[ 2461 2456 2455 2452 ] final -179.88 input   30.03 | X-H torsion
[ 2515 2510 2509 2506 ] final  158.00 input  -89.99 | X-H torsion
[ 3721 3712 3711 3710 ] final   67.99 input -179.91 | X-H torsion
[ 3841 3832 3831 3830 ] final  130.10 input -179.91 | X-H torsion
[ 3767 3762 3761 3758 ] final  -34.69 input  -89.99 | X-H torsion
[ 2472 2467 2466 2463 ] final  136.48 input  -89.97 | X-H torsion

> <Gold.Protein.ActiveResidues>
 VAL82   VAL86   LEU89   PHE106  VAL107  ASP110  VAL111  MET112  CYS114  THR115 
 CYS181  SER182  ILE183  PHE188  VAL189  ILE190  SER192  SER193  SER196  TRP342 
 PHE345  PHE346  HIS349  VAL350  TYR365  THR369  GLY372  TYR373 

> <Gold.Protein.RotatedAtoms>
    4.2058  -10.2273    4.7547 H   0  0  0  0  0  0  0  0  0  0  0  0  # atno 1303 bound_to 1298
    1.4490   -9.2178    8.4015 H   0  0  0  0  0  0  0  0  0  0  0  0  # atno 2461 bound_to 2456
   -5.4980   -5.1707    8.3721 H   0  0  0  0  0  0  0  0  0  0  0  0  # atno 2472 bound_to 2467
    2.1861   -8.7613    6.0277 H   0  0  0  0  0  0  0  0  0  0  0  0  # atno 2515 bound_to 2510
   -2.6362  -17.8436   13.2920 H   0  0  0  0  0  0  0  0  0  0  0  0  # atno 3721 bound_to 3712
   -5.5076  -22.2992   10.4757 H   0  0  0  0  0  0  0  0  0  0  0  0  # atno 3767 bound_to 3762
    3.1192  -20.6275    8.8285 H   0  0  0  0  0  0  0  0  0  0  0  0  # atno 3841 bound_to 3832
    3.3969   -9.1886    3.7888 LP  0  0  0  0  0  0  0  0  0  0  0  0  # atno 4297 bound_to 1298
    4.7594   -8.7051    4.5480 LP  0  0  0  0  0  0  0  0  0  0  0  0  # atno 4298 bound_to 1298
    1.9174   -8.0322    7.3805 LP  0  0  0  0  0  0  0  0  0  0  0  0  # atno 4299 bound_to 2456
    0.3715   -8.5583    7.3664 LP  0  0  0  0  0  0  0  0  0  0  0  0  # atno 4300 bound_to 2456
    2.2784   -7.4091    5.1173 LP  0  0  0  0  0  0  0  0  0  0  0  0  # atno 4301 bound_to 2510
    2.8323   -8.8285    4.5299 LP  0  0  0  0  0  0  0  0  0  0  0  0  # atno 4302 bound_to 2510
   -2.9198  -17.5347   14.8418 LP  0  0  0  0  0  0  0  0  0  0  0  0  # atno 4306 bound_to 3712
   -3.5643  -16.5909   13.6754 LP  0  0  0  0  0  0  0  0  0  0  0  0  # atno 4307 bound_to 3712
    1.6733  -20.7431    9.5156 LP  0  0  0  0  0  0  0  0  0  0  0  0  # atno 4314 bound_to 3832
    1.9528  -19.6343    8.3498 LP  0  0  0  0  0  0  0  0  0  0  0  0  # atno 4315 bound_to 3832
   -4.3747  -22.2408   11.6503 LP  0  0  0  0  0  0  0  0  0  0  0  0  # atno 4318 bound_to 3762
   -4.2454  -23.3349   10.4450 LP  0  0  0  0  0  0  0  0  0  0  0  0  # atno 4319 bound_to 3762
   -3.9798   -4.8255    7.8798 LP  0  0  0  0  0  0  0  0  0  0  0  0  # atno 4320 bound_to 2467
   -4.2392   -5.3973    9.3872 LP  0  0  0  0  0  0  0  0  0  0  0  0  # atno 4321 bound_to 2467

> <Gold.Score>
     Score     S(PLP)   S(hbond)     S(cho)   S(metal)  DE(clash)   DE(tors)     intcor
     45.30     -42.96       0.99       0.00       0.00       0.00       0.32       0.00

> <Gold.PLP.Fitness>
45.2965

> <Gold.PLP.PLP>
-42.9571

> <Gold.PLP.part.hbond>
-1.0000

> <Gold.PLP.part.metal>
0.0000

> <Gold.PLP.part.buried>
-3.4486

> <Gold.PLP.part.nonpolar>
-39.7592

> <Gold.PLP.part.repulsive>
0.1833

> <Gold.PLP.ligand.clash>
0.0000

> <Gold.PLP.ligand.torsion>
0.3172

> <Gold.PLP.Chemscore.Hbond>
0.9913

> <Gold.PLP.Chemscore.CHOScore>
0.0000

> <Gold.PLP.Chemscore.Metal>
0.0000

> <Gold.Chemscore.Hbonds>
donor molecule, donor type, donor heavy atom, donor atom, acceptor molecule, acceptor atom, score
      P1  H  2305  2313       L1    13  0.99

> <Gold.PLP.Chemscore.Internal.Correction>
0.0000

