#       Name:                EN300-7371540_i001
#       Creating user name   fsindt
#       Creation time:       Wed Mar  1 22:57:13 2023


#       File generated by GOLD software.
#

@<TRIPOS>MOLECULE
EN300-7371540_i001|acide_1|mol2|10402|dock11
    20    21     1
SMALL
USER_CHARGES


@<TRIPOS>ATOM
      1 C1           0.5586 -11.3754   6.7980 C.3            1 <1>                0.0000
      2 C2           0.2153 -11.8943   8.1706 C.2            1 <1>                0.0000
      3 C3          -0.7424 -11.2245   8.9521 C.2            1 <1>                0.0000
      4 C4          -1.0506 -11.6941  10.1899 C.2            1 <1>                0.0000
      5 Br5         -2.3366 -10.8065  11.2549 Br             1 <1>                0.0000
      6 C6          -0.4008 -12.8526  10.6730 C.2            1 <1>                0.0000
      7 N7          -0.5051 -13.5117  11.8139 N.2            1 <1>                0.0000
      8 C8           0.3368 -14.5630  11.7937 C.2            1 <1>                0.0000
      9 C9           0.9947 -14.5561  10.5834 C.2            1 <1>                0.0000
     10 N10          0.5299 -13.4842   9.8858 N.pl3          1 <1>                0.0000
     11 C11          0.8241 -13.0015   8.6405 C.2            1 <1>                0.0000
     12 C12          0.5212 -15.5457  12.8743 C.2            1 <1>                0.0000
     13 O13          1.0846 -16.6074  12.6460 O.co2          1 <1>                0.0000
     14 O14          0.1112 -15.3005  14.0006 O.co2          1 <1>               -1.0000
     15 H15         -0.0315 -10.4830   6.5889 H              1 <1>                0.0000
     16 H16          1.6191 -11.1274   6.7581 H              1 <1>                0.0000
     17 H17          0.3361 -12.1406   6.0543 H              1 <1>                0.0000
     18 H18         -1.2310 -10.3401   8.5706 H              1 <1>                0.0000
     19 H19          1.7383 -15.2658  10.2518 H              1 <1>                0.0000
     20 H20          1.5541 -13.5107   8.0286 H              1 <1>                0.0000
@<TRIPOS>BOND
    1    1    2 1     
    2    1   15 1     
    3    1   16 1     
    4    1   17 1     
    5    2    3 1     
    6    2   11 2     
    7    3    4 2     
    8    3   18 1     
    9    4    5 1     
   10    4    6 1     
   11    6    7 2     
   12    6   10 1     
   13    7    8 1     
   14    8    9 2     
   15    8   12 1     
   16    9   10 1     
   17    9   19 1     
   18   10   11 1     
   19   11   20 1     
   20   12   13 ar    
   21   12   14 ar    
@<TRIPOS>SUBSTRUCTURE
      1 ****           1
@<TRIPOS>COMMENT
> <Gold.Version>
2022.2.0

> <Gold.Id.Protein>
3pbl|protein|mol2

> <Gold.Protein.RotatedTorsions>
[ 1303 1298 1297 1294 ] final   32.56 input  179.99 | X-H torsion
[ 2461 2456 2455 2452 ] final  -24.44 input   30.03 | X-H torsion
[ 2515 2510 2509 2506 ] final -163.30 input  -89.99 | X-H torsion
[ 3721 3712 3711 3710 ] final -101.06 input -179.91 | X-H torsion
[ 3841 3832 3831 3830 ] final  -27.42 input -179.91 | X-H torsion
[ 3767 3762 3761 3758 ] final -161.90 input  -89.99 | X-H torsion
[ 2472 2467 2466 2463 ] final  -33.79 input  -89.97 | X-H torsion

> <Gold.Protein.ActiveResidues>
 VAL82   VAL86   LEU89   PHE106  VAL107  ASP110  VAL111  MET112  CYS114  THR115 
 CYS181  SER182  ILE183  PHE188  VAL189  ILE190  SER192  SER193  SER196  TRP342 
 PHE345  PHE346  HIS349  VAL350  TYR365  THR369  GLY372  TYR373 

> <Gold.Protein.RotatedAtoms>
    3.6599  -10.1961    4.3632 H   0  0  0  0  0  0  0  0  0  0  0  0  # atno 1303 bound_to 1298
    0.6901   -8.1695    7.0893 H   0  0  0  0  0  0  0  0  0  0  0  0  # atno 2461 bound_to 2456
   -3.6345   -5.0373    8.5708 H   0  0  0  0  0  0  0  0  0  0  0  0  # atno 2472 bound_to 2467
    2.4400   -9.1795    5.6395 H   0  0  0  0  0  0  0  0  0  0  0  0  # atno 2515 bound_to 2510
   -3.1028  -16.8258   14.6036 H   0  0  0  0  0  0  0  0  0  0  0  0  # atno 3721 bound_to 3712
   -4.2853  -22.3183   11.6415 H   0  0  0  0  0  0  0  0  0  0  0  0  # atno 3767 bound_to 3762
    1.5774  -20.1614    9.3659 H   0  0  0  0  0  0  0  0  0  0  0  0  # atno 3841 bound_to 3832
    3.7941   -8.6498    3.8557 LP  0  0  0  0  0  0  0  0  0  0  0  0  # atno 4297 bound_to 1298
    4.9083   -9.2751    4.8727 LP  0  0  0  0  0  0  0  0  0  0  0  0  # atno 4298 bound_to 1298
    0.8939   -9.2799    8.2696 LP  0  0  0  0  0  0  0  0  0  0  0  0  # atno 4299 bound_to 2456
    2.1536   -8.3586    7.7890 LP  0  0  0  0  0  0  0  0  0  0  0  0  # atno 4300 bound_to 2456
    2.0788   -7.5878    5.6818 LP  0  0  0  0  0  0  0  0  0  0  0  0  # atno 4301 bound_to 2510
    2.7779   -8.2315    4.3538 LP  0  0  0  0  0  0  0  0  0  0  0  0  # atno 4302 bound_to 2510
   -3.3371  -17.0865   13.0367 LP  0  0  0  0  0  0  0  0  0  0  0  0  # atno 4306 bound_to 3712
   -2.6084  -18.2141   13.9663 LP  0  0  0  0  0  0  0  0  0  0  0  0  # atno 4307 bound_to 3712
    2.5543  -19.8161    8.1402 LP  0  0  0  0  0  0  0  0  0  0  0  0  # atno 4314 bound_to 3832
    2.8530  -21.0997    9.1044 LP  0  0  0  0  0  0  0  0  0  0  0  0  # atno 4315 bound_to 3832
   -4.3310  -23.3336   10.3633 LP  0  0  0  0  0  0  0  0  0  0  0  0  # atno 4318 bound_to 3762
   -5.5109  -22.2231   10.5666 LP  0  0  0  0  0  0  0  0  0  0  0  0  # atno 4319 bound_to 3762
   -5.0335   -5.4542    9.3025 LP  0  0  0  0  0  0  0  0  0  0  0  0  # atno 4320 bound_to 2467
   -5.0487   -4.9020    7.7658 LP  0  0  0  0  0  0  0  0  0  0  0  0  # atno 4321 bound_to 2467

> <Gold.Score>
     Score     S(PLP)   S(hbond)     S(cho)   S(metal)  DE(clash)   DE(tors)     intcor
     40.75     -35.49       0.83       1.00       0.00       0.00       0.11       0.00

> <Gold.PLP.Fitness>
40.7494

> <Gold.PLP.PLP>
-35.4876

> <Gold.PLP.part.hbond>
-0.9471

> <Gold.PLP.part.metal>
0.0000

> <Gold.PLP.part.buried>
-2.3079

> <Gold.PLP.part.nonpolar>
-34.3971

> <Gold.PLP.part.repulsive>
0.2126

> <Gold.PLP.ligand.clash>
0.0000

> <Gold.PLP.ligand.torsion>
0.1122

> <Gold.PLP.Chemscore.Hbond>
0.8288

> <Gold.PLP.Chemscore.CHOScore>
1.0000

> <Gold.PLP.Chemscore.Metal>
0.0000

> <Gold.Chemscore.Hbonds>
donor molecule, donor type, donor heavy atom, donor atom, acceptor molecule, acceptor atom, score
      P1  H  2305  2313       L1    14  0.83
      L1  C     9    19       P1  1227  1.00

> <Gold.PLP.Chemscore.Internal.Correction>
0.0000

