#       Name:                EN300-7371540_i001
#       Creating user name   fsindt
#       Creation time:       Wed Mar  1 22:57:12 2023


#       File generated by GOLD software.
#

@<TRIPOS>MOLECULE
EN300-7371540_i001|acide_1|mol2|10402|dock7
    20    21     1
SMALL
USER_CHARGES


@<TRIPOS>ATOM
      1 C1           1.4041 -11.9744   6.2114 C.3            1 <1>                0.0000
      2 C2           0.7786 -12.3084   7.5411 C.2            1 <1>                0.0000
      3 C3          -0.1661 -11.4355   8.1086 C.2            1 <1>                0.0000
      4 C4          -0.7290 -11.7385   9.3081 C.2            1 <1>                0.0000
      5 Br5         -2.0019 -10.5766  10.0863 Br             1 <1>                0.0000
      6 C6          -0.3540 -12.9310   9.9679 C.2            1 <1>                0.0000
      7 N7          -0.7339 -13.4598  11.1182 N.2            1 <1>                0.0000
      8 C8          -0.0783 -14.6213  11.3068 C.2            1 <1>                0.0000
      9 C9           0.7473 -14.8229  10.2226 C.2            1 <1>                0.0000
     10 N10          0.5713 -13.7629   9.3878 N.pl3          1 <1>                0.0000
     11 C11          1.1239 -13.4455   8.1778 C.2            1 <1>                0.0000
     12 C12         -0.2194 -15.5169  12.4667 C.2            1 <1>                0.0000
     13 O13          0.5056 -15.3737  13.4417 O.co2          1 <1>                0.0000
     14 O14         -1.0616 -16.4042  12.4554 O.co2          1 <1>               -1.0000
     15 H15          1.0034 -11.0276   5.8490 H              1 <1>                0.0000
     16 H16          2.4844 -11.8905   6.3287 H              1 <1>                0.0000
     17 H17          1.1767 -12.7633   5.4945 H              1 <1>                0.0000
     18 H18         -0.4431 -10.5274   7.5936 H              1 <1>                0.0000
     19 H19          1.4089 -15.6621  10.0656 H              1 <1>                0.0000
     20 H20          1.8466 -14.1110   7.7292 H              1 <1>                0.0000
@<TRIPOS>BOND
    1    1    2 1     
    2    1   15 1     
    3    1   16 1     
    4    1   17 1     
    5    2    3 1     
    6    2   11 2     
    7    3    4 2     
    8    3   18 1     
    9    4    5 1     
   10    4    6 1     
   11    6    7 2     
   12    6   10 1     
   13    7    8 1     
   14    8    9 2     
   15    8   12 1     
   16    9   10 1     
   17    9   19 1     
   18   10   11 1     
   19   11   20 1     
   20   12   13 ar    
   21   12   14 ar    
@<TRIPOS>SUBSTRUCTURE
      1 ****           1
@<TRIPOS>COMMENT
> <Gold.Version>
2022.2.0

> <Gold.Id.Protein>
3pbl|protein|mol2

> <Gold.Protein.RotatedTorsions>
[ 1303 1298 1297 1294 ] final  -94.59 input  179.99 | X-H torsion
[ 2461 2456 2455 2452 ] final  -86.44 input   30.03 | X-H torsion
[ 2515 2510 2509 2506 ] final   46.76 input  -89.99 | X-H torsion
[ 3721 3712 3711 3710 ] final  100.79 input -179.91 | X-H torsion
[ 3841 3832 3831 3830 ] final  -57.93 input -179.91 | X-H torsion
[ 3767 3762 3761 3758 ] final -148.71 input  -89.99 | X-H torsion
[ 2472 2467 2466 2463 ] final  -88.44 input  -89.97 | X-H torsion

> <Gold.Protein.ActiveResidues>
 VAL82   VAL86   LEU89   PHE106  VAL107  ASP110  VAL111  MET112  CYS114  THR115 
 CYS181  SER182  ILE183  PHE188  VAL189  ILE190  SER192  SER193  SER196  TRP342 
 PHE345  PHE346  HIS349  VAL350  TYR365  THR369  GLY372  TYR373 

> <Gold.Protein.RotatedAtoms>
    3.8861   -8.5893    3.8968 H   0  0  0  0  0  0  0  0  0  0  0  0  # atno 1303 bound_to 1298
    0.3426   -8.8690    7.6668 H   0  0  0  0  0  0  0  0  0  0  0  0  # atno 2461 bound_to 2456
   -4.0225   -5.3371    9.2841 H   0  0  0  0  0  0  0  0  0  0  0  0  # atno 2472 bound_to 2467
    2.2236   -7.4143    5.2503 H   0  0  0  0  0  0  0  0  0  0  0  0  # atno 2515 bound_to 2510
   -2.8641  -17.4829   13.0529 H   0  0  0  0  0  0  0  0  0  0  0  0  # atno 3721 bound_to 3712
   -4.4519  -22.1801   11.6476 H   0  0  0  0  0  0  0  0  0  0  0  0  # atno 3767 bound_to 3762
    1.6036  -19.8307    9.0536 H   0  0  0  0  0  0  0  0  0  0  0  0  # atno 3841 bound_to 3832
    4.8926   -9.3871    4.9052 LP  0  0  0  0  0  0  0  0  0  0  0  0  # atno 4297 bound_to 1298
    3.5836  -10.1451    4.2897 LP  0  0  0  0  0  0  0  0  0  0  0  0  # atno 4298 bound_to 1298
    1.8266   -9.0170    8.3326 LP  0  0  0  0  0  0  0  0  0  0  0  0  # atno 4299 bound_to 2456
    1.5684   -7.9222    7.1488 LP  0  0  0  0  0  0  0  0  0  0  0  0  # atno 4300 bound_to 2456
    2.8358   -8.7039    4.4579 LP  0  0  0  0  0  0  0  0  0  0  0  0  # atno 4301 bound_to 2510
    2.2374   -8.8813    5.9670 LP  0  0  0  0  0  0  0  0  0  0  0  0  # atno 4302 bound_to 2510
   -2.7027  -17.9544   14.5792 LP  0  0  0  0  0  0  0  0  0  0  0  0  # atno 4306 bound_to 3712
   -3.5183  -16.5876   14.2141 LP  0  0  0  0  0  0  0  0  0  0  0  0  # atno 4307 bound_to 3712
    2.9286  -20.1473    8.2049 LP  0  0  0  0  0  0  0  0  0  0  0  0  # atno 4314 bound_to 3832
    2.4484  -21.1506    9.4005 LP  0  0  0  0  0  0  0  0  0  0  0  0  # atno 4315 bound_to 3832
   -4.1796  -23.3275   10.5179 LP  0  0  0  0  0  0  0  0  0  0  0  0  # atno 4318 bound_to 3762
   -5.4957  -22.3673   10.4058 LP  0  0  0  0  0  0  0  0  0  0  0  0  # atno 4319 bound_to 3762
   -5.5051   -5.2546    8.6047 LP  0  0  0  0  0  0  0  0  0  0  0  0  # atno 4320 bound_to 2467
   -4.1891   -4.8019    7.7504 LP  0  0  0  0  0  0  0  0  0  0  0  0  # atno 4321 bound_to 2467

> <Gold.Score>
     Score     S(PLP)   S(hbond)     S(cho)   S(metal)  DE(clash)   DE(tors)     intcor
     45.40     -43.91       0.50       1.00       0.00       0.00       1.50       0.00

> <Gold.PLP.Fitness>
45.4003

> <Gold.PLP.PLP>
-43.9095

> <Gold.PLP.part.hbond>
-1.0000

> <Gold.PLP.part.metal>
0.0000

> <Gold.PLP.part.buried>
-4.1217

> <Gold.PLP.part.nonpolar>
-39.8281

> <Gold.PLP.part.repulsive>
0.1594

> <Gold.PLP.ligand.clash>
0.0000

> <Gold.PLP.ligand.torsion>
1.4999

> <Gold.PLP.Chemscore.Hbond>
0.4969

> <Gold.PLP.Chemscore.CHOScore>
1.0000

> <Gold.PLP.Chemscore.Metal>
0.0000

> <Gold.Chemscore.Hbonds>
donor molecule, donor type, donor heavy atom, donor atom, acceptor molecule, acceptor atom, score
      P1  H  3712  3721       L1    14  0.50
      L1  C     9    19       P1  1227  1.00

> <Gold.PLP.Chemscore.Internal.Correction>
0.0000

