#       Name:                EN300-7371540_i001
#       Creating user name   fsindt
#       Creation time:       Wed Mar  1 22:57:14 2023


#       File generated by GOLD software.
#

@<TRIPOS>MOLECULE
EN300-7371540_i001|acide_1|mol2|10402|dock14
    20    21     1
SMALL
USER_CHARGES


@<TRIPOS>ATOM
      1 C1          -1.3411 -10.0398  10.3457 C.3            1 <1>                0.0000
      2 C2          -0.8252 -11.4557  10.3332 C.2            1 <1>                0.0000
      3 C3          -0.0849 -11.9206   9.2321 C.2            1 <1>                0.0000
      4 C4           0.3794 -13.1981   9.2227 C.2            1 <1>                0.0000
      5 Br5          1.3774 -13.8404   7.7506 Br             1 <1>                0.0000
      6 C6           0.1095 -14.0414  10.3245 C.2            1 <1>                0.0000
      7 N7           0.4318 -15.2991  10.5726 N.2            1 <1>                0.0000
      8 C8          -0.0663 -15.6527  11.7731 C.2            1 <1>                0.0000
      9 C9          -0.7290 -14.5634  12.2946 C.2            1 <1>                0.0000
     10 N10         -0.6162 -13.5579  11.3847 N.pl3          1 <1>                0.0000
     11 C11         -1.0713 -12.2683  11.3804 C.2            1 <1>                0.0000
     12 C12          0.0730 -16.9705  12.4144 C.2            1 <1>                0.0000
     13 O13         -0.8966 -17.5011  12.9388 O.co2          1 <1>                0.0000
     14 O14          1.1584 -17.5350  12.4228 O.co2          1 <1>               -1.0000
     15 H15         -1.0434  -9.5366   9.4258 H              1 <1>                0.0000
     16 H16         -2.4285 -10.0499  10.4188 H              1 <1>                0.0000
     17 H17         -0.9243  -9.5089  11.2016 H              1 <1>                0.0000
     18 H18          0.1136 -11.2654   8.3968 H              1 <1>                0.0000
     19 H19         -1.2412 -14.5167  13.2444 H              1 <1>                0.0000
     20 H20         -1.6363 -11.8980  12.2231 H              1 <1>                0.0000
@<TRIPOS>BOND
    1    1    2 1     
    2    1   15 1     
    3    1   16 1     
    4    1   17 1     
    5    2    3 1     
    6    2   11 2     
    7    3    4 2     
    8    3   18 1     
    9    4    5 1     
   10    4    6 1     
   11    6    7 2     
   12    6   10 1     
   13    7    8 1     
   14    8    9 2     
   15    8   12 1     
   16    9   10 1     
   17    9   19 1     
   18   10   11 1     
   19   11   20 1     
   20   12   13 ar    
   21   12   14 ar    
@<TRIPOS>SUBSTRUCTURE
      1 ****           1
@<TRIPOS>COMMENT
> <Gold.Version>
2022.2.0

> <Gold.Id.Protein>
3pbl|protein|mol2

> <Gold.Protein.RotatedTorsions>
[ 1303 1298 1297 1294 ] final    0.45 input  179.99 | X-H torsion
[ 2461 2456 2455 2452 ] final -142.95 input   30.03 | X-H torsion
[ 2515 2510 2509 2506 ] final -178.59 input  -89.99 | X-H torsion
[ 3721 3712 3711 3710 ] final   33.69 input -179.91 | X-H torsion
[ 3841 3832 3831 3830 ] final   87.27 input -179.91 | X-H torsion
[ 3767 3762 3761 3758 ] final  116.72 input  -89.99 | X-H torsion
[ 2472 2467 2466 2463 ] final  -54.83 input  -89.97 | X-H torsion

> <Gold.Protein.ActiveResidues>
 VAL82   VAL86   LEU89   PHE106  VAL107  ASP110  VAL111  MET112  CYS114  THR115 
 CYS181  SER182  ILE183  PHE188  VAL189  ILE190  SER192  SER193  SER196  TRP342 
 PHE345  PHE346  HIS349  VAL350  TYR365  THR369  GLY372  TYR373 

> <Gold.Protein.RotatedAtoms>
    3.3885   -9.8784    4.0512 H   0  0  0  0  0  0  0  0  0  0  0  0  # atno 1303 bound_to 1298
    0.8718   -9.2770    8.2590 H   0  0  0  0  0  0  0  0  0  0  0  0  # atno 2461 bound_to 2456
   -3.6938   -5.1581    8.8876 H   0  0  0  0  0  0  0  0  0  0  0  0  # atno 2472 bound_to 2467
    2.3334   -9.0515    5.8269 H   0  0  0  0  0  0  0  0  0  0  0  0  # atno 2515 bound_to 2510
   -2.4902  -18.0281   13.7455 H   0  0  0  0  0  0  0  0  0  0  0  0  # atno 3721 bound_to 3712
   -3.9718  -23.2128   10.8583 H   0  0  0  0  0  0  0  0  0  0  0  0  # atno 3767 bound_to 3762
    2.8127  -20.9313    9.2903 H   0  0  0  0  0  0  0  0  0  0  0  0  # atno 3841 bound_to 3832
    4.2272   -8.4779    4.0900 LP  0  0  0  0  0  0  0  0  0  0  0  0  # atno 4297 bound_to 1298
    4.7467   -9.7649    4.9504 LP  0  0  0  0  0  0  0  0  0  0  0  0  # atno 4298 bound_to 1298
    2.1564   -8.3754    7.8068 LP  0  0  0  0  0  0  0  0  0  0  0  0  # atno 4299 bound_to 2456
    0.7094   -8.1560    7.0824 LP  0  0  0  0  0  0  0  0  0  0  0  0  # atno 4300 bound_to 2456
    2.1428   -7.4698    5.4698 LP  0  0  0  0  0  0  0  0  0  0  0  0  # atno 4301 bound_to 2510
    2.8206   -8.4775    4.3782 LP  0  0  0  0  0  0  0  0  0  0  0  0  # atno 4302 bound_to 2510
   -3.2026  -17.0478   14.7987 LP  0  0  0  0  0  0  0  0  0  0  0  0  # atno 4306 bound_to 3712
   -3.4501  -16.8648   13.1950 LP  0  0  0  0  0  0  0  0  0  0  0  0  # atno 4307 bound_to 3712
    1.3927  -20.1896    9.1938 LP  0  0  0  0  0  0  0  0  0  0  0  0  # atno 4314 bound_to 3832
    2.5876  -19.8369    8.1381 LP  0  0  0  0  0  0  0  0  0  0  0  0  # atno 4315 bound_to 3832
   -5.3519  -22.6767   10.1693 LP  0  0  0  0  0  0  0  0  0  0  0  0  # atno 4318 bound_to 3762
   -4.8034  -21.9857   11.5435 LP  0  0  0  0  0  0  0  0  0  0  0  0  # atno 4319 bound_to 3762
   -5.2959   -5.4047    9.0853 LP  0  0  0  0  0  0  0  0  0  0  0  0  # atno 4320 bound_to 2467
   -4.7271   -4.8308    7.6663 LP  0  0  0  0  0  0  0  0  0  0  0  0  # atno 4321 bound_to 2467

> <Gold.Score>
     Score     S(PLP)   S(hbond)     S(cho)   S(metal)  DE(clash)   DE(tors)     intcor
     40.58     -40.16       0.64       0.00       0.00       0.00       0.75       0.00

> <Gold.PLP.Fitness>
40.5785

> <Gold.PLP.PLP>
-40.1598

> <Gold.PLP.part.hbond>
-1.0000

> <Gold.PLP.part.metal>
0.0000

> <Gold.PLP.part.buried>
-4.5502

> <Gold.PLP.part.nonpolar>
-35.7615

> <Gold.PLP.part.repulsive>
0.2297

> <Gold.PLP.ligand.clash>
0.0000

> <Gold.PLP.ligand.torsion>
0.7506

> <Gold.PLP.Chemscore.Hbond>
0.6400

> <Gold.PLP.Chemscore.CHOScore>
0.0000

> <Gold.PLP.Chemscore.Metal>
0.0000

> <Gold.Chemscore.Hbonds>
donor molecule, donor type, donor heavy atom, donor atom, acceptor molecule, acceptor atom, score
      P1  H  3712  3721       L1    13  0.64

> <Gold.PLP.Chemscore.Internal.Correction>
0.0000

