#       Name:                EN300-7371540_i001
#       Creating user name   fsindt
#       Creation time:       Wed Mar  1 22:57:15 2023


#       File generated by GOLD software.
#

@<TRIPOS>MOLECULE
EN300-7371540_i001|acide_1|mol2|10402|dock20
    20    21     1
SMALL
USER_CHARGES


@<TRIPOS>ATOM
      1 C1           0.6608 -14.6153   6.2825 C.3            1 <1>                0.0000
      2 C2           0.4224 -14.4460   7.7609 C.2            1 <1>                0.0000
      3 C3           0.1369 -13.1718   8.2818 C.2            1 <1>                0.0000
      4 C4          -0.0778 -13.0212   9.6156 C.2            1 <1>                0.0000
      5 Br5         -0.4636 -11.3151  10.3339 Br             1 <1>                0.0000
      6 C6          -0.0102 -14.1526  10.4602 C.2            1 <1>                0.0000
      7 N7          -0.1720 -14.2905  11.7648 N.2            1 <1>                0.0000
      8 C8          -0.0036 -15.5855  12.0949 C.2            1 <1>                0.0000
      9 C9           0.2760 -16.2842  10.9411 C.2            1 <1>                0.0000
     10 N10          0.2707 -15.3835   9.9212 N.pl3          1 <1>                0.0000
     11 C11          0.4787 -15.5182   8.5762 C.2            1 <1>                0.0000
     12 C12         -0.1011 -16.1536  13.4495 C.2            1 <1>                0.0000
     13 O13          0.3405 -15.5325  14.4066 O.co2          1 <1>                0.0000
     14 O14         -0.6238 -17.2469  13.6182 O.co2          1 <1>               -1.0000
     15 H15          0.5708 -13.6485   5.7870 H              1 <1>                0.0000
     16 H16          1.6613 -15.0155   6.1192 H              1 <1>                0.0000
     17 H17         -0.0776 -15.3041   5.8720 H              1 <1>                0.0000
     18 H18          0.0887 -12.3159   7.6249 H              1 <1>                0.0000
     19 H19          0.4642 -17.3448  10.8613 H              1 <1>                0.0000
     20 H20          0.6933 -16.4929   8.1635 H              1 <1>                0.0000
@<TRIPOS>BOND
    1    1    2 1     
    2    1   15 1     
    3    1   16 1     
    4    1   17 1     
    5    2    3 1     
    6    2   11 2     
    7    3    4 2     
    8    3   18 1     
    9    4    5 1     
   10    4    6 1     
   11    6    7 2     
   12    6   10 1     
   13    7    8 1     
   14    8    9 2     
   15    8   12 1     
   16    9   10 1     
   17    9   19 1     
   18   10   11 1     
   19   11   20 1     
   20   12   13 ar    
   21   12   14 ar    
@<TRIPOS>SUBSTRUCTURE
      1 ****           1
@<TRIPOS>COMMENT
> <Gold.Version>
2022.2.0

> <Gold.Id.Protein>
3pbl|protein|mol2

> <Gold.Protein.RotatedTorsions>
[ 1303 1298 1297 1294 ] final   -6.58 input  179.99 | X-H torsion
[ 2461 2456 2455 2452 ] final   93.28 input   30.03 | X-H torsion
[ 2515 2510 2509 2506 ] final   19.67 input  -89.99 | X-H torsion
[ 3721 3712 3711 3710 ] final   26.79 input -179.91 | X-H torsion
[ 3841 3832 3831 3830 ] final -134.94 input -179.91 | X-H torsion
[ 3767 3762 3761 3758 ] final  -35.17 input  -89.99 | X-H torsion
[ 2472 2467 2466 2463 ] final -149.07 input  -89.97 | X-H torsion

> <Gold.Protein.ActiveResidues>
 VAL82   VAL86   LEU89   PHE106  VAL107  ASP110  VAL111  MET112  CYS114  THR115 
 CYS181  SER182  ILE183  PHE188  VAL189  ILE190  SER192  SER193  SER196  TRP342 
 PHE345  PHE346  HIS349  VAL350  TYR365  THR369  GLY372  TYR373 

> <Gold.Protein.RotatedAtoms>
    3.3573   -9.7836    3.9928 H   0  0  0  0  0  0  0  0  0  0  0  0  # atno 1303 bound_to 1298
    2.1485   -8.3333    7.7620 H   0  0  0  0  0  0  0  0  0  0  0  0  # atno 2461 bound_to 2456
   -4.9646   -5.4602    9.3380 H   0  0  0  0  0  0  0  0  0  0  0  0  # atno 2472 bound_to 2467
    2.4037   -7.4685    4.8510 H   0  0  0  0  0  0  0  0  0  0  0  0  # atno 2515 bound_to 2510
   -2.4774  -18.0344   13.8488 H   0  0  0  0  0  0  0  0  0  0  0  0  # atno 3721 bound_to 3712
   -5.5082  -22.2939   10.4815 H   0  0  0  0  0  0  0  0  0  0  0  0  # atno 3767 bound_to 3762
    2.4280  -19.6517    8.3828 H   0  0  0  0  0  0  0  0  0  0  0  0  # atno 3841 bound_to 3832
    4.3224   -8.4766    4.1556 LP  0  0  0  0  0  0  0  0  0  0  0  0  # atno 4297 bound_to 1298
    4.6828   -9.8609    4.9433 LP  0  0  0  0  0  0  0  0  0  0  0  0  # atno 4298 bound_to 1298
    0.6618   -8.1911    7.1010 LP  0  0  0  0  0  0  0  0  0  0  0  0  # atno 4299 bound_to 2456
    0.9277   -9.2837    8.2852 LP  0  0  0  0  0  0  0  0  0  0  0  0  # atno 4300 bound_to 2456
    2.7952   -9.0490    4.7305 LP  0  0  0  0  0  0  0  0  0  0  0  0  # atno 4301 bound_to 2510
    2.0978   -8.4821    6.0939 LP  0  0  0  0  0  0  0  0  0  0  0  0  # atno 4302 bound_to 2510
   -3.2578  -16.9590   14.7501 LP  0  0  0  0  0  0  0  0  0  0  0  0  # atno 4306 bound_to 3712
   -3.4096  -16.9463   13.1243 LP  0  0  0  0  0  0  0  0  0  0  0  0  # atno 4307 bound_to 3712
    2.9498  -21.0417    8.9926 LP  0  0  0  0  0  0  0  0  0  0  0  0  # atno 4314 bound_to 3832
    1.4748  -20.4629    9.3876 LP  0  0  0  0  0  0  0  0  0  0  0  0  # atno 4315 bound_to 3832
   -4.3685  -22.2458   11.6501 LP  0  0  0  0  0  0  0  0  0  0  0  0  # atno 4318 bound_to 3762
   -4.2509  -23.3352   10.4393 LP  0  0  0  0  0  0  0  0  0  0  0  0  # atno 4319 bound_to 3762
   -5.1138   -4.9227    7.8033 LP  0  0  0  0  0  0  0  0  0  0  0  0  # atno 4320 bound_to 2467
   -3.6385   -5.0107    8.4979 LP  0  0  0  0  0  0  0  0  0  0  0  0  # atno 4321 bound_to 2467

> <Gold.Score>
     Score     S(PLP)   S(hbond)     S(cho)   S(metal)  DE(clash)   DE(tors)     intcor
     37.32     -30.95       1.54       0.98       0.00       0.00       0.59       0.00

> <Gold.PLP.Fitness>
37.3245

> <Gold.PLP.PLP>
-30.9467

> <Gold.PLP.part.hbond>
-2.0000

> <Gold.PLP.part.metal>
0.0000

> <Gold.PLP.part.buried>
-0.4282

> <Gold.PLP.part.nonpolar>
-30.9512

> <Gold.PLP.part.repulsive>
0.1519

> <Gold.PLP.ligand.clash>
0.0000

> <Gold.PLP.ligand.torsion>
0.5909

> <Gold.PLP.Chemscore.Hbond>
1.5440

> <Gold.PLP.Chemscore.CHOScore>
0.9759

> <Gold.PLP.Chemscore.Metal>
0.0000

> <Gold.Chemscore.Hbonds>
donor molecule, donor type, donor heavy atom, donor atom, acceptor molecule, acceptor atom, score
      P1  H  2305  2313       L1    13  1.00
      P1  H  3712  3721       L1    14  0.54
      L1  C     9    19       P1  1227  0.51
      L1  C    11    20       P1  1227  0.47

> <Gold.PLP.Chemscore.Internal.Correction>
0.0000

