#       Name:                EN300-7371540_i001
#       Creating user name   fsindt
#       Creation time:       Wed Mar  1 22:57:10 2023


#       File generated by GOLD software.
#

@<TRIPOS>MOLECULE
EN300-7371540_i001
    20    21     1
SMALL
USER_CHARGES


@<TRIPOS>ATOM
      1 C1           2.5208   2.2067  -0.0017 C.3            1 <1>                0.0000
      2 C2           1.5861   1.0246  -0.0011 C.2            1 <1>                0.0000
      3 C3           2.1090  -0.2804  -0.0011 C.2            1 <1>                0.0000
      4 C4           1.2642  -1.3453  -0.0006 C.2            1 <1>                0.0000
      5 Br5          1.9495  -3.1077  -0.0000 Br             1 <1>                0.0000
      6 C6          -0.1316  -1.1223  -0.0000 C.2            1 <1>                0.0000
      7 N7          -1.1580  -1.9551  -0.0002 N.2            1 <1>                0.0000
      8 C8          -2.3020  -1.2440  -0.0003 C.2            1 <1>                0.0000
      9 C9          -1.9701   0.0930  -0.0002 C.2            1 <1>                0.0000
     10 N10         -0.6112   0.1640  -0.0000 N.pl3          1 <1>                0.0000
     11 C11          0.2528   1.2241   0.0050 C.2            1 <1>                0.0000
     12 C12         -3.6660  -1.7979  -0.0005 C.2            1 <1>                0.0000
     13 O13         -3.8341  -3.0097  -0.0001 O.co2          1 <1>                0.0000
     14 O14         -4.6314  -1.0463  -0.0010 O.co2          1 <1>               -1.0000
     15 H15          3.5523   1.8542  -0.0021 H              1 <1>                0.0000
     16 H16          2.3428   2.8103  -0.8916 H              1 <1>                0.0000
     17 H17          2.3435   2.8105   0.8883 H              1 <1>                0.0000
     18 H18          3.1777  -0.4362  -0.0019 H              1 <1>                0.0000
     19 H19         -2.6575   0.9261  -0.0009 H              1 <1>                0.0000
     20 H20         -0.1370   2.2313   0.0107 H              1 <1>                0.0000
@<TRIPOS>BOND
    1    1    2 1     
    2    1   15 1     
    3    1   16 1     
    4    1   17 1     
    5    2    3 1     
    6    2   11 2     
    7    3    4 2     
    8    3   18 1     
    9    4    5 1     
   10    4    6 1     
   11    6    7 2     
   12    6   10 1     
   13    7    8 1     
   14    8    9 2     
   15    8   12 1     
   16    9   10 1     
   17    9   19 1     
   18   10   11 1     
   19   11   20 1     
   20   12   13 ar    
   21   12   14 ar    
@<TRIPOS>SUBSTRUCTURE
      1 ****           1
