#       Name:                EN300-7371540_i001
#       Creating user name   fsindt
#       Creation time:       Wed Mar  1 22:57:14 2023


#       File generated by GOLD software.
#

@<TRIPOS>MOLECULE
EN300-7371540_i001|acide_1|mol2|10402|dock17
    20    21     1
SMALL
USER_CHARGES


@<TRIPOS>ATOM
      1 C1          -4.8600 -10.0331  10.1845 C.3            1 <1>                0.0000
      2 C2          -3.4525 -10.5586  10.0675 C.2            1 <1>                0.0000
      3 C3          -2.4132  -9.9404  10.7846 C.2            1 <1>                0.0000
      4 C4          -1.1443 -10.4159  10.6776 C.2            1 <1>                0.0000
      5 Br5          0.2659  -9.5974  11.6352 Br             1 <1>                0.0000
      6 C6          -0.8895 -11.5286   9.8440 C.2            1 <1>                0.0000
      7 N7           0.2240 -12.1820   9.5607 N.2            1 <1>                0.0000
      8 C8          -0.0578 -13.1807   8.7020 C.2            1 <1>                0.0000
      9 C9          -1.4098 -13.1457   8.4399 C.2            1 <1>                0.0000
     10 N10         -1.9257 -12.1104   9.1567 N.pl3          1 <1>                0.0000
     11 C11         -3.1974 -11.6227   9.2799 C.2            1 <1>                0.0000
     12 C12          0.9084 -14.1402   8.1424 C.2            1 <1>                0.0000
     13 O13          1.9506 -14.3766   8.7379 O.co2          1 <1>                0.0000
     14 O14          0.6690 -14.7013   7.0819 O.co2          1 <1>               -1.0000
     15 H15         -4.8740  -9.1798  10.8628 H              1 <1>                0.0000
     16 H16         -5.2146  -9.7219   9.2020 H              1 <1>                0.0000
     17 H17         -5.5094 -10.8172  10.5736 H              1 <1>                0.0000
     18 H18         -2.6222  -9.0907  11.4177 H              1 <1>                0.0000
     19 H19         -1.9560 -13.8124   7.7890 H              1 <1>                0.0000
     20 H20         -4.0049 -12.0927   8.7384 H              1 <1>                0.0000
@<TRIPOS>BOND
    1    1    2 1     
    2    1   15 1     
    3    1   16 1     
    4    1   17 1     
    5    2    3 1     
    6    2   11 2     
    7    3    4 2     
    8    3   18 1     
    9    4    5 1     
   10    4    6 1     
   11    6    7 2     
   12    6   10 1     
   13    7    8 1     
   14    8    9 2     
   15    8   12 1     
   16    9   10 1     
   17    9   19 1     
   18   10   11 1     
   19   11   20 1     
   20   12   13 ar    
   21   12   14 ar    
@<TRIPOS>SUBSTRUCTURE
      1 ****           1
@<TRIPOS>COMMENT
> <Gold.Version>
2022.2.0

> <Gold.Id.Protein>
3pbl|protein|mol2

> <Gold.Protein.RotatedTorsions>
[ 1303 1298 1297 1294 ] final  -52.19 input  179.99 | X-H torsion
[ 2461 2456 2455 2452 ] final -102.48 input   30.03 | X-H torsion
[ 2515 2510 2509 2506 ] final   89.85 input  -89.99 | X-H torsion
[ 3721 3712 3711 3710 ] final  150.50 input -179.91 | X-H torsion
[ 3841 3832 3831 3830 ] final  -48.39 input -179.91 | X-H torsion
[ 3767 3762 3761 3758 ] final  -24.92 input  -89.99 | X-H torsion
[ 2472 2467 2466 2463 ] final  146.79 input  -89.97 | X-H torsion

> <Gold.Protein.ActiveResidues>
 VAL82   VAL86   LEU89   PHE106  VAL107  ASP110  VAL111  MET112  CYS114  THR115 
 CYS181  SER182  ILE183  PHE188  VAL189  ILE190  SER192  SER193  SER196  TRP342 
 PHE345  PHE346  HIS349  VAL350  TYR365  THR369  GLY372  TYR373 

> <Gold.Protein.RotatedAtoms>
    3.4379   -9.0895    3.7795 H   0  0  0  0  0  0  0  0  0  0  0  0  # atno 1303 bound_to 1298
    0.4189   -9.0334    7.8576 H   0  0  0  0  0  0  0  0  0  0  0  0  # atno 2461 bound_to 2456
   -5.5099   -5.2292    8.5307 H   0  0  0  0  0  0  0  0  0  0  0  0  # atno 2472 bound_to 2467
    2.0440   -7.7320    5.8385 H   0  0  0  0  0  0  0  0  0  0  0  0  # atno 2515 bound_to 2510
   -3.2083  -16.8590   13.2025 H   0  0  0  0  0  0  0  0  0  0  0  0  # atno 3721 bound_to 3712
   -5.4834  -22.4112   10.3630 H   0  0  0  0  0  0  0  0  0  0  0  0  # atno 3767 bound_to 3762
    1.5717  -19.9250    9.1578 H   0  0  0  0  0  0  0  0  0  0  0  0  # atno 3841 bound_to 3832
    4.8086   -8.7780    4.6105 LP  0  0  0  0  0  0  0  0  0  0  0  0  # atno 4297 bound_to 1298
    4.1159  -10.2539    4.7018 LP  0  0  0  0  0  0  0  0  0  0  0  0  # atno 4298 bound_to 1298
    1.9994   -8.8499    8.2259 LP  0  0  0  0  0  0  0  0  0  0  0  0  # atno 4299 bound_to 2456
    1.3191   -7.9251    7.0646 LP  0  0  0  0  0  0  0  0  0  0  0  0  # atno 4300 bound_to 2456
    2.7214   -8.0252    4.3821 LP  0  0  0  0  0  0  0  0  0  0  0  0  # atno 4301 bound_to 2510
    2.5315   -9.2422    5.4543 LP  0  0  0  0  0  0  0  0  0  0  0  0  # atno 4302 bound_to 2510
   -2.6192  -18.2175   13.8232 LP  0  0  0  0  0  0  0  0  0  0  0  0  # atno 4306 bound_to 3712
   -3.2044  -17.0448   14.7973 LP  0  0  0  0  0  0  0  0  0  0  0  0  # atno 4307 bound_to 3712
    2.8273  -20.0313    8.1637 LP  0  0  0  0  0  0  0  0  0  0  0  0  # atno 4314 bound_to 3832
    2.5865  -21.1576    9.3213 LP  0  0  0  0  0  0  0  0  0  0  0  0  # atno 4315 bound_to 3832
   -4.5032  -22.1449   11.6418 LP  0  0  0  0  0  0  0  0  0  0  0  0  # atno 4318 bound_to 3762
   -4.1410  -23.3188   10.5660 LP  0  0  0  0  0  0  0  0  0  0  0  0  # atno 4319 bound_to 3762
   -4.1196   -4.8069    7.7857 LP  0  0  0  0  0  0  0  0  0  0  0  0  # atno 4320 bound_to 2467
   -4.0877   -5.3574    9.3227 LP  0  0  0  0  0  0  0  0  0  0  0  0  # atno 4321 bound_to 2467

> <Gold.Score>
     Score     S(PLP)   S(hbond)     S(cho)   S(metal)  DE(clash)   DE(tors)     intcor
     43.14     -43.63       0.00       0.00       0.00       0.00       0.25       0.00

> <Gold.PLP.Fitness>
43.1356

> <Gold.PLP.PLP>
-43.6329

> <Gold.PLP.part.hbond>
0.0000

> <Gold.PLP.part.metal>
0.0000

> <Gold.PLP.part.buried>
-5.6198

> <Gold.PLP.part.nonpolar>
-39.3710

> <Gold.PLP.part.repulsive>
0.2963

> <Gold.PLP.ligand.clash>
0.0000

> <Gold.PLP.ligand.torsion>
0.2486

> <Gold.PLP.Chemscore.Hbond>
0.0000

> <Gold.PLP.Chemscore.CHOScore>
0.0000

> <Gold.PLP.Chemscore.Metal>
0.0000

> <Gold.PLP.Chemscore.Internal.Correction>
0.0000

