#       Name:                EN300-7371540_i001
#       Creating user name   fsindt
#       Creation time:       Wed Mar  1 22:57:11 2023


#       File generated by GOLD software.
#

@<TRIPOS>MOLECULE
EN300-7371540_i001|acide_1|mol2|10402|dock3
    20    21     1
SMALL
USER_CHARGES


@<TRIPOS>ATOM
      1 C1           0.8186 -13.6892   6.9511 C.3            1 <1>                0.0000
      2 C2           0.4747 -14.6394   8.0690 C.2            1 <1>                0.0000
      3 C3          -0.0917 -15.8916   7.7732 C.2            1 <1>                0.0000
      4 C4          -0.4012 -16.7473   8.7830 C.2            1 <1>                0.0000
      5 Br5         -1.1631 -18.4359   8.4039 Br             1 <1>                0.0000
      6 C6          -0.1473 -16.3626  10.1193 C.2            1 <1>                0.0000
      7 N7          -0.3461 -16.9836  11.2690 N.2            1 <1>                0.0000
      8 C8           0.0654 -16.1889  12.2757 C.2            1 <1>                0.0000
      9 C9           0.5419 -15.0195  11.7249 C.2            1 <1>                0.0000
     10 N10          0.4067 -15.1330  10.3757 N.pl3          1 <1>                0.0000
     11 C11          0.7170 -14.2864   9.3474 C.2            1 <1>                0.0000
     12 C12          0.0148 -16.5127  13.7109 C.2            1 <1>                0.0000
     13 O13          0.4133 -15.7016  14.5354 O.co2          1 <1>                0.0000
     14 O14         -0.4260 -17.5931  14.0789 O.co2          1 <1>               -1.0000
     15 H15          0.5586 -14.1437   5.9950 H              1 <1>                0.0000
     16 H16          0.2590 -12.7624   7.0768 H              1 <1>                0.0000
     17 H17          1.8870 -13.4743   6.9726 H              1 <1>                0.0000
     18 H18         -0.2806 -16.1725   6.7476 H              1 <1>                0.0000
     19 H19          0.9452 -14.1736  12.2618 H              1 <1>                0.0000
     20 H20          1.1578 -13.3240   9.5619 H              1 <1>                0.0000
@<TRIPOS>BOND
    1    1    2 1     
    2    1   15 1     
    3    1   16 1     
    4    1   17 1     
    5    2    3 1     
    6    2   11 2     
    7    3    4 2     
    8    3   18 1     
    9    4    5 1     
   10    4    6 1     
   11    6    7 2     
   12    6   10 1     
   13    7    8 1     
   14    8    9 2     
   15    8   12 1     
   16    9   10 1     
   17    9   19 1     
   18   10   11 1     
   19   11   20 1     
   20   12   13 ar    
   21   12   14 ar    
@<TRIPOS>SUBSTRUCTURE
      1 ****           1
@<TRIPOS>COMMENT
> <Gold.Version>
2022.2.0

> <Gold.Id.Protein>
3pbl|protein|mol2

> <Gold.Protein.RotatedTorsions>
[ 1303 1298 1297 1294 ] final   38.26 input  179.99 | X-H torsion
[ 2461 2456 2455 2452 ] final  -98.31 input   30.03 | X-H torsion
[ 2515 2510 2509 2506 ] final  135.11 input  -89.99 | X-H torsion
[ 3721 3712 3711 3710 ] final   11.63 input -179.91 | X-H torsion
[ 3841 3832 3831 3830 ] final  132.47 input -179.91 | X-H torsion
[ 3767 3762 3761 3758 ] final  177.55 input  -89.99 | X-H torsion
[ 2472 2467 2466 2463 ] final   -6.90 input  -89.97 | X-H torsion

> <Gold.Protein.ActiveResidues>
 VAL82   VAL86   LEU89   PHE106  VAL107  ASP110  VAL111  MET112  CYS114  THR115 
 CYS181  SER182  ILE183  PHE188  VAL189  ILE190  SER192  SER193  SER196  TRP342 
 PHE345  PHE346  HIS349  VAL350  TYR365  THR369  GLY372  TYR373 

> <Gold.Protein.RotatedAtoms>
    3.7260  -10.2278    4.4214 H   0  0  0  0  0  0  0  0  0  0  0  0  # atno 1303 bound_to 1298
    0.3925   -8.9934    7.8084 H   0  0  0  0  0  0  0  0  0  0  0  0  # atno 2461 bound_to 2456
   -3.7399   -4.9033    8.1668 H   0  0  0  0  0  0  0  0  0  0  0  0  # atno 2472 bound_to 2467
    2.0811   -8.4088    6.0964 H   0  0  0  0  0  0  0  0  0  0  0  0  # atno 2515 bound_to 2510
   -2.4712  -18.0099   14.0758 H   0  0  0  0  0  0  0  0  0  0  0  0  # atno 3721 bound_to 3712
   -4.0731  -22.5628   11.5504 H   0  0  0  0  0  0  0  0  0  0  0  0  # atno 3767 bound_to 3762
    3.1247  -20.6028    8.8030 H   0  0  0  0  0  0  0  0  0  0  0  0  # atno 3841 bound_to 3832
    3.7242   -8.7062    3.8290 LP  0  0  0  0  0  0  0  0  0  0  0  0  # atno 4297 bound_to 1298
    4.9121   -9.1870    4.8411 LP  0  0  0  0  0  0  0  0  0  0  0  0  # atno 4298 bound_to 1298
    1.9597   -8.8957    8.2579 LP  0  0  0  0  0  0  0  0  0  0  0  0  # atno 4299 bound_to 2456
    1.3853   -7.9192    7.0818 LP  0  0  0  0  0  0  0  0  0  0  0  0  # atno 4300 bound_to 2456
    2.4358   -7.4970    4.7893 LP  0  0  0  0  0  0  0  0  0  0  0  0  # atno 4301 bound_to 2510
    2.7800   -9.0933    4.7892 LP  0  0  0  0  0  0  0  0  0  0  0  0  # atno 4302 bound_to 2510
   -3.3693  -16.7875   14.6021 LP  0  0  0  0  0  0  0  0  0  0  0  0  # atno 4306 bound_to 3712
   -3.3054  -17.1460   13.0102 LP  0  0  0  0  0  0  0  0  0  0  0  0  # atno 4307 bound_to 3712
    1.7005  -20.7709    9.5237 LP  0  0  0  0  0  0  0  0  0  0  0  0  # atno 4314 bound_to 3832
    1.9193  -19.6350    8.3711 LP  0  0  0  0  0  0  0  0  0  0  0  0  # atno 4315 bound_to 3832
   -4.6033  -23.2691   10.1768 LP  0  0  0  0  0  0  0  0  0  0  0  0  # atno 4318 bound_to 3762
   -5.4507  -22.0431   10.8441 LP  0  0  0  0  0  0  0  0  0  0  0  0  # atno 4319 bound_to 3762
   -4.6143   -5.4544    9.4310 LP  0  0  0  0  0  0  0  0  0  0  0  0  # atno 4320 bound_to 2467
   -5.3626   -5.0358    8.0412 LP  0  0  0  0  0  0  0  0  0  0  0  0  # atno 4321 bound_to 2467

> <Gold.Score>
     Score     S(PLP)   S(hbond)     S(cho)   S(metal)  DE(clash)   DE(tors)     intcor
     45.57     -40.22       1.78       0.00       0.00       0.00       0.00       0.00

> <Gold.PLP.Fitness>
45.5710

> <Gold.PLP.PLP>
-40.2191

> <Gold.PLP.part.hbond>
-2.0000

> <Gold.PLP.part.metal>
0.0000

> <Gold.PLP.part.buried>
-2.4705

> <Gold.PLP.part.nonpolar>
-36.2559

> <Gold.PLP.part.repulsive>
0.1592

> <Gold.PLP.ligand.clash>
0.0000

> <Gold.PLP.ligand.torsion>
0.0000

> <Gold.PLP.Chemscore.Hbond>
1.7840

> <Gold.PLP.Chemscore.CHOScore>
0.0000

> <Gold.PLP.Chemscore.Metal>
0.0000

> <Gold.Chemscore.Hbonds>
donor molecule, donor type, donor heavy atom, donor atom, acceptor molecule, acceptor atom, score
      P1  H  2305  2313       L1    13  1.00
      P1  H  3712  3721       L1    14  0.78

> <Gold.PLP.Chemscore.Internal.Correction>
0.0000

