#       Name:                EN300-7371540_i001
#       Creating user name   fsindt
#       Creation time:       Wed Mar  1 22:57:13 2023


#       File generated by GOLD software.
#

@<TRIPOS>MOLECULE
EN300-7371540_i001|acide_1|mol2|10402|dock13
    20    21     1
SMALL
USER_CHARGES


@<TRIPOS>ATOM
      1 C1           0.2710 -12.2229   7.6282 C.3            1 <1>                0.0000
      2 C2           0.1437 -13.4151   8.5411 C.2            1 <1>                0.0000
      3 C3           0.0283 -14.7053   7.9945 C.2            1 <1>                0.0000
      4 C4          -0.0865 -15.7793   8.8197 C.2            1 <1>                0.0000
      5 Br5         -0.2421 -17.5221   8.1025 Br             1 <1>                0.0000
      6 C6          -0.0878 -15.5808  10.2192 C.2            1 <1>                0.0000
      7 N7          -0.1841 -16.4269  11.2301 N.2            1 <1>                0.0000
      8 C8          -0.1355 -15.7382  12.3868 C.2            1 <1>                0.0000
      9 C9          -0.0028 -14.4020  12.0793 C.2            1 <1>                0.0000
     10 N10          0.0266 -14.3086  10.7221 N.pl3          1 <1>                0.0000
     11 C11          0.1467 -13.2395   9.8777 C.2            1 <1>                0.0000
     12 C12         -0.2109 -16.3123  13.7403 C.2            1 <1>                0.0000
     13 O13         -0.4719 -17.4984  13.8880 O.co2          1 <1>                0.0000
     14 O14         -0.0126 -15.6032  14.7174 O.co2          1 <1>               -1.0000
     15 H15          0.2541 -12.5564   6.5905 H              1 <1>                0.0000
     16 H16         -0.5603 -11.5403   7.8039 H              1 <1>                0.0000
     17 H17          1.2113 -11.7098   7.8297 H              1 <1>                0.0000
     18 H18          0.0303 -14.8424   6.9233 H              1 <1>                0.0000
     19 H19          0.0643 -13.5842  12.7817 H              1 <1>                0.0000
     20 H20          0.2417 -12.2441  10.2859 H              1 <1>                0.0000
@<TRIPOS>BOND
    1    1    2 1     
    2    1   15 1     
    3    1   16 1     
    4    1   17 1     
    5    2    3 1     
    6    2   11 2     
    7    3    4 2     
    8    3   18 1     
    9    4    5 1     
   10    4    6 1     
   11    6    7 2     
   12    6   10 1     
   13    7    8 1     
   14    8    9 2     
   15    8   12 1     
   16    9   10 1     
   17    9   19 1     
   18   10   11 1     
   19   11   20 1     
   20   12   13 ar    
   21   12   14 ar    
@<TRIPOS>SUBSTRUCTURE
      1 ****           1
@<TRIPOS>COMMENT
> <Gold.Version>
2022.2.0

> <Gold.Id.Protein>
3pbl|protein|mol2

> <Gold.Protein.RotatedTorsions>
[ 1303 1298 1297 1294 ] final   22.72 input  179.99 | X-H torsion
[ 2461 2456 2455 2452 ] final   79.71 input   30.03 | X-H torsion
[ 2515 2510 2509 2506 ] final  141.12 input  -89.99 | X-H torsion
[ 3721 3712 3711 3710 ] final   22.84 input -179.91 | X-H torsion
[ 3841 3832 3831 3830 ] final  127.60 input -179.91 | X-H torsion
[ 3767 3762 3761 3758 ] final    0.18 input  -89.99 | X-H torsion
[ 2472 2467 2466 2463 ] final -129.72 input  -89.97 | X-H torsion

> <Gold.Protein.ActiveResidues>
 VAL82   VAL86   LEU89   PHE106  VAL107  ASP110  VAL111  MET112  CYS114  THR115 
 CYS181  SER182  ILE183  PHE188  VAL189  ILE190  SER192  SER193  SER196  TRP342 
 PHE345  PHE346  HIS349  VAL350  TYR365  THR369  GLY372  TYR373 

> <Gold.Protein.RotatedAtoms>
    3.5567  -10.1222    4.2628 H   0  0  0  0  0  0  0  0  0  0  0  0  # atno 1303 bound_to 1298
    2.0873   -8.1928    7.6003 H   0  0  0  0  0  0  0  0  0  0  0  0  # atno 2461 bound_to 2456
   -4.6604   -5.4585    9.4262 H   0  0  0  0  0  0  0  0  0  0  0  0  # atno 2472 bound_to 2467
    2.1039   -8.5049    6.0916 H   0  0  0  0  0  0  0  0  0  0  0  0  # atno 2515 bound_to 2510
   -2.4729  -18.0330   13.9083 H   0  0  0  0  0  0  0  0  0  0  0  0  # atno 3721 bound_to 3712
   -5.3215  -22.7190   10.1461 H   0  0  0  0  0  0  0  0  0  0  0  0  # atno 3767 bound_to 3762
    3.1121  -20.6527    8.8555 H   0  0  0  0  0  0  0  0  0  0  0  0  # atno 3841 bound_to 3832
    3.9222   -8.5695    3.9136 LP  0  0  0  0  0  0  0  0  0  0  0  0  # atno 4297 bound_to 1298
    4.8835   -9.4293    4.9153 LP  0  0  0  0  0  0  0  0  0  0  0  0  # atno 4298 bound_to 1298
    0.5128   -8.3314    7.1890 LP  0  0  0  0  0  0  0  0  0  0  0  0  # atno 4299 bound_to 2456
    1.1379   -9.2839    8.3588 LP  0  0  0  0  0  0  0  0  0  0  0  0  # atno 4300 bound_to 2456
    2.3935   -7.4602    4.8707 LP  0  0  0  0  0  0  0  0  0  0  0  0  # atno 4301 bound_to 2510
    2.7996   -9.0340    4.7125 LP  0  0  0  0  0  0  0  0  0  0  0  0  # atno 4302 bound_to 2510
   -3.2883  -16.9109   14.7168 LP  0  0  0  0  0  0  0  0  0  0  0  0  # atno 4306 bound_to 3712
   -3.3844  -16.9959   13.0889 LP  0  0  0  0  0  0  0  0  0  0  0  0  # atno 4307 bound_to 3712
    1.6459  -20.7133    9.5059 LP  0  0  0  0  0  0  0  0  0  0  0  0  # atno 4314 bound_to 3832
    1.9885  -19.6350    8.3283 LP  0  0  0  0  0  0  0  0  0  0  0  0  # atno 4315 bound_to 3832
   -4.8516  -21.9681   11.5181 LP  0  0  0  0  0  0  0  0  0  0  0  0  # atno 4318 bound_to 3762
   -3.9545  -23.1880   10.9066 LP  0  0  0  0  0  0  0  0  0  0  0  0  # atno 4319 bound_to 3762
   -5.3368   -5.0203    8.0060 LP  0  0  0  0  0  0  0  0  0  0  0  0  # atno 4320 bound_to 2467
   -3.7197   -4.9149    8.2072 LP  0  0  0  0  0  0  0  0  0  0  0  0  # atno 4321 bound_to 2467

> <Gold.Score>
     Score     S(PLP)   S(hbond)     S(cho)   S(metal)  DE(clash)   DE(tors)     intcor
     40.33     -35.27       1.70       0.00       0.00       0.00       0.03       0.00

> <Gold.PLP.Fitness>
40.3258

> <Gold.PLP.PLP>
-35.2702

> <Gold.PLP.part.hbond>
-2.0000

> <Gold.PLP.part.metal>
0.0000

> <Gold.PLP.part.buried>
-2.7838

> <Gold.PLP.part.nonpolar>
-30.8150

> <Gold.PLP.part.repulsive>
0.2121

> <Gold.PLP.ligand.clash>
0.0000

> <Gold.PLP.ligand.torsion>
0.0282

> <Gold.PLP.Chemscore.Hbond>
1.7040

> <Gold.PLP.Chemscore.CHOScore>
0.0000

> <Gold.PLP.Chemscore.Metal>
0.0000

> <Gold.Chemscore.Hbonds>
donor molecule, donor type, donor heavy atom, donor atom, acceptor molecule, acceptor atom, score
      P1  H  2305  2313       L1    14  1.00
      P1  H  3712  3721       L1    13  0.70

> <Gold.PLP.Chemscore.Internal.Correction>
0.0000

