#       Name:                EN300-7371540_i001
#       Creating user name   fsindt
#       Creation time:       Wed Mar  1 22:57:15 2023


#       File generated by GOLD software.
#

@<TRIPOS>MOLECULE
EN300-7371540_i001|acide_1|mol2|10402|dock18
    20    21     1
SMALL
USER_CHARGES


@<TRIPOS>ATOM
      1 C1           0.5016 -16.5991   7.7151 C.3            1 <1>                0.0000
      2 C2           0.4209 -15.1089   7.9244 C.2            1 <1>                0.0000
      3 C3           0.8910 -14.2362   6.9275 C.2            1 <1>                0.0000
      4 C4           0.8173 -12.8924   7.1183 C.2            1 <1>                0.0000
      5 Br5          1.4442 -11.7034   5.7882 Br             1 <1>                0.0000
      6 C6           0.2670 -12.3924   8.3205 C.2            1 <1>                0.0000
      7 N7           0.0785 -11.1598   8.7588 N.2            1 <1>                0.0000
      8 C8          -0.4863 -11.2086   9.9807 C.2            1 <1>                0.0000
      9 C9          -0.6563 -12.5337  10.3166 C.2            1 <1>                0.0000
     10 N10         -0.1836 -13.2704   9.2748 N.pl3          1 <1>                0.0000
     11 C11         -0.1069 -14.6196   9.0644 C.2            1 <1>                0.0000
     12 C12         -0.8565 -10.0502  10.8105 C.2            1 <1>                0.0000
     13 O13         -2.0056  -9.6308  10.7976 O.co2          1 <1>                0.0000
     14 O14         -0.0148  -9.5072  11.5131 O.co2          1 <1>               -1.0000
     15 H15          0.9489 -16.8057   6.7427 H              1 <1>                0.0000
     16 H16          1.1149 -17.0435   8.4989 H              1 <1>                0.0000
     17 H17         -0.5007 -17.0260   7.7521 H              1 <1>                0.0000
     18 H18          1.3095 -14.6319   6.0139 H              1 <1>                0.0000
     19 H19         -1.0829 -12.9152  11.2326 H              1 <1>                0.0000
     20 H20         -0.4700 -15.2999   9.8205 H              1 <1>                0.0000
@<TRIPOS>BOND
    1    1    2 1     
    2    1   15 1     
    3    1   16 1     
    4    1   17 1     
    5    2    3 1     
    6    2   11 2     
    7    3    4 2     
    8    3   18 1     
    9    4    5 1     
   10    4    6 1     
   11    6    7 2     
   12    6   10 1     
   13    7    8 1     
   14    8    9 2     
   15    8   12 1     
   16    9   10 1     
   17    9   19 1     
   18   10   11 1     
   19   11   20 1     
   20   12   13 ar    
   21   12   14 ar    
@<TRIPOS>SUBSTRUCTURE
      1 ****           1
@<TRIPOS>COMMENT
> <Gold.Version>
2022.2.0

> <Gold.Id.Protein>
3pbl|protein|mol2

> <Gold.Protein.RotatedTorsions>
[ 1303 1298 1297 1294 ] final  -19.93 input  179.99 | X-H torsion
[ 2461 2456 2455 2452 ] final -138.19 input   30.03 | X-H torsion
[ 2515 2510 2509 2506 ] final  -64.52 input  -89.99 | X-H torsion
[ 3721 3712 3711 3710 ] final -173.51 input -179.91 | X-H torsion
[ 3841 3832 3831 3830 ] final  -58.93 input -179.91 | X-H torsion
[ 3767 3762 3761 3758 ] final  153.67 input  -89.99 | X-H torsion
[ 2472 2467 2466 2463 ] final   14.41 input  -89.97 | X-H torsion

> <Gold.Protein.ActiveResidues>
 VAL82   VAL86   LEU89   PHE106  VAL107  ASP110  VAL111  MET112  CYS114  THR115 
 CYS181  SER182  ILE183  PHE188  VAL189  ILE190  SER192  SER193  SER196  TRP342 
 PHE345  PHE346  HIS349  VAL350  TYR365  THR369  GLY372  TYR373 

> <Gold.Protein.RotatedAtoms>
    3.3299   -9.5881    3.8979 H   0  0  0  0  0  0  0  0  0  0  0  0  # atno 1303 bound_to 1298
    0.8037   -9.2641    8.2224 H   0  0  0  0  0  0  0  0  0  0  0  0  # atno 2461 bound_to 2456
   -3.9538   -4.8311    7.9011 H   0  0  0  0  0  0  0  0  0  0  0  0  # atno 2472 bound_to 2467
    2.8299   -8.5710    4.4044 H   0  0  0  0  0  0  0  0  0  0  0  0  # atno 2515 bound_to 2510
   -3.3328  -16.5742   13.6383 H   0  0  0  0  0  0  0  0  0  0  0  0  # atno 3721 bound_to 3712
   -3.9294  -22.8547   11.3351 H   0  0  0  0  0  0  0  0  0  0  0  0  # atno 3767 bound_to 3762
    1.6081  -19.8215    9.0425 H   0  0  0  0  0  0  0  0  0  0  0  0  # atno 3841 bound_to 3832
    4.4936   -8.5111    4.2880 LP  0  0  0  0  0  0  0  0  0  0  0  0  # atno 4297 bound_to 1298
    4.5390  -10.0220    4.9059 LP  0  0  0  0  0  0  0  0  0  0  0  0  # atno 4298 bound_to 1298
    2.1611   -8.4300    7.8629 LP  0  0  0  0  0  0  0  0  0  0  0  0  # atno 4299 bound_to 2456
    0.7729   -8.1143    7.0630 LP  0  0  0  0  0  0  0  0  0  0  0  0  # atno 4300 bound_to 2456
    2.2933   -8.9879    5.8890 LP  0  0  0  0  0  0  0  0  0  0  0  0  # atno 4301 bound_to 2510
    2.1734   -7.4402    5.3822 LP  0  0  0  0  0  0  0  0  0  0  0  0  # atno 4302 bound_to 2510
   -2.7716  -18.0356   13.2813 LP  0  0  0  0  0  0  0  0  0  0  0  0  # atno 4306 bound_to 3712
   -2.9084  -17.5555   14.8361 LP  0  0  0  0  0  0  0  0  0  0  0  0  # atno 4307 bound_to 3712
    2.9381  -20.1599    8.2102 LP  0  0  0  0  0  0  0  0  0  0  0  0  # atno 4314 bound_to 3832
    2.4336  -21.1486    9.4079 LP  0  0  0  0  0  0  0  0  0  0  0  0  # atno 4315 bound_to 3832
   -4.9342  -23.0924   10.0699 LP  0  0  0  0  0  0  0  0  0  0  0  0  # atno 4318 bound_to 3762
   -5.2634  -21.9280   11.1663 LP  0  0  0  0  0  0  0  0  0  0  0  0  # atno 4319 bound_to 3762
   -4.2709   -5.4043    9.3969 LP  0  0  0  0  0  0  0  0  0  0  0  0  # atno 4320 bound_to 2467
   -5.4920   -5.1581    8.3410 LP  0  0  0  0  0  0  0  0  0  0  0  0  # atno 4321 bound_to 2467

> <Gold.Score>
     Score     S(PLP)   S(hbond)     S(cho)   S(metal)  DE(clash)   DE(tors)     intcor
     43.93     -43.89       1.00       0.00       0.00       0.00       1.48       0.00

> <Gold.PLP.Fitness>
43.9308

> <Gold.PLP.PLP>
-43.8944

> <Gold.PLP.part.hbond>
-1.0000

> <Gold.PLP.part.metal>
0.0000

> <Gold.PLP.part.buried>
-4.0731

> <Gold.PLP.part.nonpolar>
-39.8546

> <Gold.PLP.part.repulsive>
0.4223

> <Gold.PLP.ligand.clash>
0.0000

> <Gold.PLP.ligand.torsion>
1.4818

> <Gold.PLP.Chemscore.Hbond>
1.0000

> <Gold.PLP.Chemscore.CHOScore>
0.0000

> <Gold.PLP.Chemscore.Metal>
0.0000

> <Gold.Chemscore.Hbonds>
donor molecule, donor type, donor heavy atom, donor atom, acceptor molecule, acceptor atom, score
      P1  H  2456  2461       L1     7  1.00

> <Gold.PLP.Chemscore.Internal.Correction>
0.0000

