#       Name:                EN300-7371540_i001
#       Creating user name   fsindt
#       Creation time:       Wed Mar  1 22:57:14 2023


#       File generated by GOLD software.
#

@<TRIPOS>MOLECULE
EN300-7371540_i001|acide_1|mol2|10402|dock15
    20    21     1
SMALL
USER_CHARGES


@<TRIPOS>ATOM
      1 C1          -2.5082 -11.1584   9.7168 C.3            1 <1>                0.0000
      2 C2          -1.5364 -12.2554  10.0680 C.2            1 <1>                0.0000
      3 C3          -0.6656 -12.7591   9.0860 C.2            1 <1>                0.0000
      4 C4           0.2101 -13.7486   9.4049 C.2            1 <1>                0.0000
      5 Br5          1.3894 -14.4380   8.0972 Br             1 <1>                0.0000
      6 C6           0.2310 -14.2569  10.7237 C.2            1 <1>                0.0000
      7 N7           0.9628 -15.1976  11.2951 N.2            1 <1>                0.0000
      8 C8           0.5995 -15.3143  12.5869 C.2            1 <1>                0.0000
      9 C9          -0.4050 -14.4032  12.8287 C.2            1 <1>                0.0000
     10 N10         -0.6320 -13.7441  11.6601 N.pl3          1 <1>                0.0000
     11 C11         -1.5030 -12.7448  11.3238 C.2            1 <1>                0.0000
     12 C12          1.1745 -16.2502  13.5671 C.2            1 <1>                0.0000
     13 O13          2.1715 -16.8992  13.2813 O.co2          1 <1>                0.0000
     14 O14          0.6553 -16.3789  14.6675 O.co2          1 <1>               -1.0000
     15 H15         -2.3886 -10.8895   8.6672 H              1 <1>                0.0000
     16 H16         -3.5267 -11.5063   9.8889 H              1 <1>                0.0000
     17 H17         -2.3120 -10.2860  10.3400 H              1 <1>                0.0000
     18 H18         -0.6925 -12.3617   8.0822 H              1 <1>                0.0000
     19 H19         -0.9156 -14.2431  13.7669 H              1 <1>                0.0000
     20 H20         -2.1731 -12.3458  12.0710 H              1 <1>                0.0000
@<TRIPOS>BOND
    1    1    2 1     
    2    1   15 1     
    3    1   16 1     
    4    1   17 1     
    5    2    3 1     
    6    2   11 2     
    7    3    4 2     
    8    3   18 1     
    9    4    5 1     
   10    4    6 1     
   11    6    7 2     
   12    6   10 1     
   13    7    8 1     
   14    8    9 2     
   15    8   12 1     
   16    9   10 1     
   17    9   19 1     
   18   10   11 1     
   19   11   20 1     
   20   12   13 ar    
   21   12   14 ar    
@<TRIPOS>SUBSTRUCTURE
      1 ****           1
@<TRIPOS>COMMENT
> <Gold.Version>
2022.2.0

> <Gold.Id.Protein>
3pbl|protein|mol2

> <Gold.Protein.RotatedTorsions>
[ 1303 1298 1297 1294 ] final   61.19 input  179.99 | X-H torsion
[ 2461 2456 2455 2452 ] final  -69.23 input   30.03 | X-H torsion
[ 2515 2510 2509 2506 ] final   64.14 input  -89.99 | X-H torsion
[ 3721 3712 3711 3710 ] final   46.70 input -179.91 | X-H torsion
[ 3841 3832 3831 3830 ] final -166.98 input -179.91 | X-H torsion
[ 3767 3762 3761 3758 ] final -118.99 input  -89.99 | X-H torsion
[ 2472 2467 2466 2463 ] final   64.88 input  -89.97 | X-H torsion

> <Gold.Protein.ActiveResidues>
 VAL82   VAL86   LEU89   PHE106  VAL107  ASP110  VAL111  MET112  CYS114  THR115 
 CYS181  SER182  ILE183  PHE188  VAL189  ILE190  SER192  SER193  SER196  TRP342 
 PHE345  PHE346  HIS349  VAL350  TYR365  THR369  GLY372  TYR373 

> <Gold.Protein.RotatedAtoms>
    4.0244  -10.2685    4.6445 H   0  0  0  0  0  0  0  0  0  0  0  0  # atno 1303 bound_to 1298
    0.3389   -8.6700    7.4667 H   0  0  0  0  0  0  0  0  0  0  0  0  # atno 2461 bound_to 2456
   -4.7223   -4.8307    7.6654 H   0  0  0  0  0  0  0  0  0  0  0  0  # atno 2472 bound_to 2467
    2.1300   -7.4869    5.5094 H   0  0  0  0  0  0  0  0  0  0  0  0  # atno 2515 bound_to 2510
   -2.5304  -17.9871   13.5577 H   0  0  0  0  0  0  0  0  0  0  0  0  # atno 3721 bound_to 3712
   -4.8626  -21.9637   11.5114 H   0  0  0  0  0  0  0  0  0  0  0  0  # atno 3767 bound_to 3762
    2.8305  -19.9085    8.3635 H   0  0  0  0  0  0  0  0  0  0  0  0  # atno 3841 bound_to 3832
    3.4887   -8.9932    3.7768 LP  0  0  0  0  0  0  0  0  0  0  0  0  # atno 4297 bound_to 1298
    4.8491   -8.8594    4.6702 LP  0  0  0  0  0  0  0  0  0  0  0  0  # atno 4298 bound_to 1298
    1.5912   -9.1602    8.3935 LP  0  0  0  0  0  0  0  0  0  0  0  0  # atno 4299 bound_to 2456
    1.8074   -7.9780    7.2879 LP  0  0  0  0  0  0  0  0  0  0  0  0  # atno 4300 bound_to 2456
    2.8149   -8.4339    4.3693 LP  0  0  0  0  0  0  0  0  0  0  0  0  # atno 4301 bound_to 2510
    2.3520   -9.0788    5.7964 LP  0  0  0  0  0  0  0  0  0  0  0  0  # atno 4302 bound_to 2510
   -3.0947  -17.2275   14.8548 LP  0  0  0  0  0  0  0  0  0  0  0  0  # atno 4306 bound_to 3712
   -3.5116  -16.7324   13.3556 LP  0  0  0  0  0  0  0  0  0  0  0  0  # atno 4307 bound_to 3712
    2.5645  -21.1579    9.3352 LP  0  0  0  0  0  0  0  0  0  0  0  0  # atno 4314 bound_to 3832
    1.3951  -20.0501    9.0674 LP  0  0  0  0  0  0  0  0  0  0  0  0  # atno 4315 bound_to 3832
   -3.9506  -23.1816   10.9182 LP  0  0  0  0  0  0  0  0  0  0  0  0  # atno 4318 bound_to 3762
   -5.3142  -22.7296   10.1417 LP  0  0  0  0  0  0  0  0  0  0  0  0  # atno 4319 bound_to 3762
   -3.6956   -5.1590    8.8920 LP  0  0  0  0  0  0  0  0  0  0  0  0  # atno 4320 bound_to 2467
   -5.2990   -5.4037    9.0816 LP  0  0  0  0  0  0  0  0  0  0  0  0  # atno 4321 bound_to 2467

> <Gold.Score>
     Score     S(PLP)   S(hbond)     S(cho)   S(metal)  DE(clash)   DE(tors)     intcor
     42.98     -40.08       0.99       0.00       0.00       0.00       0.04       0.00

> <Gold.PLP.Fitness>
42.9838

> <Gold.PLP.PLP>
-40.0806

> <Gold.PLP.part.hbond>
-1.0000

> <Gold.PLP.part.metal>
0.0000

> <Gold.PLP.part.buried>
-5.5015

> <Gold.PLP.part.nonpolar>
-35.2334

> <Gold.PLP.part.repulsive>
0.1814

> <Gold.PLP.ligand.clash>
0.0000

> <Gold.PLP.ligand.torsion>
0.0353

> <Gold.PLP.Chemscore.Hbond>
0.9913

> <Gold.PLP.Chemscore.CHOScore>
0.0000

> <Gold.PLP.Chemscore.Metal>
0.0000

> <Gold.Chemscore.Hbonds>
donor molecule, donor type, donor heavy atom, donor atom, acceptor molecule, acceptor atom, score
      P1  H  2305  2313       L1    14  0.99

> <Gold.PLP.Chemscore.Internal.Correction>
0.0000

