#       Name:                EN300-7371540_i001
#       Creating user name   fsindt
#       Creation time:       Wed Mar  1 22:57:12 2023


#       File generated by GOLD software.
#

@<TRIPOS>MOLECULE
EN300-7371540_i001|acide_1|mol2|10402|dock6
    20    21     1
SMALL
USER_CHARGES


@<TRIPOS>ATOM
      1 C1          -1.4854 -10.4583   9.2849 C.3            1 <1>                0.0000
      2 C2          -0.9904 -11.8228   9.6899 C.2            1 <1>                0.0000
      3 C3          -0.3864 -12.6595   8.7351 C.2            1 <1>                0.0000
      4 C4           0.0594 -13.8899   9.1025 C.2            1 <1>                0.0000
      5 Br5          0.8748 -15.0287   7.8321 Br             1 <1>                0.0000
      6 C6          -0.0921 -14.3097  10.4438 C.2            1 <1>                0.0000
      7 N7           0.2424 -15.4297  11.0607 N.2            1 <1>                0.0000
      8 C8          -0.1189 -15.3440  12.3555 C.2            1 <1>                0.0000
      9 C9          -0.7051 -14.1129  12.5515 C.2            1 <1>                0.0000
     10 N10         -0.6860 -13.4695  11.3526 N.pl3          1 <1>                0.0000
     11 C11         -1.1241 -12.2326  10.9673 C.2            1 <1>                0.0000
     12 C12          0.0781 -16.3826  13.3802 C.2            1 <1>                0.0000
     13 O13          0.7206 -16.1311  14.3905 O.co2          1 <1>                0.0000
     14 O14         -0.4008 -17.4972  13.2213 O.co2          1 <1>               -1.0000
     15 H15         -1.2894 -10.3009   8.2242 H              1 <1>                0.0000
     16 H16         -2.5574 -10.3908   9.4701 H              1 <1>                0.0000
     17 H17         -0.9674  -9.6963   9.8671 H              1 <1>                0.0000
     18 H18         -0.2775 -12.3261   7.7137 H              1 <1>                0.0000
     19 H19         -1.1045 -13.7314  13.4797 H              1 <1>                0.0000
     20 H20         -1.5846 -11.5787  11.6931 H              1 <1>                0.0000
@<TRIPOS>BOND
    1    1    2 1     
    2    1   15 1     
    3    1   16 1     
    4    1   17 1     
    5    2    3 1     
    6    2   11 2     
    7    3    4 2     
    8    3   18 1     
    9    4    5 1     
   10    4    6 1     
   11    6    7 2     
   12    6   10 1     
   13    7    8 1     
   14    8    9 2     
   15    8   12 1     
   16    9   10 1     
   17    9   19 1     
   18   10   11 1     
   19   11   20 1     
   20   12   13 ar    
   21   12   14 ar    
@<TRIPOS>SUBSTRUCTURE
      1 ****           1
@<TRIPOS>COMMENT
> <Gold.Version>
2022.2.0

> <Gold.Id.Protein>
3pbl|protein|mol2

> <Gold.Protein.RotatedTorsions>
[ 1303 1298 1297 1294 ] final  -69.06 input  179.99 | X-H torsion
[ 2461 2456 2455 2452 ] final -104.22 input   30.03 | X-H torsion
[ 2515 2510 2509 2506 ] final   82.73 input  -89.99 | X-H torsion
[ 3721 3712 3711 3710 ] final   55.21 input -179.91 | X-H torsion
[ 3841 3832 3831 3830 ] final  115.06 input -179.91 | X-H torsion
[ 3767 3762 3761 3758 ] final   19.70 input  -89.99 | X-H torsion
[ 2472 2467 2466 2463 ] final   45.46 input  -89.97 | X-H torsion

> <Gold.Protein.ActiveResidues>
 VAL82   VAL86   LEU89   PHE106  VAL107  ASP110  VAL111  MET112  CYS114  THR115 
 CYS181  SER182  ILE183  PHE188  VAL189  ILE190  SER192  SER193  SER196  TRP342 
 PHE345  PHE346  HIS349  VAL350  TYR365  THR369  GLY372  TYR373 

> <Gold.Protein.RotatedAtoms>
    3.5834   -8.8545    3.7893 H   0  0  0  0  0  0  0  0  0  0  0  0  # atno 1303 bound_to 1298
    0.4313   -9.0494    7.8779 H   0  0  0  0  0  0  0  0  0  0  0  0  # atno 2461 bound_to 2456
   -4.4060   -4.8009    7.6791 H   0  0  0  0  0  0  0  0  0  0  0  0  # atno 2472 bound_to 2467
    2.0606   -7.6496    5.7571 H   0  0  0  0  0  0  0  0  0  0  0  0  # atno 2515 bound_to 2510
   -2.5672  -17.9405   13.4438 H   0  0  0  0  0  0  0  0  0  0  0  0  # atno 3721 bound_to 3712
   -5.1133  -22.9488   10.0690 H   0  0  0  0  0  0  0  0  0  0  0  0  # atno 3767 bound_to 3762
    3.0544  -20.7676    8.9941 H   0  0  0  0  0  0  0  0  0  0  0  0  # atno 3841 bound_to 3832
    4.8926   -8.9988    4.7545 LP  0  0  0  0  0  0  0  0  0  0  0  0  # atno 4297 bound_to 1298
    3.8865  -10.2683    4.5480 LP  0  0  0  0  0  0  0  0  0  0  0  0  # atno 4298 bound_to 1298
    2.0149   -8.8303    8.2118 LP  0  0  0  0  0  0  0  0  0  0  0  0  # atno 4299 bound_to 2456
    1.2914   -7.9286    7.0585 LP  0  0  0  0  0  0  0  0  0  0  0  0  # atno 4300 bound_to 2456
    2.7541   -8.1357    4.3612 LP  0  0  0  0  0  0  0  0  0  0  0  0  # atno 4301 bound_to 2510
    2.4822   -9.2142    5.5568 LP  0  0  0  0  0  0  0  0  0  0  0  0  # atno 4302 bound_to 2510
   -3.0236  -17.3499   14.8654 LP  0  0  0  0  0  0  0  0  0  0  0  0  # atno 4306 bound_to 3712
   -3.5402  -16.6638   13.4765 LP  0  0  0  0  0  0  0  0  0  0  0  0  # atno 4307 bound_to 3712
    1.5267  -20.5553    9.4383 LP  0  0  0  0  0  0  0  0  0  0  0  0  # atno 4314 bound_to 3832
    2.1743  -19.6602    8.2358 LP  0  0  0  0  0  0  0  0  0  0  0  0  # atno 4315 bound_to 3832
   -5.1071  -21.9155   11.3336 LP  0  0  0  0  0  0  0  0  0  0  0  0  # atno 4318 bound_to 3762
   -3.9072  -23.0108   11.1682 LP  0  0  0  0  0  0  0  0  0  0  0  0  # atno 4319 bound_to 3762
   -3.8561   -5.2676    9.1441 LP  0  0  0  0  0  0  0  0  0  0  0  0  # atno 4320 bound_to 2467
   -5.4547   -5.3251    8.8157 LP  0  0  0  0  0  0  0  0  0  0  0  0  # atno 4321 bound_to 2467

> <Gold.Score>
     Score     S(PLP)   S(hbond)     S(cho)   S(metal)  DE(clash)   DE(tors)     intcor
     43.71     -41.36       1.50       0.00       0.00       0.00       1.08       0.00

> <Gold.PLP.Fitness>
43.7082

> <Gold.PLP.PLP>
-41.3553

> <Gold.PLP.part.hbond>
-2.0000

> <Gold.PLP.part.metal>
0.0000

> <Gold.PLP.part.buried>
-4.1680

> <Gold.PLP.part.nonpolar>
-35.3253

> <Gold.PLP.part.repulsive>
0.1194

> <Gold.PLP.ligand.clash>
0.0000

> <Gold.PLP.ligand.torsion>
1.0782

> <Gold.PLP.Chemscore.Hbond>
1.5031

> <Gold.PLP.Chemscore.CHOScore>
0.0000

> <Gold.PLP.Chemscore.Metal>
0.0000

> <Gold.Chemscore.Hbonds>
donor molecule, donor type, donor heavy atom, donor atom, acceptor molecule, acceptor atom, score
      P1  H  2305  2313       L1    13  1.00
      P1  H  3712  3721       L1    14  0.50

> <Gold.PLP.Chemscore.Internal.Correction>
0.0000

