#       Name:                EN300-7371540_i001
#       Creating user name   fsindt
#       Creation time:       Wed Mar  1 22:57:12 2023


#       File generated by GOLD software.
#

@<TRIPOS>MOLECULE
EN300-7371540_i001|acide_1|mol2|10402|dock8
    20    21     1
SMALL
USER_CHARGES


@<TRIPOS>ATOM
      1 C1           0.5289 -16.0720  12.8661 C.3            1 <1>                0.0000
      2 C2           0.2012 -14.9964  11.8628 C.2            1 <1>                0.0000
      3 C3           0.8301 -14.9979  10.6054 C.2            1 <1>                0.0000
      4 C4           0.5332 -14.0267   9.7018 C.2            1 <1>                0.0000
      5 Br5          1.3687 -14.0131   8.0056 Br             1 <1>                0.0000
      6 C6          -0.4067 -13.0274  10.0425 C.2            1 <1>                0.0000
      7 N7          -0.8714 -11.9878   9.3714 N.2            1 <1>                0.0000
      8 C8          -1.7610 -11.3298  10.1395 C.2            1 <1>                0.0000
      9 C9          -1.8528 -11.9920  11.3440 C.2            1 <1>                0.0000
     10 N10         -1.0037 -13.0533  11.2784 N.pl3          1 <1>                0.0000
     11 C11         -0.6975 -14.0408  12.1737 C.2            1 <1>                0.0000
     12 C12         -2.5039 -10.1171   9.7589 C.2            1 <1>                0.0000
     13 O13         -1.9950  -9.2997   9.0042 O.co2          1 <1>                0.0000
     14 O14         -3.6302  -9.9269  10.1973 O.co2          1 <1>               -1.0000
     15 H15          1.2660 -16.7532  12.4407 H              1 <1>                0.0000
     16 H16          0.9345 -15.6155  13.7689 H              1 <1>                0.0000
     17 H17         -0.3768 -16.6255  13.1142 H              1 <1>                0.0000
     18 H18          1.5465 -15.7674  10.3585 H              1 <1>                0.0000
     19 H19         -2.4789 -11.7202  12.1810 H              1 <1>                0.0000
     20 H20         -1.1783 -14.0535  13.1407 H              1 <1>                0.0000
@<TRIPOS>BOND
    1    1    2 1     
    2    1   15 1     
    3    1   16 1     
    4    1   17 1     
    5    2    3 1     
    6    2   11 2     
    7    3    4 2     
    8    3   18 1     
    9    4    5 1     
   10    4    6 1     
   11    6    7 2     
   12    6   10 1     
   13    7    8 1     
   14    8    9 2     
   15    8   12 1     
   16    9   10 1     
   17    9   19 1     
   18   10   11 1     
   19   11   20 1     
   20   12   13 ar    
   21   12   14 ar    
@<TRIPOS>SUBSTRUCTURE
      1 ****           1
@<TRIPOS>COMMENT
> <Gold.Version>
2022.2.0

> <Gold.Id.Protein>
3pbl|protein|mol2

> <Gold.Protein.RotatedTorsions>
[ 1303 1298 1297 1294 ] final  -93.81 input  179.99 | X-H torsion
[ 2461 2456 2455 2452 ] final -127.12 input   30.03 | X-H torsion
[ 2515 2510 2509 2506 ] final -138.45 input  -89.99 | X-H torsion
[ 3721 3712 3711 3710 ] final   80.65 input -179.91 | X-H torsion
[ 3841 3832 3831 3830 ] final  -76.12 input -179.91 | X-H torsion
[ 3767 3762 3761 3758 ] final  146.75 input  -89.99 | X-H torsion
[ 2472 2467 2466 2463 ] final -176.58 input  -89.97 | X-H torsion

> <Gold.Protein.ActiveResidues>
 VAL82   VAL86   LEU89   PHE106  VAL107  ASP110  VAL111  MET112  CYS114  THR115 
 CYS181  SER182  ILE183  PHE188  VAL189  ILE190  SER192  SER193  SER196  TRP342 
 PHE345  PHE346  HIS349  VAL350  TYR365  THR369  GLY372  TYR373 

> <Gold.Protein.RotatedAtoms>
    3.8758   -8.5954    3.8921 H   0  0  0  0  0  0  0  0  0  0  0  0  # atno 1303 bound_to 1298
    0.6581   -9.2168    8.1244 H   0  0  0  0  0  0  0  0  0  0  0  0  # atno 2461 bound_to 2456
   -5.3138   -5.3995    9.0632 H   0  0  0  0  0  0  0  0  0  0  0  0  # atno 2472 bound_to 2467
    2.6089   -9.2572    5.2791 H   0  0  0  0  0  0  0  0  0  0  0  0  # atno 2515 bound_to 2510
   -2.7176  -17.7202   13.1710 H   0  0  0  0  0  0  0  0  0  0  0  0  # atno 3721 bound_to 3712
   -3.9122  -22.9341   11.2553 H   0  0  0  0  0  0  0  0  0  0  0  0  # atno 3767 bound_to 3762
    1.7202  -19.6866    8.8524 H   0  0  0  0  0  0  0  0  0  0  0  0  # atno 3841 bound_to 3832
    4.8949   -9.3750    4.9021 LP  0  0  0  0  0  0  0  0  0  0  0  0  # atno 4297 bound_to 1298
    3.5916  -10.1513    4.2976 LP  0  0  0  0  0  0  0  0  0  0  0  0  # atno 4298 bound_to 1298
    2.1475   -8.5606    7.9886 LP  0  0  0  0  0  0  0  0  0  0  0  0  # atno 4299 bound_to 2456
    0.9320   -8.0310    7.0353 LP  0  0  0  0  0  0  0  0  0  0  0  0  # atno 4300 bound_to 2456
    2.0295   -7.8868    5.9514 LP  0  0  0  0  0  0  0  0  0  0  0  0  # atno 4301 bound_to 2510
    2.6583   -7.8547    4.4447 LP  0  0  0  0  0  0  0  0  0  0  0  0  # atno 4302 bound_to 2510
   -2.8252  -17.7104   14.7730 LP  0  0  0  0  0  0  0  0  0  0  0  0  # atno 4306 bound_to 3712
   -3.5649  -16.5575   13.8839 LP  0  0  0  0  0  0  0  0  0  0  0  0  # atno 4307 bound_to 3712
    3.0681  -20.3844    8.3308 LP  0  0  0  0  0  0  0  0  0  0  0  0  # atno 4314 bound_to 3832
    2.1742  -21.0799    9.5071 LP  0  0  0  0  0  0  0  0  0  0  0  0  # atno 4315 bound_to 3832
   -5.0254  -23.0245   10.0638 LP  0  0  0  0  0  0  0  0  0  0  0  0  # atno 4318 bound_to 3762
   -5.1895  -21.9165   11.2521 LP  0  0  0  0  0  0  0  0  0  0  0  0  # atno 4319 bound_to 3762
   -4.6989   -4.8265    7.6632 LP  0  0  0  0  0  0  0  0  0  0  0  0  # atno 4320 bound_to 2467
   -3.7044   -5.1675    8.9128 LP  0  0  0  0  0  0  0  0  0  0  0  0  # atno 4321 bound_to 2467

> <Gold.Score>
     Score     S(PLP)   S(hbond)     S(cho)   S(metal)  DE(clash)   DE(tors)     intcor
     43.30     -44.14       0.00       0.00       0.00       0.00       0.42       0.00

> <Gold.PLP.Fitness>
43.2979

> <Gold.PLP.PLP>
-44.1392

> <Gold.PLP.part.hbond>
-1.0000

> <Gold.PLP.part.metal>
0.0000

> <Gold.PLP.part.buried>
-4.8396

> <Gold.PLP.part.nonpolar>
-38.9348

> <Gold.PLP.part.repulsive>
0.2144

> <Gold.PLP.ligand.clash>
0.0000

> <Gold.PLP.ligand.torsion>
0.4207

> <Gold.PLP.Chemscore.Hbond>
0.0000

> <Gold.PLP.Chemscore.CHOScore>
0.0000

> <Gold.PLP.Chemscore.Metal>
0.0000

> <Gold.PLP.Chemscore.Internal.Correction>
0.0000

