#       Name:                EN300-7371540_i001
#       Creating user name   fsindt
#       Creation time:       Wed Mar  1 22:57:11 2023


#       File generated by GOLD software.
#

@<TRIPOS>MOLECULE
EN300-7371540_i001|acide_1|mol2|10402|dock4
    20    21     1
SMALL
USER_CHARGES


@<TRIPOS>ATOM
      1 C1           1.0974 -13.4452   6.9392 C.3            1 <1>                0.0000
      2 C2           0.6691 -13.6045   8.3753 C.2            1 <1>                0.0000
      3 C3          -0.3245 -12.7635   8.9061 C.2            1 <1>                0.0000
      4 C4          -0.7093 -12.9088  10.2017 C.2            1 <1>                0.0000
      5 Br5         -2.0446 -11.7870  10.9326 Br             1 <1>                0.0000
      6 C6          -0.1019 -13.9070  10.9971 C.2            1 <1>                0.0000
      7 N7          -0.2798 -14.2593  12.2585 N.2            1 <1>                0.0000
      8 C8           0.5498 -15.2792  12.5520 C.2            1 <1>                0.0000
      9 C9           1.2768 -15.5737  11.4195 C.2            1 <1>                0.0000
     10 N10          0.8655 -14.7126  10.4495 N.pl3          1 <1>                0.0000
     11 C11          1.2370 -14.5565   9.1426 C.2            1 <1>                0.0000
     12 C12          0.6600 -15.9589  13.8532 C.2            1 <1>                0.0000
     13 O13         -0.1021 -15.6642  14.7638 O.co2          1 <1>                0.0000
     14 O14          1.5136 -16.8186  14.0239 O.co2          1 <1>               -1.0000
     15 H15          0.5307 -12.6358   6.4788 H              1 <1>                0.0000
     16 H16          2.1612 -13.2115   6.9010 H              1 <1>                0.0000
     17 H17          0.9096 -14.3732   6.3991 H              1 <1>                0.0000
     18 H18         -0.7800 -12.0047   8.2871 H              1 <1>                0.0000
     19 H19          2.0302 -16.3413  11.3207 H              1 <1>                0.0000
     20 H20          1.9953 -15.2003   8.7219 H              1 <1>                0.0000
@<TRIPOS>BOND
    1    1    2 1     
    2    1   15 1     
    3    1   16 1     
    4    1   17 1     
    5    2    3 1     
    6    2   11 2     
    7    3    4 2     
    8    3   18 1     
    9    4    5 1     
   10    4    6 1     
   11    6    7 2     
   12    6   10 1     
   13    7    8 1     
   14    8    9 2     
   15    8   12 1     
   16    9   10 1     
   17    9   19 1     
   18   10   11 1     
   19   11   20 1     
   20   12   13 ar    
   21   12   14 ar    
@<TRIPOS>SUBSTRUCTURE
      1 ****           1
@<TRIPOS>COMMENT
> <Gold.Version>
2022.2.0

> <Gold.Id.Protein>
3pbl|protein|mol2

> <Gold.Protein.RotatedTorsions>
[ 1303 1298 1297 1294 ] final  -72.06 input  179.99 | X-H torsion
[ 2461 2456 2455 2452 ] final -110.74 input   30.03 | X-H torsion
[ 2515 2510 2509 2506 ] final  -32.96 input  -89.99 | X-H torsion
[ 3721 3712 3711 3710 ] final  166.06 input -179.91 | X-H torsion
[ 3841 3832 3831 3830 ] final   74.62 input -179.91 | X-H torsion
[ 3767 3762 3761 3758 ] final  -26.60 input  -89.99 | X-H torsion
[ 2472 2467 2466 2463 ] final -100.10 input  -89.97 | X-H torsion

> <Gold.Protein.ActiveResidues>
 VAL82   VAL86   LEU89   PHE106  VAL107  ASP110  VAL111  MET112  CYS114  THR115 
 CYS181  SER182  ILE183  PHE188  VAL189  ILE190  SER192  SER193  SER196  TRP342 
 PHE345  PHE346  HIS349  VAL350  TYR365  THR369  GLY372  TYR373 

> <Gold.Protein.RotatedAtoms>
    3.6145   -8.8168    3.7964 H   0  0  0  0  0  0  0  0  0  0  0  0  # atno 1303 bound_to 1298
    0.4840   -9.1057    7.9525 H   0  0  0  0  0  0  0  0  0  0  0  0  # atno 2461 bound_to 2456
   -4.1874   -5.3857    9.3685 H   0  0  0  0  0  0  0  0  0  0  0  0  # atno 2472 bound_to 2467
    2.7349   -8.0684    4.3727 H   0  0  0  0  0  0  0  0  0  0  0  0  # atno 2515 bound_to 2510
   -3.2805  -16.7077   13.3665 H   0  0  0  0  0  0  0  0  0  0  0  0  # atno 3721 bound_to 3712
   -5.4892  -22.3914   10.3815 H   0  0  0  0  0  0  0  0  0  0  0  0  # atno 3767 bound_to 3762
    2.6627  -20.9562    9.4054 H   0  0  0  0  0  0  0  0  0  0  0  0  # atno 3841 bound_to 3832
    4.9007   -9.0420    4.7769 LP  0  0  0  0  0  0  0  0  0  0  0  0  # atno 4297 bound_to 1298
    3.8472  -10.2627    4.5185 LP  0  0  0  0  0  0  0  0  0  0  0  0  # atno 4298 bound_to 1298
    2.0663   -8.7553    8.1548 LP  0  0  0  0  0  0  0  0  0  0  0  0  # atno 4299 bound_to 2456
    1.1872   -7.9474    7.0408 LP  0  0  0  0  0  0  0  0  0  0  0  0  # atno 4300 bound_to 2456
    2.5122   -9.2328    5.4954 LP  0  0  0  0  0  0  0  0  0  0  0  0  # atno 4301 bound_to 2510
    2.0495   -7.6981    5.8076 LP  0  0  0  0  0  0  0  0  0  0  0  0  # atno 4302 bound_to 2510
   -2.6651  -18.1764   13.5715 LP  0  0  0  0  0  0  0  0  0  0  0  0  # atno 4306 bound_to 3712
   -3.0752  -17.2606   14.8598 LP  0  0  0  0  0  0  0  0  0  0  0  0  # atno 4307 bound_to 3712
    1.3977  -20.0340    9.0514 LP  0  0  0  0  0  0  0  0  0  0  0  0  # atno 4314 bound_to 3832
    2.7558  -19.9637    8.1475 LP  0  0  0  0  0  0  0  0  0  0  0  0  # atno 4315 bound_to 3832
   -4.4806  -22.1605   11.6449 LP  0  0  0  0  0  0  0  0  0  0  0  0  # atno 4318 bound_to 3762
   -4.1579  -23.3231   10.5444 LP  0  0  0  0  0  0  0  0  0  0  0  0  # atno 4319 bound_to 3762
   -5.5053   -5.1897    8.4246 LP  0  0  0  0  0  0  0  0  0  0  0  0  # atno 4320 bound_to 2467
   -4.0241   -4.8182    7.8461 LP  0  0  0  0  0  0  0  0  0  0  0  0  # atno 4321 bound_to 2467

> <Gold.Score>
     Score     S(PLP)   S(hbond)     S(cho)   S(metal)  DE(clash)   DE(tors)     intcor
     48.38     -39.56       1.00       1.94       0.00       0.00       0.01       0.00

> <Gold.PLP.Fitness>
48.3761

> <Gold.PLP.PLP>
-39.5621

> <Gold.PLP.part.hbond>
-1.0000

> <Gold.PLP.part.metal>
0.0000

> <Gold.PLP.part.buried>
-2.3636

> <Gold.PLP.part.nonpolar>
-38.2821

> <Gold.PLP.part.repulsive>
0.1944

> <Gold.PLP.ligand.clash>
0.0000

> <Gold.PLP.ligand.torsion>
0.0097

> <Gold.PLP.Chemscore.Hbond>
1.0000

> <Gold.PLP.Chemscore.CHOScore>
1.9445

> <Gold.PLP.Chemscore.Metal>
0.0000

> <Gold.Chemscore.Hbonds>
donor molecule, donor type, donor heavy atom, donor atom, acceptor molecule, acceptor atom, score
      P1  H  2305  2313       L1    13  1.00
      L1  C     9    19       P1  1227  1.00
      L1  C    11    20       P1  1227  0.94

> <Gold.PLP.Chemscore.Internal.Correction>
0.0000

