#       Name:                EN300-7371540_i001
#       Creating user name   fsindt
#       Creation time:       Wed Mar  1 22:57:13 2023


#       File generated by GOLD software.
#

@<TRIPOS>MOLECULE
EN300-7371540_i001|acide_1|mol2|10402|dock10
    20    21     1
SMALL
USER_CHARGES


@<TRIPOS>ATOM
      1 C1          -1.1690 -18.9835   8.8832 C.3            1 <1>                0.0000
      2 C2          -0.6845 -17.5769   9.1232 C.2            1 <1>                0.0000
      3 C3          -0.4695 -17.1259  10.4373 C.2            1 <1>                0.0000
      4 C4          -0.0325 -15.8567  10.6516 C.2            1 <1>                0.0000
      5 Br5          0.2627 -15.2331  12.4122 Br             1 <1>                0.0000
      6 C6           0.1996 -15.0079   9.5454 C.2            1 <1>                0.0000
      7 N7           0.6160 -13.7559   9.4663 N.2            1 <1>                0.0000
      8 C8           0.6751 -13.3926   8.1706 C.2            1 <1>                0.0000
      9 C9           0.2768 -14.4697   7.4097 C.2            1 <1>                0.0000
     10 N10         -0.0196 -15.4778   8.2743 N.pl3          1 <1>                0.0000
     11 C11         -0.4542 -16.7593   8.0763 C.2            1 <1>                0.0000
     12 C12          1.0919 -12.0769   7.6582 C.2            1 <1>                0.0000
     13 O13          1.4295 -11.9549   6.4886 O.co2          1 <1>                0.0000
     14 O14          1.1005 -11.1056   8.4020 O.co2          1 <1>               -1.0000
     15 H15         -1.2942 -19.4927   9.8389 H              1 <1>                0.0000
     16 H16         -2.1243 -18.9544   8.3593 H              1 <1>                0.0000
     17 H17         -0.4390 -19.5210   8.2780 H              1 <1>                0.0000
     18 H18         -0.6512 -17.7851  11.2732 H              1 <1>                0.0000
     19 H19          0.2115 -14.5068   6.3322 H              1 <1>                0.0000
     20 H20         -0.6176 -17.1189   7.0711 H              1 <1>                0.0000
@<TRIPOS>BOND
    1    1    2 1     
    2    1   15 1     
    3    1   16 1     
    4    1   17 1     
    5    2    3 1     
    6    2   11 2     
    7    3    4 2     
    8    3   18 1     
    9    4    5 1     
   10    4    6 1     
   11    6    7 2     
   12    6   10 1     
   13    7    8 1     
   14    8    9 2     
   15    8   12 1     
   16    9   10 1     
   17    9   19 1     
   18   10   11 1     
   19   11   20 1     
   20   12   13 ar    
   21   12   14 ar    
@<TRIPOS>SUBSTRUCTURE
      1 ****           1
@<TRIPOS>COMMENT
> <Gold.Version>
2022.2.0

> <Gold.Id.Protein>
3pbl|protein|mol2

> <Gold.Protein.RotatedTorsions>
[ 1303 1298 1297 1294 ] final  144.40 input  179.99 | X-H torsion
[ 2461 2456 2455 2452 ] final -142.27 input   30.03 | X-H torsion
[ 2515 2510 2509 2506 ] final  124.23 input  -89.99 | X-H torsion
[ 3721 3712 3711 3710 ] final  104.40 input -179.91 | X-H torsion
[ 3841 3832 3831 3830 ] final -144.07 input -179.91 | X-H torsion
[ 3767 3762 3761 3758 ] final  170.84 input  -89.99 | X-H torsion
[ 2472 2467 2466 2463 ] final  -21.31 input  -89.97 | X-H torsion

> <Gold.Protein.ActiveResidues>
 VAL82   VAL86   LEU89   PHE106  VAL107  ASP110  VAL111  MET112  CYS114  THR115 
 CYS181  SER182  ILE183  PHE188  VAL189  ILE190  SER192  SER193  SER196  TRP342 
 PHE345  PHE346  HIS349  VAL350  TYR365  THR369  GLY372  TYR373 

> <Gold.Protein.RotatedAtoms>
    4.8889   -9.4028    4.9094 H   0  0  0  0  0  0  0  0  0  0  0  0  # atno 1303 bound_to 1298
    0.8619   -9.2754    8.2540 H   0  0  0  0  0  0  0  0  0  0  0  0  # atno 2461 bound_to 2456
   -3.6586   -4.9707    8.3785 H   0  0  0  0  0  0  0  0  0  0  0  0  # atno 2472 bound_to 2467
    2.0499   -8.2337    6.0808 H   0  0  0  0  0  0  0  0  0  0  0  0  # atno 2515 bound_to 2510
   -2.8915  -17.4368   13.0424 H   0  0  0  0  0  0  0  0  0  0  0  0  # atno 3721 bound_to 3712
   -4.0203  -22.6460   11.5006 H   0  0  0  0  0  0  0  0  0  0  0  0  # atno 3767 bound_to 3762
    2.5512  -19.7083    8.3572 H   0  0  0  0  0  0  0  0  0  0  0  0  # atno 3841 bound_to 3832
    3.5734  -10.1368    4.2794 LP  0  0  0  0  0  0  0  0  0  0  0  0  # atno 4297 bound_to 1298
    3.8996   -8.5817    3.9026 LP  0  0  0  0  0  0  0  0  0  0  0  0  # atno 4298 bound_to 1298
    2.1575   -8.3832    7.8149 LP  0  0  0  0  0  0  0  0  0  0  0  0  # atno 4299 bound_to 2456
    0.7183   -8.1498    7.0794 LP  0  0  0  0  0  0  0  0  0  0  0  0  # atno 4300 bound_to 2456
    2.5119   -7.5866    4.6547 LP  0  0  0  0  0  0  0  0  0  0  0  0  # atno 4301 bound_to 2510
    2.7351   -9.1790    4.9394 LP  0  0  0  0  0  0  0  0  0  0  0  0  # atno 4302 bound_to 2510
   -2.6853  -17.9915   14.5349 LP  0  0  0  0  0  0  0  0  0  0  0  0  # atno 4306 bound_to 3712
   -3.5041  -16.6036   14.2705 LP  0  0  0  0  0  0  0  0  0  0  0  0  # atno 4307 bound_to 3712
    2.8572  -21.0977    9.1001 LP  0  0  0  0  0  0  0  0  0  0  0  0  # atno 4314 bound_to 3832
    1.4252  -20.3415    9.3097 LP  0  0  0  0  0  0  0  0  0  0  0  0  # atno 4315 bound_to 3832
   -4.6969  -23.2296   10.1338 LP  0  0  0  0  0  0  0  0  0  0  0  0  # atno 4318 bound_to 3762
   -5.4099  -21.9994   10.9369 LP  0  0  0  0  0  0  0  0  0  0  0  0  # atno 4319 bound_to 3762
   -4.8461   -5.4633    9.3851 LP  0  0  0  0  0  0  0  0  0  0  0  0  # atno 4320 bound_to 2467
   -5.2120   -4.9595    7.8755 LP  0  0  0  0  0  0  0  0  0  0  0  0  # atno 4321 bound_to 2467

> <Gold.Score>
     Score     S(PLP)   S(hbond)     S(cho)   S(metal)  DE(clash)   DE(tors)     intcor
     43.39     -40.69       1.00       0.00       0.00       0.00       0.15       0.00

> <Gold.PLP.Fitness>
43.3908

> <Gold.PLP.PLP>
-40.6921

> <Gold.PLP.part.hbond>
-1.0000

> <Gold.PLP.part.metal>
0.0000

> <Gold.PLP.part.buried>
-5.4424

> <Gold.PLP.part.nonpolar>
-34.7018

> <Gold.PLP.part.repulsive>
0.1178

> <Gold.PLP.ligand.clash>
0.0000

> <Gold.PLP.ligand.torsion>
0.1506

> <Gold.PLP.Chemscore.Hbond>
1.0000

> <Gold.PLP.Chemscore.CHOScore>
0.0000

> <Gold.PLP.Chemscore.Metal>
0.0000

> <Gold.Chemscore.Hbonds>
donor molecule, donor type, donor heavy atom, donor atom, acceptor molecule, acceptor atom, score
      P1  H  2456  2461       L1    14  1.00

> <Gold.PLP.Chemscore.Internal.Correction>
0.0000

