#       Name:                EN300-7371540_i001
#       Creating user name   fsindt
#       Creation time:       Wed Mar  1 22:57:10 2023


#       File generated by GOLD software.
#

@<TRIPOS>MOLECULE
EN300-7371540_i001|acide_1|mol2|10402|dock1
    20    21     1
SMALL
USER_CHARGES


@<TRIPOS>ATOM
      1 C1           1.0804 -12.6121   6.8978 C.3            1 <1>                0.0000
      2 C2           0.5466 -12.8936   8.2787 C.2            1 <1>                0.0000
      3 C3          -0.2438 -11.9322   8.9323 C.2            1 <1>                0.0000
      4 C4          -0.7243 -12.1880  10.1778 C.2            1 <1>                0.0000
      5 Br5         -1.7896 -10.9069  11.0721 Br             1 <1>                0.0000
      6 C6          -0.4203 -13.4214  10.7978 C.2            1 <1>                0.0000
      7 N7          -0.7482 -13.9205  11.9770 N.2            1 <1>                0.0000
      8 C8          -0.2059 -15.1472  12.1021 C.2            1 <1>                0.0000
      9 C9           0.4913 -15.4224  10.9463 C.2            1 <1>                0.0000
     10 N10          0.3542 -14.3398  10.1335 N.pl3          1 <1>                0.0000
     11 C11          0.8250 -14.0685   8.8785 C.2            1 <1>                0.0000
     12 C12         -0.3356 -16.0365  13.2682 C.2            1 <1>                0.0000
     13 O13         -0.0859 -15.6154  14.3894 O.co2          1 <1>                0.0000
     14 O14         -0.6931 -17.1966  13.1159 O.co2          1 <1>               -1.0000
     15 H15          0.7518 -11.6239   6.5758 H              1 <1>                0.0000
     16 H16          2.1697 -12.6448   6.9156 H              1 <1>                0.0000
     17 H17          0.7057 -13.3639   6.2032 H              1 <1>                0.0000
     18 H18         -0.4681 -10.9938   8.4469 H              1 <1>                0.0000
     19 H19          1.0423 -16.3252  10.7274 H              1 <1>                0.0000
     20 H20          1.4286 -14.8015   8.3640 H              1 <1>                0.0000
@<TRIPOS>BOND
    1    1    2 1     
    2    1   15 1     
    3    1   16 1     
    4    1   17 1     
    5    2    3 1     
    6    2   11 2     
    7    3    4 2     
    8    3   18 1     
    9    4    5 1     
   10    4    6 1     
   11    6    7 2     
   12    6   10 1     
   13    7    8 1     
   14    8    9 2     
   15    8   12 1     
   16    9   10 1     
   17    9   19 1     
   18   10   11 1     
   19   11   20 1     
   20   12   13 ar    
   21   12   14 ar    
@<TRIPOS>SUBSTRUCTURE
      1 ****           1
@<TRIPOS>COMMENT
> <Gold.Version>
2022.2.0

> <Gold.Id.Protein>
3pbl|protein|mol2

> <Gold.Protein.RotatedTorsions>
[ 1303 1298 1297 1294 ] final -100.93 input  179.99 | X-H torsion
[ 2461 2456 2455 2452 ] final   14.56 input   30.03 | X-H torsion
[ 2515 2510 2509 2506 ] final  -68.08 input  -89.99 | X-H torsion
[ 3721 3712 3711 3710 ] final   57.57 input -179.91 | X-H torsion
[ 3841 3832 3831 3830 ] final  -11.16 input -179.91 | X-H torsion
[ 3767 3762 3761 3758 ] final -117.97 input  -89.99 | X-H torsion
[ 2472 2467 2466 2463 ] final  155.70 input  -89.97 | X-H torsion

> <Gold.Protein.ActiveResidues>
 VAL82   VAL86   LEU89   PHE106  VAL107  ASP110  VAL111  MET112  CYS114  THR115 
 CYS181  SER182  ILE183  PHE188  VAL189  ILE190  SER192  SER193  SER196  TRP342 
 PHE345  PHE346  HIS349  VAL350  TYR365  THR369  GLY372  TYR373 

> <Gold.Protein.RotatedAtoms>
    3.9710   -8.5458    3.9390 H   0  0  0  0  0  0  0  0  0  0  0  0  # atno 1303 bound_to 1298
    1.2718   -7.9312    7.0543 H   0  0  0  0  0  0  0  0  0  0  0  0  # atno 2461 bound_to 2456
   -5.4957   -5.2772    8.6682 H   0  0  0  0  0  0  0  0  0  0  0  0  # atno 2472 bound_to 2467
    2.8334   -8.6261    4.4242 H   0  0  0  0  0  0  0  0  0  0  0  0  # atno 2515 bound_to 2510
   -2.5788  -17.9249   13.4139 H   0  0  0  0  0  0  0  0  0  0  0  0  # atno 3721 bound_to 3712
   -4.8764  -21.9592   11.5034 H   0  0  0  0  0  0  0  0  0  0  0  0  # atno 3767 bound_to 3762
    1.6525  -20.3562    9.4938 H   0  0  0  0  0  0  0  0  0  0  0  0  # atno 3841 bound_to 3832
    4.8685   -9.4864    4.9270 LP  0  0  0  0  0  0  0  0  0  0  0  0  # atno 4297 bound_to 1298
    3.5227  -10.0895    4.2258 LP  0  0  0  0  0  0  0  0  0  0  0  0  # atno 4298 bound_to 1298
    0.4406   -9.0603    7.8920 LP  0  0  0  0  0  0  0  0  0  0  0  0  # atno 4299 bound_to 2456
    2.0253   -8.8164    8.2016 LP  0  0  0  0  0  0  0  0  0  0  0  0  # atno 4300 bound_to 2456
    2.2700   -8.9460    5.9229 LP  0  0  0  0  0  0  0  0  0  0  0  0  # atno 4301 bound_to 2510
    2.1932   -7.4269    5.3285 LP  0  0  0  0  0  0  0  0  0  0  0  0  # atno 4302 bound_to 2510
   -3.0040  -17.3842   14.8646 LP  0  0  0  0  0  0  0  0  0  0  0  0  # atno 4306 bound_to 3712
   -3.5464  -16.6475   13.5119 LP  0  0  0  0  0  0  0  0  0  0  0  0  # atno 4307 bound_to 3712
    2.3135  -19.7010    8.1862 LP  0  0  0  0  0  0  0  0  0  0  0  0  # atno 4314 bound_to 3832
    3.0070  -20.9898    8.9107 LP  0  0  0  0  0  0  0  0  0  0  0  0  # atno 4315 bound_to 3832
   -3.9462  -23.1737   10.9322 LP  0  0  0  0  0  0  0  0  0  0  0  0  # atno 4318 bound_to 3762
   -5.3048  -22.7420   10.1357 LP  0  0  0  0  0  0  0  0  0  0  0  0  # atno 4319 bound_to 3762
   -4.2521   -4.7993    7.7241 LP  0  0  0  0  0  0  0  0  0  0  0  0  # atno 4320 bound_to 2467
   -3.9693   -5.3170    9.2468 LP  0  0  0  0  0  0  0  0  0  0  0  0  # atno 4321 bound_to 2467

> <Gold.Score>
     Score     S(PLP)   S(hbond)     S(cho)   S(metal)  DE(clash)   DE(tors)     intcor
     51.14     -45.18       1.59       1.00       0.00       0.00       0.91       0.00

> <Gold.PLP.Fitness>
51.1410

> <Gold.PLP.PLP>
-45.1808

> <Gold.PLP.part.hbond>
-2.0000

> <Gold.PLP.part.metal>
0.0000

> <Gold.PLP.part.buried>
-4.4369

> <Gold.PLP.part.nonpolar>
-39.5240

> <Gold.PLP.part.repulsive>
0.2079

> <Gold.PLP.ligand.clash>
0.0000

> <Gold.PLP.ligand.torsion>
0.9079

> <Gold.PLP.Chemscore.Hbond>
1.5920

> <Gold.PLP.Chemscore.CHOScore>
1.0000

> <Gold.PLP.Chemscore.Metal>
0.0000

> <Gold.Chemscore.Hbonds>
donor molecule, donor type, donor heavy atom, donor atom, acceptor molecule, acceptor atom, score
      P1  H  2305  2313       L1    13  1.00
      P1  H  3712  3721       L1    14  0.59
      L1  C     9    19       P1  1227  1.00

> <Gold.PLP.Chemscore.Internal.Correction>
0.0000

