#       Name:                EN300-7371540_i001
#       Creating user name   fsindt
#       Creation time:       Wed Mar  1 22:57:12 2023


#       File generated by GOLD software.
#

@<TRIPOS>MOLECULE
EN300-7371540_i001|acide_1|mol2|10402|dock9
    20    21     1
SMALL
USER_CHARGES


@<TRIPOS>ATOM
      1 C1           0.2315 -15.4760  11.8023 C.3            1 <1>                0.0000
      2 C2           0.1501 -14.4020  10.7482 C.2            1 <1>                0.0000
      3 C3          -0.6809 -13.2861  10.9495 C.2            1 <1>                0.0000
      4 C4          -0.7529 -12.3185   9.9975 C.2            1 <1>                0.0000
      5 Br5         -1.8648 -10.8102  10.2513 Br             1 <1>                0.0000
      6 C6           0.0119 -12.4507   8.8161 C.2            1 <1>                0.0000
      7 N7           0.1293 -11.6780   7.7502 N.2            1 <1>                0.0000
      8 C8           0.9912 -12.2479   6.8861 C.2            1 <1>                0.0000
      9 C9           1.4294 -13.4299   7.4417 C.2            1 <1>                0.0000
     10 N10          0.8139 -13.5523   8.6491 N.pl3          1 <1>                0.0000
     11 C11          0.8788 -14.5138   9.6195 C.2            1 <1>                0.0000
     12 C12          1.3939 -11.7037   5.5788 C.2            1 <1>                0.0000
     13 O13          0.5752 -11.6172   4.6738 O.co2          1 <1>                0.0000
     14 O14          2.5472 -11.3379   5.3975 O.co2          1 <1>               -1.0000
     15 H15         -0.4174 -15.2144  12.6383 H              1 <1>                0.0000
     16 H16         -0.0890 -16.4272  11.3775 H              1 <1>                0.0000
     17 H17          1.2596 -15.5629  12.1537 H              1 <1>                0.0000
     18 H18         -1.2601 -13.1981  11.8568 H              1 <1>                0.0000
     19 H19          2.1278 -14.1269   7.0024 H              1 <1>                0.0000
     20 H20          1.5179 -15.3730   9.4787 H              1 <1>                0.0000
@<TRIPOS>BOND
    1    1    2 1     
    2    1   15 1     
    3    1   16 1     
    4    1   17 1     
    5    2    3 1     
    6    2   11 2     
    7    3    4 2     
    8    3   18 1     
    9    4    5 1     
   10    4    6 1     
   11    6    7 2     
   12    6   10 1     
   13    7    8 1     
   14    8    9 2     
   15    8   12 1     
   16    9   10 1     
   17    9   19 1     
   18   10   11 1     
   19   11   20 1     
   20   12   13 ar    
   21   12   14 ar    
@<TRIPOS>SUBSTRUCTURE
      1 ****           1
@<TRIPOS>COMMENT
> <Gold.Version>
2022.2.0

> <Gold.Id.Protein>
3pbl|protein|mol2

> <Gold.Protein.RotatedTorsions>
[ 1303 1298 1297 1294 ] final   28.47 input  179.99 | X-H torsion
[ 2461 2456 2455 2452 ] final   72.96 input   30.03 | X-H torsion
[ 2515 2510 2509 2506 ] final -148.01 input  -89.99 | X-H torsion
[ 3721 3712 3711 3710 ] final   41.82 input -179.91 | X-H torsion
[ 3841 3832 3831 3830 ] final  106.48 input -179.91 | X-H torsion
[ 3767 3762 3761 3758 ] final  -50.26 input  -89.99 | X-H torsion
[ 2472 2467 2466 2463 ] final  166.99 input  -89.97 | X-H torsion

> <Gold.Protein.ActiveResidues>
 VAL82   VAL86   LEU89   PHE106  VAL107  ASP110  VAL111  MET112  CYS114  THR115 
 CYS181  SER182  ILE183  PHE188  VAL189  ILE190  SER192  SER193  SER196  TRP342 
 PHE345  PHE346  HIS349  VAL350  TYR365  THR369  GLY372  TYR373 

> <Gold.Protein.RotatedAtoms>
    3.6152  -10.1682    4.3213 H   0  0  0  0  0  0  0  0  0  0  0  0  # atno 1303 bound_to 1298
    2.0390   -8.1309    7.5216 H   0  0  0  0  0  0  0  0  0  0  0  0  # atno 2461 bound_to 2456
   -5.4459   -5.3329    8.8380 H   0  0  0  0  0  0  0  0  0  0  0  0  # atno 2472 bound_to 2467
    2.5462   -9.2475    5.4227 H   0  0  0  0  0  0  0  0  0  0  0  0  # atno 2515 bound_to 2510
   -2.5129  -18.0069   13.6266 H   0  0  0  0  0  0  0  0  0  0  0  0  # atno 3721 bound_to 3712
   -5.4984  -22.1416   10.6765 H   0  0  0  0  0  0  0  0  0  0  0  0  # atno 3767 bound_to 3762
    2.9952  -20.8329    9.0892 H   0  0  0  0  0  0  0  0  0  0  0  0  # atno 3841 bound_to 3832
    3.8464   -8.6137    3.8781 LP  0  0  0  0  0  0  0  0  0  0  0  0  # atno 4297 bound_to 1298
    4.9008   -9.3391    4.8923 LP  0  0  0  0  0  0  0  0  0  0  0  0  # atno 4298 bound_to 1298
    0.4535   -8.4073    7.2442 LP  0  0  0  0  0  0  0  0  0  0  0  0  # atno 4299 bound_to 2456
    1.2455   -9.2698    8.3823 LP  0  0  0  0  0  0  0  0  0  0  0  0  # atno 4300 bound_to 2456
    2.0399   -7.7585    5.8614 LP  0  0  0  0  0  0  0  0  0  0  0  0  # atno 4301 bound_to 2510
    2.7106   -7.9927    4.3911 LP  0  0  0  0  0  0  0  0  0  0  0  0  # atno 4302 bound_to 2510
   -3.1355  -17.1586   14.8394 LP  0  0  0  0  0  0  0  0  0  0  0  0  # atno 4306 bound_to 3712
   -3.4910  -16.7785   13.2915 LP  0  0  0  0  0  0  0  0  0  0  0  0  # atno 4307 bound_to 3712
    1.4650  -20.4423    9.3753 LP  0  0  0  0  0  0  0  0  0  0  0  0  # atno 4314 bound_to 3832
    2.3044  -19.6978    8.1889 LP  0  0  0  0  0  0  0  0  0  0  0  0  # atno 4315 bound_to 3832
   -4.1913  -22.4153   11.6164 LP  0  0  0  0  0  0  0  0  0  0  0  0  # atno 4318 bound_to 3762
   -4.4380  -23.3180   10.2781 LP  0  0  0  0  0  0  0  0  0  0  0  0  # atno 4319 bound_to 3762
   -4.4308   -4.8012    7.6747 LP  0  0  0  0  0  0  0  0  0  0  0  0  # atno 4320 bound_to 2467
   -3.8404   -5.2595    9.1265 LP  0  0  0  0  0  0  0  0  0  0  0  0  # atno 4321 bound_to 2467

> <Gold.Score>
     Score     S(PLP)   S(hbond)     S(cho)   S(metal)  DE(clash)   DE(tors)     intcor
     45.32     -37.52       1.96       1.48       0.00       0.00       1.26       0.00

> <Gold.PLP.Fitness>
45.3236

> <Gold.PLP.PLP>
-37.5204

> <Gold.PLP.part.hbond>
-2.5755

> <Gold.PLP.part.metal>
0.0000

> <Gold.PLP.part.buried>
1.2432

> <Gold.PLP.part.nonpolar>
-40.8553

> <Gold.PLP.part.repulsive>
3.6043

> <Gold.PLP.ligand.clash>
0.0000

> <Gold.PLP.ligand.torsion>
1.2649

> <Gold.PLP.Chemscore.Hbond>
1.9600

> <Gold.PLP.Chemscore.CHOScore>
1.4843

> <Gold.PLP.Chemscore.Metal>
0.0000

> <Gold.Chemscore.Hbonds>
donor molecule, donor type, donor heavy atom, donor atom, acceptor molecule, acceptor atom, score
      P1  H  1298  1303       L1    14  1.00
      P1  H  2510  2515       L1    14  0.96
      L1  C     9    19       P1  1223  0.48
      L1  C    11    20       P1  1227  1.00

> <Gold.PLP.Chemscore.Internal.Correction>
0.0000

