#       Name:                EN300-7371540_i001
#       Creating user name   fsindt
#       Creation time:       Wed Mar  1 22:57:14 2023


#       File generated by GOLD software.
#

@<TRIPOS>MOLECULE
EN300-7371540_i001|acide_1|mol2|10402|dock16
    20    21     1
SMALL
USER_CHARGES


@<TRIPOS>ATOM
      1 C1           1.1696 -11.9619   6.7899 C.3            1 <1>                0.0000
      2 C2           0.6437 -12.5584   8.0700 C.2            1 <1>                0.0000
      3 C3           0.0330 -11.7305   9.0281 C.2            1 <1>                0.0000
      4 C4          -0.4407 -12.2705  10.1821 C.2            1 <1>                0.0000
      5 Br5         -1.2656 -11.1725  11.4820 Br             1 <1>                0.0000
      6 C6          -0.3111 -13.6610  10.4007 C.2            1 <1>                0.0000
      7 N7          -0.6738 -14.4328  11.4105 N.2            1 <1>                0.0000
      8 C8          -0.3240 -15.7052  11.1400 C.2            1 <1>                0.0000
      9 C9           0.2845 -15.7239   9.9042 C.2            1 <1>                0.0000
     10 N10          0.2902 -14.4428   9.4458 N.pl3          1 <1>                0.0000
     11 C11          0.7564 -13.8840   8.2878 C.2            1 <1>                0.0000
     12 C12         -0.5517 -16.8698  12.0112 C.2            1 <1>                0.0000
     13 O13         -0.7486 -16.7093  13.2079 O.co2          1 <1>                0.0000
     14 O14         -0.5440 -17.9982  11.5383 O.co2          1 <1>               -1.0000
     15 H15          0.9874 -10.8871   6.7882 H              1 <1>                0.0000
     16 H16          2.2407 -12.1489   6.7150 H              1 <1>                0.0000
     17 H17          0.6609 -12.4180   5.9406 H              1 <1>                0.0000
     18 H18         -0.0591 -10.6696   8.8482 H              1 <1>                0.0000
     19 H19          0.6820 -16.5904   9.3964 H              1 <1>                0.0000
     20 H20          1.2224 -14.5107   7.5418 H              1 <1>                0.0000
@<TRIPOS>BOND
    1    1    2 1     
    2    1   15 1     
    3    1   16 1     
    4    1   17 1     
    5    2    3 1     
    6    2   11 2     
    7    3    4 2     
    8    3   18 1     
    9    4    5 1     
   10    4    6 1     
   11    6    7 2     
   12    6   10 1     
   13    7    8 1     
   14    8    9 2     
   15    8   12 1     
   16    9   10 1     
   17    9   19 1     
   18   10   11 1     
   19   11   20 1     
   20   12   13 ar    
   21   12   14 ar    
@<TRIPOS>SUBSTRUCTURE
      1 ****           1
@<TRIPOS>COMMENT
> <Gold.Version>
2022.2.0

> <Gold.Id.Protein>
3pbl|protein|mol2

> <Gold.Protein.RotatedTorsions>
[ 1303 1298 1297 1294 ] final  -87.16 input  179.99 | X-H torsion
[ 2461 2456 2455 2452 ] final  114.92 input   30.03 | X-H torsion
[ 2515 2510 2509 2506 ] final  157.57 input  -89.99 | X-H torsion
[ 3721 3712 3711 3710 ] final   56.73 input -179.91 | X-H torsion
[ 3841 3832 3831 3830 ] final  125.93 input -179.91 | X-H torsion
[ 3767 3762 3761 3758 ] final  122.20 input  -89.99 | X-H torsion
[ 2472 2467 2466 2463 ] final  -84.33 input  -89.97 | X-H torsion

> <Gold.Protein.ActiveResidues>
 VAL82   VAL86   LEU89   PHE106  VAL107  ASP110  VAL111  MET112  CYS114  THR115 
 CYS181  SER182  ILE183  PHE188  VAL189  ILE190  SER192  SER193  SER196  TRP342 
 PHE345  PHE346  HIS349  VAL350  TYR365  THR369  GLY372  TYR373 

> <Gold.Protein.RotatedAtoms>
    3.7904   -8.6525    3.8548 H   0  0  0  0  0  0  0  0  0  0  0  0  # atno 1303 bound_to 1298
    2.1415   -8.5849    8.0109 H   0  0  0  0  0  0  0  0  0  0  0  0  # atno 2461 bound_to 2456
   -3.9695   -5.3178    9.2468 H   0  0  0  0  0  0  0  0  0  0  0  0  # atno 2472 bound_to 2467
    2.1837   -8.7551    6.0303 H   0  0  0  0  0  0  0  0  0  0  0  0  # atno 2515 bound_to 2510
   -2.5746  -17.9306   13.4244 H   0  0  0  0  0  0  0  0  0  0  0  0  # atno 3721 bound_to 3712
   -3.9448  -23.1719   10.9342 H   0  0  0  0  0  0  0  0  0  0  0  0  # atno 3767 bound_to 3762
    3.1064  -20.6692    8.8738 H   0  0  0  0  0  0  0  0  0  0  0  0  # atno 3841 bound_to 3832
    4.9087   -9.2710    4.8713 LP  0  0  0  0  0  0  0  0  0  0  0  0  # atno 4297 bound_to 1298
    3.6632  -10.1982    4.3656 LP  0  0  0  0  0  0  0  0  0  0  0  0  # atno 4298 bound_to 1298
    0.9628   -8.0179    7.0329 LP  0  0  0  0  0  0  0  0  0  0  0  0  # atno 4299 bound_to 2456
    0.6337   -9.2054    8.1044 LP  0  0  0  0  0  0  0  0  0  0  0  0  # atno 4300 bound_to 2456
    2.2813   -7.4094    5.1107 LP  0  0  0  0  0  0  0  0  0  0  0  0  # atno 4301 bound_to 2510
    2.8319   -8.8344    4.5339 LP  0  0  0  0  0  0  0  0  0  0  0  0  # atno 4302 bound_to 2510
   -3.0109  -17.3720   14.8651 LP  0  0  0  0  0  0  0  0  0  0  0  0  # atno 4306 bound_to 3712
   -3.5443  -16.6531   13.4993 LP  0  0  0  0  0  0  0  0  0  0  0  0  # atno 4307 bound_to 3712
    1.6282  -20.6929    9.4986 LP  0  0  0  0  0  0  0  0  0  0  0  0  # atno 4314 bound_to 3832
    2.0127  -19.6363    8.3144 LP  0  0  0  0  0  0  0  0  0  0  0  0  # atno 4315 bound_to 3832
   -5.3030  -22.7443   10.1347 LP  0  0  0  0  0  0  0  0  0  0  0  0  # atno 4318 bound_to 3762
   -4.8792  -21.9590   11.5023 LP  0  0  0  0  0  0  0  0  0  0  0  0  # atno 4319 bound_to 3762
   -5.4958   -5.2764    8.6681 LP  0  0  0  0  0  0  0  0  0  0  0  0  # atno 4320 bound_to 2467
   -4.2515   -4.7994    7.7243 LP  0  0  0  0  0  0  0  0  0  0  0  0  # atno 4321 bound_to 2467

> <Gold.Score>
     Score     S(PLP)   S(hbond)     S(cho)   S(metal)  DE(clash)   DE(tors)     intcor
     39.31     -35.95       0.24       1.00       0.00       0.00       0.18       0.00

> <Gold.PLP.Fitness>
39.3069

> <Gold.PLP.PLP>
-35.9455

> <Gold.PLP.part.hbond>
-1.0000

> <Gold.PLP.part.metal>
0.0000

> <Gold.PLP.part.buried>
-0.6092

> <Gold.PLP.part.nonpolar>
-33.9453

> <Gold.PLP.part.repulsive>
0.1835

> <Gold.PLP.ligand.clash>
0.0000

> <Gold.PLP.ligand.torsion>
0.1836

> <Gold.PLP.Chemscore.Hbond>
0.2445

> <Gold.PLP.Chemscore.CHOScore>
0.9983

> <Gold.PLP.Chemscore.Metal>
0.0000

> <Gold.Chemscore.Hbonds>
donor molecule, donor type, donor heavy atom, donor atom, acceptor molecule, acceptor atom, score
      P1  H  3712  3721       L1    13  0.24
      L1  C     9    19       P1  1227  1.00

> <Gold.PLP.Chemscore.Internal.Correction>
0.0000

