#       Name:                EN300-7371540_i001
#       Creating user name   fsindt
#       Creation time:       Wed Mar  1 22:57:11 2023


#       File generated by GOLD software.
#

@<TRIPOS>MOLECULE
EN300-7371540_i001|acide_1|mol2|10402|dock5
    20    21     1
SMALL
USER_CHARGES


@<TRIPOS>ATOM
      1 C1           0.6188 -13.7251   7.2059 C.3            1 <1>                0.0000
      2 C2           0.2796 -13.8940   8.6645 C.2            1 <1>                0.0000
      3 C3          -0.2504 -12.8121   9.3890 C.2            1 <1>                0.0000
      4 C4          -0.5557 -12.9665  10.7046 C.2            1 <1>                0.0000
      5 Br5         -1.2699 -11.5225  11.6948 Br             1 <1>                0.0000
      6 C6          -0.3344 -14.2171  11.3250 C.2            1 <1>                0.0000
      7 N7          -0.5359 -14.6360  12.5623 N.2            1 <1>                0.0000
      8 C8          -0.1607 -15.9262  12.6570 C.2            1 <1>                0.0000
      9 C9           0.2951 -16.3270  11.4203 C.2            1 <1>                0.0000
     10 N10          0.1844 -15.2544  10.5904 N.pl3          1 <1>                0.0000
     11 C11          0.4809 -15.0835   9.2663 C.2            1 <1>                0.0000
     12 C12         -0.2262 -16.7606  13.8682 C.2            1 <1>                0.0000
     13 O13         -0.4065 -17.9667  13.7711 O.co2          1 <1>                0.0000
     14 O14         -0.1002 -16.2476  14.9718 O.co2          1 <1>               -1.0000
     15 H15          0.3866 -12.7066   6.8945 H              1 <1>                0.0000
     16 H16          1.6809 -13.9179   7.0551 H              1 <1>                0.0000
     17 H17          0.0341 -14.4286   6.6131 H              1 <1>                0.0000
     18 H18         -0.4140 -11.8619   8.9024 H              1 <1>                0.0000
     19 H19          0.6696 -17.3059  11.1594 H              1 <1>                0.0000
     20 H20          0.8833 -15.9089   8.6978 H              1 <1>                0.0000
@<TRIPOS>BOND
    1    1    2 1     
    2    1   15 1     
    3    1   16 1     
    4    1   17 1     
    5    2    3 1     
    6    2   11 2     
    7    3    4 2     
    8    3   18 1     
    9    4    5 1     
   10    4    6 1     
   11    6    7 2     
   12    6   10 1     
   13    7    8 1     
   14    8    9 2     
   15    8   12 1     
   16    9   10 1     
   17    9   19 1     
   18   10   11 1     
   19   11   20 1     
   20   12   13 ar    
   21   12   14 ar    
@<TRIPOS>SUBSTRUCTURE
      1 ****           1
@<TRIPOS>COMMENT
> <Gold.Version>
2022.2.0

> <Gold.Id.Protein>
3pbl|protein|mol2

> <Gold.Protein.RotatedTorsions>
[ 1303 1298 1297 1294 ] final  121.11 input  179.99 | X-H torsion
[ 2461 2456 2455 2452 ] final  178.86 input   30.03 | X-H torsion
[ 2515 2510 2509 2506 ] final -135.10 input  -89.99 | X-H torsion
[ 3721 3712 3711 3710 ] final   26.30 input -179.91 | X-H torsion
[ 3841 3832 3831 3830 ] final  -60.95 input -179.91 | X-H torsion
[ 3767 3762 3761 3758 ] final -165.54 input  -89.99 | X-H torsion
[ 2472 2467 2466 2463 ] final   20.92 input  -89.97 | X-H torsion

> <Gold.Protein.ActiveResidues>
 VAL82   VAL86   LEU89   PHE106  VAL107  ASP110  VAL111  MET112  CYS114  THR115 
 CYS181  SER182  ILE183  PHE188  VAL189  ILE190  SER192  SER193  SER196  TRP342 
 PHE345  PHE346  HIS349  VAL350  TYR365  THR369  GLY372  TYR373 

> <Gold.Protein.RotatedAtoms>
    4.7518   -9.7553    4.9509 H   0  0  0  0  0  0  0  0  0  0  0  0  # atno 1303 bound_to 1298
    1.4686   -9.2110    8.4015 H   0  0  0  0  0  0  0  0  0  0  0  0  # atno 2461 bound_to 2456
   -4.0378   -4.8169    7.8362 H   0  0  0  0  0  0  0  0  0  0  0  0  # atno 2472 bound_to 2467
    2.6297   -9.2546    5.2282 H   0  0  0  0  0  0  0  0  0  0  0  0  # atno 2515 bound_to 2510
   -2.4767  -18.0344   13.8560 H   0  0  0  0  0  0  0  0  0  0  0  0  # atno 3721 bound_to 3712
   -4.2428  -22.3597   11.6325 H   0  0  0  0  0  0  0  0  0  0  0  0  # atno 3767 bound_to 3762
    1.6180  -19.8034    9.0202 H   0  0  0  0  0  0  0  0  0  0  0  0  # atno 3841 bound_to 3832
    3.3921   -9.8871    4.0565 LP  0  0  0  0  0  0  0  0  0  0  0  0  # atno 4297 bound_to 1298
    4.2180   -8.4787    4.0839 LP  0  0  0  0  0  0  0  0  0  0  0  0  # atno 4298 bound_to 1298
    1.9035   -8.0240    7.3675 LP  0  0  0  0  0  0  0  0  0  0  0  0  # atno 4299 bound_to 2456
    0.3658   -8.5733    7.3794 LP  0  0  0  0  0  0  0  0  0  0  0  0  # atno 4300 bound_to 2456
    2.0285   -7.9349    5.9783 LP  0  0  0  0  0  0  0  0  0  0  0  0  # atno 4301 bound_to 2510
    2.6383   -7.8093    4.4687 LP  0  0  0  0  0  0  0  0  0  0  0  0  # atno 4302 bound_to 2510
   -3.2616  -16.9530   14.7463 LP  0  0  0  0  0  0  0  0  0  0  0  0  # atno 4306 bound_to 3712
   -3.4067  -16.9523   13.1197 LP  0  0  0  0  0  0  0  0  0  0  0  0  # atno 4307 bound_to 3712
    2.9568  -20.1854    8.2216 LP  0  0  0  0  0  0  0  0  0  0  0  0  # atno 4314 bound_to 3832
    2.4036  -21.1440    9.4224 LP  0  0  0  0  0  0  0  0  0  0  0  0  # atno 4315 bound_to 3832
   -4.3767  -23.3286   10.3248 LP  0  0  0  0  0  0  0  0  0  0  0  0  # atno 4318 bound_to 3762
   -5.5076  -22.1867   10.6140 LP  0  0  0  0  0  0  0  0  0  0  0  0  # atno 4319 bound_to 3762
   -4.1722   -5.3811    9.3626 LP  0  0  0  0  0  0  0  0  0  0  0  0  # atno 4320 bound_to 2467
   -5.5069   -5.1955    8.4402 LP  0  0  0  0  0  0  0  0  0  0  0  0  # atno 4321 bound_to 2467

> <Gold.Score>
     Score     S(PLP)   S(hbond)     S(cho)   S(metal)  DE(clash)   DE(tors)     intcor
     47.92     -37.70       1.96       1.70       0.00       0.00       0.39       0.00

> <Gold.PLP.Fitness>
47.9167

> <Gold.PLP.PLP>
-37.6965

> <Gold.PLP.part.hbond>
-2.0000

> <Gold.PLP.part.metal>
0.0000

> <Gold.PLP.part.buried>
-0.4723

> <Gold.PLP.part.nonpolar>
-36.1277

> <Gold.PLP.part.repulsive>
0.1549

> <Gold.PLP.ligand.clash>
0.0000

> <Gold.PLP.ligand.torsion>
0.3858

> <Gold.PLP.Chemscore.Hbond>
1.9600

> <Gold.PLP.Chemscore.CHOScore>
1.7040

> <Gold.PLP.Chemscore.Metal>
0.0000

> <Gold.Chemscore.Hbonds>
donor molecule, donor type, donor heavy atom, donor atom, acceptor molecule, acceptor atom, score
      P1  H  2305  2313       L1    14  1.00
      P1  H  3712  3721       L1    13  0.96
      L1  C     9    19       P1  1227  0.81
      L1  C    11    20       P1  1227  0.89

> <Gold.PLP.Chemscore.Internal.Correction>
0.0000

