#       Name:                EN300-7371540_i001
#       Creating user name   fsindt
#       Creation time:       Wed Mar  1 22:57:13 2023


#       File generated by GOLD software.
#

@<TRIPOS>MOLECULE
EN300-7371540_i001|acide_1|mol2|10402|dock12
    20    21     1
SMALL
USER_CHARGES


@<TRIPOS>ATOM
      1 C1          -0.7862 -23.1321  10.9332 C.3            1 <1>                0.0000
      2 C2          -0.7584 -21.9352  11.8484 C.2            1 <1>                0.0000
      3 C3          -1.2609 -22.0437  13.1570 C.2            1 <1>                0.0000
      4 C4          -1.2349 -20.9629  13.9809 C.2            1 <1>                0.0000
      5 Br5         -1.9057 -21.0903  15.7443 Br             1 <1>                0.0000
      6 C6          -0.7010 -19.7430  13.5069 C.2            1 <1>                0.0000
      7 N7          -0.5559 -18.5612  14.0809 N.2            1 <1>                0.0000
      8 C8           0.0121 -17.7120  13.2030 C.2            1 <1>                0.0000
      9 C9           0.2297 -18.3989  12.0289 C.2            1 <1>                0.0000
     10 N10         -0.2180 -19.6690  12.2240 N.pl3          1 <1>                0.0000
     11 C11         -0.2467 -20.7676  11.4099 C.2            1 <1>                0.0000
     12 C12          0.3419 -16.2994  13.4541 C.2            1 <1>                0.0000
     13 O13          0.7529 -15.5957  12.5416 O.co2          1 <1>                0.0000
     14 O14          0.2048 -15.8292  14.5753 O.co2          1 <1>               -1.0000
     15 H15         -1.2273 -23.9801  11.4573 H              1 <1>                0.0000
     16 H16         -1.3822 -22.9008  10.0504 H              1 <1>                0.0000
     17 H17          0.2307 -23.3813  10.6299 H              1 <1>                0.0000
     18 H18         -1.6663 -22.9819  13.5060 H              1 <1>                0.0000
     19 H19          0.6710 -18.0043  11.1255 H              1 <1>                0.0000
     20 H20          0.1415 -20.6981  10.4045 H              1 <1>                0.0000
@<TRIPOS>BOND
    1    1    2 1     
    2    1   15 1     
    3    1   16 1     
    4    1   17 1     
    5    2    3 1     
    6    2   11 2     
    7    3    4 2     
    8    3   18 1     
    9    4    5 1     
   10    4    6 1     
   11    6    7 2     
   12    6   10 1     
   13    7    8 1     
   14    8    9 2     
   15    8   12 1     
   16    9   10 1     
   17    9   19 1     
   18   10   11 1     
   19   11   20 1     
   20   12   13 ar    
   21   12   14 ar    
@<TRIPOS>SUBSTRUCTURE
      1 ****           1
@<TRIPOS>COMMENT
> <Gold.Version>
2022.2.0

> <Gold.Id.Protein>
3pbl|protein|mol2

> <Gold.Protein.RotatedTorsions>
[ 1303 1298 1297 1294 ] final  123.48 input  179.99 | X-H torsion
[ 2461 2456 2455 2452 ] final    5.22 input   30.03 | X-H torsion
[ 2515 2510 2509 2506 ] final  -64.41 input  -89.99 | X-H torsion
[ 3721 3712 3711 3710 ] final    4.28 input -179.91 | X-H torsion
[ 3841 3832 3831 3830 ] final -168.25 input -179.91 | X-H torsion
[ 3767 3762 3761 3758 ] final  -83.71 input  -89.99 | X-H torsion
[ 2472 2467 2466 2463 ] final   29.29 input  -89.97 | X-H torsion

> <Gold.Protein.ActiveResidues>
 VAL82   VAL86   LEU89   PHE106  VAL107  ASP110  VAL111  MET112  CYS114  THR115 
 CYS181  SER182  ILE183  PHE188  VAL189  ILE190  SER192  SER193  SER196  TRP342 
 PHE345  PHE346  HIS349  VAL350  TYR365  THR369  GLY372  TYR373 

> <Gold.Protein.RotatedAtoms>
    4.7710   -9.7214    4.9511 H   0  0  0  0  0  0  0  0  0  0  0  0  # atno 1303 bound_to 1298
    1.1230   -7.9630    7.0341 H   0  0  0  0  0  0  0  0  0  0  0  0  # atno 2461 bound_to 2456
   -4.1556   -4.8047    7.7662 H   0  0  0  0  0  0  0  0  0  0  0  0  # atno 2472 bound_to 2467
    2.8298   -8.5693    4.4039 H   0  0  0  0  0  0  0  0  0  0  0  0  # atno 2515 bound_to 2510
   -2.4791  -17.9796   14.1824 H   0  0  0  0  0  0  0  0  0  0  0  0  # atno 3721 bound_to 3712
   -5.2891  -21.9343   11.1322 H   0  0  0  0  0  0  0  0  0  0  0  0  # atno 3767 bound_to 3762
    2.8442  -19.9216    8.3668 H   0  0  0  0  0  0  0  0  0  0  0  0  # atno 3841 bound_to 3832
    3.4054   -9.9171    4.0774 LP  0  0  0  0  0  0  0  0  0  0  0  0  # atno 4297 bound_to 1298
    4.1855   -8.4826    4.0629 LP  0  0  0  0  0  0  0  0  0  0  0  0  # atno 4298 bound_to 1298
    0.5219   -9.1371    7.9971 LP  0  0  0  0  0  0  0  0  0  0  0  0  # atno 4299 bound_to 2456
    2.0929   -8.7078    8.1167 LP  0  0  0  0  0  0  0  0  0  0  0  0  # atno 4300 bound_to 2456
    2.2940   -8.9891    5.8880 LP  0  0  0  0  0  0  0  0  0  0  0  0  # atno 4301 bound_to 2510
    2.1728   -7.4406    5.3838 LP  0  0  0  0  0  0  0  0  0  0  0  0  # atno 4302 bound_to 2510
   -3.4167  -16.7186   14.5121 LP  0  0  0  0  0  0  0  0  0  0  0  0  # atno 4306 bound_to 3712
   -3.2488  -17.2499   12.9771 LP  0  0  0  0  0  0  0  0  0  0  0  0  # atno 4307 bound_to 3712
    2.5464  -21.1577    9.3462 LP  0  0  0  0  0  0  0  0  0  0  0  0  # atno 4314 bound_to 3832
    1.3975  -20.0351    9.0525 LP  0  0  0  0  0  0  0  0  0  0  0  0  # atno 4315 bound_to 3832
   -3.9395  -22.8241   11.3639 LP  0  0  0  0  0  0  0  0  0  0  0  0  # atno 4318 bound_to 3762
   -4.8989  -23.1163   10.0751 LP  0  0  0  0  0  0  0  0  0  0  0  0  # atno 4319 bound_to 3762
   -4.0530   -5.3465    9.3032 LP  0  0  0  0  0  0  0  0  0  0  0  0  # atno 4320 bound_to 2467
   -5.5082   -5.2422    8.5696 LP  0  0  0  0  0  0  0  0  0  0  0  0  # atno 4321 bound_to 2467

> <Gold.Score>
     Score     S(PLP)   S(hbond)     S(cho)   S(metal)  DE(clash)   DE(tors)     intcor
     38.03     -27.05       2.00       1.67       0.00       0.00       0.02       0.00

> <Gold.PLP.Fitness>
38.0264

> <Gold.PLP.PLP>
-27.0488

> <Gold.PLP.part.hbond>
-2.0000

> <Gold.PLP.part.metal>
0.0000

> <Gold.PLP.part.buried>
-4.8241

> <Gold.PLP.part.nonpolar>
-21.4854

> <Gold.PLP.part.repulsive>
0.1162

> <Gold.PLP.ligand.clash>
0.0000

> <Gold.PLP.ligand.torsion>
0.0171

> <Gold.PLP.Chemscore.Hbond>
2.0000

> <Gold.PLP.Chemscore.CHOScore>
1.6706

> <Gold.PLP.Chemscore.Metal>
0.0000

> <Gold.Chemscore.Hbonds>
donor molecule, donor type, donor heavy atom, donor atom, acceptor molecule, acceptor atom, score
      P1  H  2305  2313       L1    14  1.00
      P1  H  3712  3721       L1     7  1.00
      L1  C     9    19       P1  1227  1.00
      L1  C    11    20       P1  3832  0.67

> <Gold.PLP.Chemscore.Internal.Correction>
0.0000

