#       Name:                EN300-35009_i001
#       Creating user name   fsindt
#       Creation time:       Wed Mar  1 02:13:47 2023


#       File generated by GOLD software.
#

@<TRIPOS>MOLECULE
EN300-35009_i001|acide_3|mol2|8936|dock13
    23    24     1
SMALL
USER_CHARGES


@<TRIPOS>ATOM
      1 C1           1.1021 -15.2557   7.2165 C.3            1 <1>                0.0000
      2 C2           0.6541 -14.6764   8.5336 C.2            1 <1>                0.0000
      3 N3           0.5150 -15.4595   9.5977 N.2            1 <1>                0.0000
      4 C4           0.1293 -14.9994  10.7592 C.2            1 <1>                0.0000
      5 N5          -0.1564 -13.7034  10.9693 N.am           1 <1>                0.0000
      6 C6          -0.0505 -12.8125   9.9586 C.2            1 <1>                0.0000
      7 O7          -0.3053 -11.6338  10.1295 O.2            1 <1>                0.0000
      8 C8           0.3872 -13.3119   8.6481 C.2            1 <1>                0.0000
      9 C9           0.5278 -12.4110   7.4996 C.2            1 <1>                0.0000
     10 O10          0.9630 -11.2782   7.6599 O.co2          1 <1>                0.0000
     11 O11          0.2099 -12.7919   6.3805 O.co2          1 <1>               -1.0000
     12 C12         -0.0004 -15.9631  11.9105 C.3            1 <1>                0.0000
     13 C13          1.0523 -15.8862  13.0181 C.3            1 <1>                0.0000
     14 C14         -0.3696 -15.3846  13.2780 C.3            1 <1>                0.0000
     15 H15          1.2641 -16.3278   7.3275 H              1 <1>                0.0000
     16 H16          0.3347 -15.0802   6.4626 H              1 <1>                0.0000
     17 H17          2.0317 -14.7780   6.9069 H              1 <1>                0.0000
     18 H18         -0.3936 -16.9477  11.6574 H              1 <1>                0.0000
     19 H19          1.3513 -16.8202  13.4939 H              1 <1>                0.0000
     20 H20          1.8387 -15.1386  12.9142 H              1 <1>                0.0000
     21 H21         -0.5188 -14.3070  13.3449 H              1 <1>                0.0000
     22 H22         -1.0061 -15.9885  13.9247 H              1 <1>                0.0000
     23 H23         -0.4398 -13.4066  11.8482 H              1 <1>                0.0000
@<TRIPOS>BOND
    1    1    2 1     
    2    1   15 1     
    3    1   16 1     
    4    1   17 1     
    5    2    3 1     
    6    2    8 2     
    7    3    4 2     
    8    4    5 1     
    9    4   12 1     
   10    5    6 am    
   11    5   23 1     
   12    6    7 2     
   13    6    8 1     
   14    8    9 1     
   15    9   10 ar    
   16    9   11 ar    
   17   12   13 1     
   18   12   14 1     
   19   12   18 1     
   20   13   14 1     
   21   13   19 1     
   22   13   20 1     
   23   14   21 1     
   24   14   22 1     
@<TRIPOS>SUBSTRUCTURE
      1 ****           1
@<TRIPOS>SET
DONOR_HYDROGENS      STATIC     ATOMS    <user>   **** ""
1 23
ATOM$RED        STATIC     ATOMS    COLORGROUP SYSTEM
1 23
@<TRIPOS>COMMENT
> <Gold.Version>
2022.2.0

> <Gold.Id.Protein>
3pbl|protein|mol2

> <Gold.Protein.RotatedTorsions>
[ 1303 1298 1297 1294 ] final   35.67 input  179.99 | X-H torsion
[ 2461 2456 2455 2452 ] final -143.51 input   30.03 | X-H torsion
[ 2515 2510 2509 2506 ] final  -71.83 input  -89.99 | X-H torsion
[ 3721 3712 3711 3710 ] final   36.41 input -179.91 | X-H torsion
[ 3841 3832 3831 3830 ] final  -65.25 input -179.91 | X-H torsion
[ 3767 3762 3761 3758 ] final   13.92 input  -89.99 | X-H torsion
[ 2472 2467 2466 2463 ] final -139.13 input  -89.97 | X-H torsion

> <Gold.Protein.ActiveResidues>
 VAL82   VAL86   LEU89   PHE106  VAL107  ASP110  VAL111  MET112  CYS114  THR115 
 CYS181  SER182  ILE183  PHE188  VAL189  ILE190  SER192  SER193  SER196  TRP342 
 PHE345  PHE346  HIS349  VAL350  TYR365  THR369  GLY372  TYR373 

> <Gold.Protein.RotatedAtoms>
    3.6954  -10.2144    4.3949 H   0  0  0  0  0  0  0  0  0  0  0  0  # atno 1303 bound_to 1298
    0.8800   -9.2782    8.2631 H   0  0  0  0  0  0  0  0  0  0  0  0  # atno 2461 bound_to 2456
   -4.8117   -5.4640    9.3954 H   0  0  0  0  0  0  0  0  0  0  0  0  # atno 2472 bound_to 2467
    2.8355   -8.6828    4.4484 H   0  0  0  0  0  0  0  0  0  0  0  0  # atno 2515 bound_to 2510
   -2.4969  -18.0226   13.7052 H   0  0  0  0  0  0  0  0  0  0  0  0  # atno 3721 bound_to 3712
   -5.1809  -22.8836   10.0826 H   0  0  0  0  0  0  0  0  0  0  0  0  # atno 3767 bound_to 3762
    1.6421  -19.7665    8.9723 H   0  0  0  0  0  0  0  0  0  0  0  0  # atno 3841 bound_to 3832
    3.7556   -8.6797    3.8405 LP  0  0  0  0  0  0  0  0  0  0  0  0  # atno 4297 bound_to 1298
    4.9114   -9.2269    4.8561 LP  0  0  0  0  0  0  0  0  0  0  0  0  # atno 4298 bound_to 1298
    2.1554   -8.3691    7.8002 LP  0  0  0  0  0  0  0  0  0  0  0  0  # atno 4299 bound_to 2456
    0.7022   -8.1611    7.0850 LP  0  0  0  0  0  0  0  0  0  0  0  0  # atno 4300 bound_to 2456
    2.2461   -8.8994    5.9555 LP  0  0  0  0  0  0  0  0  0  0  0  0  # atno 4301 bound_to 2510
    2.2149   -7.4168    5.2717 LP  0  0  0  0  0  0  0  0  0  0  0  0  # atno 4302 bound_to 2510
   -3.1803  -17.0842   14.8143 LP  0  0  0  0  0  0  0  0  0  0  0  0  # atno 4306 bound_to 3712
   -3.4646  -16.8346   13.2258 LP  0  0  0  0  0  0  0  0  0  0  0  0  # atno 4307 bound_to 3712
    2.9938  -20.2410    8.2485 LP  0  0  0  0  0  0  0  0  0  0  0  0  # atno 4314 bound_to 3832
    2.3387  -21.1309    9.4508 LP  0  0  0  0  0  0  0  0  0  0  0  0  # atno 4315 bound_to 3832
   -5.0350  -21.9227   11.3949 LP  0  0  0  0  0  0  0  0  0  0  0  0  # atno 4318 bound_to 3762
   -3.9116  -23.0689   11.0933 LP  0  0  0  0  0  0  0  0  0  0  0  0  # atno 4319 bound_to 3762
   -5.2378   -4.9705    7.8983 LP  0  0  0  0  0  0  0  0  0  0  0  0  # atno 4320 bound_to 2467
   -3.6674   -4.9590    8.3457 LP  0  0  0  0  0  0  0  0  0  0  0  0  # atno 4321 bound_to 2467

> <Gold.Score>
     Score     S(PLP)   S(hbond)     S(cho)   S(metal)  DE(clash)   DE(tors)     intcor
     34.80     -32.63       0.80       0.00       0.00       0.00       0.71       1.18

> <Gold.PLP.Fitness>
34.7988

> <Gold.PLP.PLP>
-32.6315

> <Gold.PLP.part.hbond>
-1.0000

> <Gold.PLP.part.metal>
0.0000

> <Gold.PLP.part.buried>
-3.4110

> <Gold.PLP.part.nonpolar>
-29.4376

> <Gold.PLP.part.repulsive>
1.2173

> <Gold.PLP.ligand.clash>
0.0000

> <Gold.PLP.ligand.torsion>
0.7063

> <Gold.PLP.Chemscore.Hbond>
0.8000

> <Gold.PLP.Chemscore.CHOScore>
0.0000

> <Gold.PLP.Chemscore.Metal>
0.0000

> <Gold.Chemscore.Hbonds>
donor molecule, donor type, donor heavy atom, donor atom, acceptor molecule, acceptor atom, score
      P1  H  2456  2461       L1    10  0.80

> <Gold.PLP.Chemscore.Internal.Correction>
1.1798

