#       Name:                EN300-35009_i001
#       Creating user name   fsindt
#       Creation time:       Wed Mar  1 02:13:46 2023


#       File generated by GOLD software.
#

@<TRIPOS>MOLECULE
EN300-35009_i001|acide_3|mol2|8936|dock9
    23    24     1
SMALL
USER_CHARGES


@<TRIPOS>ATOM
      1 C1          -0.8119 -11.5164   9.7664 C.3            1 <1>                0.0000
      2 C2          -0.1928 -12.8834   9.6282 C.2            1 <1>                0.0000
      3 N3          -0.3070 -13.7731  10.6080 N.2            1 <1>                0.0000
      4 C4           0.2136 -14.9700  10.5303 C.2            1 <1>                0.0000
      5 N5           0.9032 -15.3946   9.4582 N.am           1 <1>                0.0000
      6 C6           1.0839 -14.5747   8.3991 C.2            1 <1>                0.0000
      7 O7           1.7061 -14.9415   7.4184 O.2            1 <1>                0.0000
      8 C8           0.5004 -13.2282   8.4677 C.2            1 <1>                0.0000
      9 C9           0.6506 -12.2774   7.3613 C.2            1 <1>                0.0000
     10 O10          0.5760 -12.6685   6.2038 O.co2          1 <1>                0.0000
     11 O11          0.8505 -11.0926   7.5954 O.co2          1 <1>               -1.0000
     12 C12          0.0329 -15.9126  11.6922 C.3            1 <1>                0.0000
     13 C13          1.2772 -16.2827  12.5018 C.3            1 <1>                0.0000
     14 C14          0.2268 -15.3447  13.0996 C.3            1 <1>                0.0000
     15 H15         -1.3102 -11.4393  10.7327 H              1 <1>                0.0000
     16 H16         -0.0337 -10.7565   9.6971 H              1 <1>                0.0000
     17 H17         -1.5397 -11.3649   8.9692 H              1 <1>                0.0000
     18 H18         -0.7284 -16.6813  11.5598 H              1 <1>                0.0000
     19 H19          1.3344 -17.2948  12.9023 H              1 <1>                0.0000
     20 H20          2.2267 -15.8444  12.1942 H              1 <1>                0.0000
     21 H21          0.4849 -14.2892  13.1852 H              1 <1>                0.0000
     22 H22         -0.4072 -15.7396  13.8934 H              1 <1>                0.0000
     23 H23          1.2726 -16.2914   9.4444 H              1 <1>                0.0000
@<TRIPOS>BOND
    1    1    2 1     
    2    1   15 1     
    3    1   16 1     
    4    1   17 1     
    5    2    3 1     
    6    2    8 2     
    7    3    4 2     
    8    4    5 1     
    9    4   12 1     
   10    5    6 am    
   11    5   23 1     
   12    6    7 2     
   13    6    8 1     
   14    8    9 1     
   15    9   10 ar    
   16    9   11 ar    
   17   12   13 1     
   18   12   14 1     
   19   12   18 1     
   20   13   14 1     
   21   13   19 1     
   22   13   20 1     
   23   14   21 1     
   24   14   22 1     
@<TRIPOS>SUBSTRUCTURE
      1 ****           1
@<TRIPOS>SET
DONOR_HYDROGENS      STATIC     ATOMS    <user>   **** ""
1 23
ATOM$RED        STATIC     ATOMS    COLORGROUP SYSTEM
1 23
@<TRIPOS>COMMENT
> <Gold.Version>
2022.2.0

> <Gold.Id.Protein>
3pbl|protein|mol2

> <Gold.Protein.RotatedTorsions>
[ 1303 1298 1297 1294 ] final -105.96 input  179.99 | X-H torsion
[ 2461 2456 2455 2452 ] final -139.49 input   30.03 | X-H torsion
[ 2515 2510 2509 2506 ] final   79.58 input  -89.99 | X-H torsion
[ 3721 3712 3711 3710 ] final   55.20 input -179.91 | X-H torsion
[ 3841 3832 3831 3830 ] final  177.97 input -179.91 | X-H torsion
[ 3767 3762 3761 3758 ] final -147.51 input  -89.99 | X-H torsion
[ 2472 2467 2466 2463 ] final -152.42 input  -89.97 | X-H torsion

> <Gold.Protein.ActiveResidues>
 VAL82   VAL86   LEU89   PHE106  VAL107  ASP110  VAL111  MET112  CYS114  THR115 
 CYS181  SER182  ILE183  PHE188  VAL189  ILE190  SER192  SER193  SER196  TRP342 
 PHE345  PHE346  HIS349  VAL350  TYR365  THR369  GLY372  TYR373 

> <Gold.Protein.RotatedAtoms>
    4.0396   -8.5185    3.9760 H   0  0  0  0  0  0  0  0  0  0  0  0  # atno 1303 bound_to 1298
    0.8221   -9.2681    8.2328 H   0  0  0  0  0  0  0  0  0  0  0  0  # atno 2461 bound_to 2456
   -5.0138   -5.4567    9.3132 H   0  0  0  0  0  0  0  0  0  0  0  0  # atno 2472 bound_to 2467
    2.0697   -7.6165    5.7184 H   0  0  0  0  0  0  0  0  0  0  0  0  # atno 2515 bound_to 2510
   -2.5672  -17.9405   13.4439 H   0  0  0  0  0  0  0  0  0  0  0  0  # atno 3721 bound_to 3712
   -4.4678  -22.1686   11.6461 H   0  0  0  0  0  0  0  0  0  0  0  0  # atno 3767 bound_to 3762
    2.9750  -20.0734    8.4217 H   0  0  0  0  0  0  0  0  0  0  0  0  # atno 3841 bound_to 3832
    4.8430   -9.5640    4.9393 LP  0  0  0  0  0  0  0  0  0  0  0  0  # atno 4297 bound_to 1298
    3.4796  -10.0392    4.1764 LP  0  0  0  0  0  0  0  0  0  0  0  0  # atno 4298 bound_to 1298
    2.1604   -8.4149    7.8476 LP  0  0  0  0  0  0  0  0  0  0  0  0  # atno 4299 bound_to 2456
    0.7551   -8.1254    7.0679 LP  0  0  0  0  0  0  0  0  0  0  0  0  # atno 4300 bound_to 2456
    2.7670   -8.1855    4.3561 LP  0  0  0  0  0  0  0  0  0  0  0  0  # atno 4301 bound_to 2510
    2.4602   -9.1975    5.6005 LP  0  0  0  0  0  0  0  0  0  0  0  0  # atno 4302 bound_to 2510
   -3.0236  -17.3499   14.8654 LP  0  0  0  0  0  0  0  0  0  0  0  0  # atno 4306 bound_to 3712
   -3.5402  -16.6638   13.4765 LP  0  0  0  0  0  0  0  0  0  0  0  0  # atno 4307 bound_to 3712
    2.3427  -21.1318    9.4492 LP  0  0  0  0  0  0  0  0  0  0  0  0  # atno 4314 bound_to 3832
    1.4501  -19.8857    8.8861 LP  0  0  0  0  0  0  0  0  0  0  0  0  # atno 4315 bound_to 3832
   -4.1671  -23.3251   10.5330 LP  0  0  0  0  0  0  0  0  0  0  0  0  # atno 4318 bound_to 3762
   -5.4923  -22.3812   10.3922 LP  0  0  0  0  0  0  0  0  0  0  0  0  # atno 4319 bound_to 3762
   -5.0681   -4.9079    7.7762 LP  0  0  0  0  0  0  0  0  0  0  0  0  # atno 4320 bound_to 2467
   -3.6351   -5.0290    8.5498 LP  0  0  0  0  0  0  0  0  0  0  0  0  # atno 4321 bound_to 2467

> <Gold.Score>
     Score     S(PLP)   S(hbond)     S(cho)   S(metal)  DE(clash)   DE(tors)     intcor
     38.83     -34.09       1.77       0.00       0.00       0.00       0.88       1.18

> <Gold.PLP.Fitness>
38.8268

> <Gold.PLP.PLP>
-34.0936

> <Gold.PLP.part.hbond>
-2.0000

> <Gold.PLP.part.metal>
0.0000

> <Gold.PLP.part.buried>
-5.2825

> <Gold.PLP.part.nonpolar>
-29.0272

> <Gold.PLP.part.repulsive>
1.5600

> <Gold.PLP.ligand.clash>
0.0000

> <Gold.PLP.ligand.torsion>
0.8753

> <Gold.PLP.Chemscore.Hbond>
1.7680

> <Gold.PLP.Chemscore.CHOScore>
0.0000

> <Gold.PLP.Chemscore.Metal>
0.0000

> <Gold.Chemscore.Hbonds>
donor molecule, donor type, donor heavy atom, donor atom, acceptor molecule, acceptor atom, score
      L1  H     5    23       P1  1227  1.00
      P1  H  2456  2461       L1    11  0.77

> <Gold.PLP.Chemscore.Internal.Correction>
1.1798

