#       Name:                EN300-35009_i001
#       Creating user name   fsindt
#       Creation time:       Wed Mar  1 02:13:44 2023


#       File generated by GOLD software.
#

@<TRIPOS>MOLECULE
EN300-35009_i001|acide_3|mol2|8936|dock6
    23    24     1
SMALL
USER_CHARGES


@<TRIPOS>ATOM
      1 C1          -1.6007 -10.9061  11.5987 C.3            1 <1>                0.0000
      2 C2          -0.9487 -12.2136  11.2295 C.2            1 <1>                0.0000
      3 N3          -1.0018 -13.2478  12.0617 N.2            1 <1>                0.0000
      4 C4          -0.4508 -14.3999  11.7818 C.2            1 <1>                0.0000
      5 N5           0.2110 -14.6299  10.6353 N.am           1 <1>                0.0000
      6 C6           0.3297 -13.6503   9.7118 C.2            1 <1>                0.0000
      7 O7           0.9258 -13.8396   8.6668 O.2            1 <1>                0.0000
      8 C8          -0.2887 -12.3510  10.0081 C.2            1 <1>                0.0000
      9 C9          -0.2059 -11.2358   9.0593 C.2            1 <1>                0.0000
     10 O10         -1.1586 -10.4803   8.9182 O.co2          1 <1>                0.0000
     11 O11          0.8160 -11.0605   8.4085 O.co2          1 <1>               -1.0000
     12 C12         -0.5623 -15.5167  12.7875 C.3            1 <1>                0.0000
     13 C13          0.2894 -16.7660  12.5532 C.3            1 <1>                0.0000
     14 C14          0.6529 -15.7918  13.6756 C.3            1 <1>                0.0000
     15 H15         -2.0654 -10.9964  12.5805 H              1 <1>                0.0000
     16 H16         -0.8472 -10.1189  11.6242 H              1 <1>                0.0000
     17 H17         -2.3611 -10.6575  10.8583 H              1 <1>                0.0000
     18 H18         -1.5496 -15.6560  13.2278 H              1 <1>                0.0000
     19 H19         -0.1376 -17.7271  12.8397 H              1 <1>                0.0000
     20 H20          0.9304 -16.7802  11.6717 H              1 <1>                0.0000
     21 H21          1.5330 -15.1649  13.5324 H              1 <1>                0.0000
     22 H22          0.4652 -16.1119  14.7004 H              1 <1>                0.0000
     23 H23          0.6048 -15.5009  10.4702 H              1 <1>                0.0000
@<TRIPOS>BOND
    1    1    2 1     
    2    1   15 1     
    3    1   16 1     
    4    1   17 1     
    5    2    3 1     
    6    2    8 2     
    7    3    4 2     
    8    4    5 1     
    9    4   12 1     
   10    5    6 am    
   11    5   23 1     
   12    6    7 2     
   13    6    8 1     
   14    8    9 1     
   15    9   10 ar    
   16    9   11 ar    
   17   12   13 1     
   18   12   14 1     
   19   12   18 1     
   20   13   14 1     
   21   13   19 1     
   22   13   20 1     
   23   14   21 1     
   24   14   22 1     
@<TRIPOS>SUBSTRUCTURE
      1 ****           1
@<TRIPOS>SET
DONOR_HYDROGENS      STATIC     ATOMS    <user>   **** ""
1 23
ATOM$RED        STATIC     ATOMS    COLORGROUP SYSTEM
1 23
@<TRIPOS>COMMENT
> <Gold.Version>
2022.2.0

> <Gold.Id.Protein>
3pbl|protein|mol2

> <Gold.Protein.RotatedTorsions>
[ 1303 1298 1297 1294 ] final -121.24 input  179.99 | X-H torsion
[ 2461 2456 2455 2452 ] final -135.17 input   30.03 | X-H torsion
[ 2515 2510 2509 2506 ] final  140.28 input  -89.99 | X-H torsion
[ 3721 3712 3711 3710 ] final  -49.55 input -179.91 | X-H torsion
[ 3841 3832 3831 3830 ] final   87.66 input -179.91 | X-H torsion
[ 3767 3762 3761 3758 ] final  -32.08 input  -89.99 | X-H torsion
[ 2472 2467 2466 2463 ] final  -33.57 input  -89.97 | X-H torsion

> <Gold.Protein.ActiveResidues>
 VAL82   VAL86   LEU89   PHE106  VAL107  ASP110  VAL111  MET112  CYS114  THR115 
 CYS181  SER182  ILE183  PHE188  VAL189  ILE190  SER192  SER193  SER196  TRP342 
 PHE345  PHE346  HIS349  VAL350  TYR365  THR369  GLY372  TYR373 

> <Gold.Protein.RotatedAtoms>
    4.2500   -8.4764    4.1059 H   0  0  0  0  0  0  0  0  0  0  0  0  # atno 1303 bound_to 1298
    0.7622   -9.2536    8.1974 H   0  0  0  0  0  0  0  0  0  0  0  0  # atno 2461 bound_to 2456
   -3.6345   -5.0361    8.5673 H   0  0  0  0  0  0  0  0  0  0  0  0  # atno 2472 bound_to 2467
    2.1005   -8.4916    6.0928 H   0  0  0  0  0  0  0  0  0  0  0  0  # atno 2515 bound_to 2510
   -2.7252  -17.4663   14.7217 H   0  0  0  0  0  0  0  0  0  0  0  0  # atno 3721 bound_to 3712
   -5.5034  -22.3284   10.4444 H   0  0  0  0  0  0  0  0  0  0  0  0  # atno 3767 bound_to 3762
    2.8170  -20.9300    9.2865 H   0  0  0  0  0  0  0  0  0  0  0  0  # atno 3841 bound_to 3832
    4.7321   -9.7887    4.9495 LP  0  0  0  0  0  0  0  0  0  0  0  0  # atno 4297 bound_to 1298
    3.3800   -9.8565    4.0363 LP  0  0  0  0  0  0  0  0  0  0  0  0  # atno 4298 bound_to 1298
    2.1607   -8.4651    7.8979 LP  0  0  0  0  0  0  0  0  0  0  0  0  # atno 4299 bound_to 2456
    0.8147   -8.0897    7.0530 LP  0  0  0  0  0  0  0  0  0  0  0  0  # atno 4300 bound_to 2456
    2.3993   -7.4648    4.8592 LP  0  0  0  0  0  0  0  0  0  0  0  0  # atno 4301 bound_to 2510
    2.7971   -9.0427    4.7228 LP  0  0  0  0  0  0  0  0  0  0  0  0  # atno 4302 bound_to 2510
   -3.5638  -16.5930   13.6672 LP  0  0  0  0  0  0  0  0  0  0  0  0  # atno 4306 bound_to 3712
   -2.8175  -17.9681   13.1994 LP  0  0  0  0  0  0  0  0  0  0  0  0  # atno 4307 bound_to 3712
    1.3932  -20.1946    9.1979 LP  0  0  0  0  0  0  0  0  0  0  0  0  # atno 4314 bound_to 3832
    2.5821  -19.8334    8.1384 LP  0  0  0  0  0  0  0  0  0  0  0  0  # atno 4315 bound_to 3832
   -4.4082  -22.2140   11.6503 LP  0  0  0  0  0  0  0  0  0  0  0  0  # atno 4318 bound_to 3762
   -4.2160  -23.3326   10.4763 LP  0  0  0  0  0  0  0  0  0  0  0  0  # atno 4319 bound_to 3762
   -5.0303   -5.4545    9.3044 LP  0  0  0  0  0  0  0  0  0  0  0  0  # atno 4320 bound_to 2467
   -5.0519   -4.9030    7.7675 LP  0  0  0  0  0  0  0  0  0  0  0  0  # atno 4321 bound_to 2467

> <Gold.Score>
     Score     S(PLP)   S(hbond)     S(cho)   S(metal)  DE(clash)   DE(tors)     intcor
     37.92     -35.58       1.00       0.00       0.00       0.01       0.92       1.18

> <Gold.PLP.Fitness>
37.9174

> <Gold.PLP.PLP>
-35.5771

> <Gold.PLP.part.hbond>
-2.2394

> <Gold.PLP.part.metal>
0.0000

> <Gold.PLP.part.buried>
-5.1585

> <Gold.PLP.part.nonpolar>
-29.2408

> <Gold.PLP.part.repulsive>
0.1841

> <Gold.PLP.ligand.clash>
0.0063

> <Gold.PLP.ligand.torsion>
0.9166

> <Gold.PLP.Chemscore.Hbond>
1.0000

> <Gold.PLP.Chemscore.CHOScore>
0.0000

> <Gold.PLP.Chemscore.Metal>
0.0000

> <Gold.Chemscore.Hbonds>
donor molecule, donor type, donor heavy atom, donor atom, acceptor molecule, acceptor atom, score
      P1  H  2456  2461       L1    11  1.00

> <Gold.PLP.Chemscore.Internal.Correction>
1.1798

