#       Name:                EN300-35009_i001
#       Creating user name   fsindt
#       Creation time:       Wed Mar  1 02:13:44 2023


#       File generated by GOLD software.
#

@<TRIPOS>MOLECULE
EN300-35009_i001|acide_3|mol2|8936|dock7
    23    24     1
SMALL
USER_CHARGES


@<TRIPOS>ATOM
      1 C1          -1.6150 -12.3584  11.7567 C.3            1 <1>                0.0000
      2 C2          -0.5963 -13.3343  11.2268 C.2            1 <1>                0.0000
      3 N3          -0.2824 -14.4204  11.9242 N.2            1 <1>                0.0000
      4 C4           0.5950 -15.2933  11.5024 C.2            1 <1>                0.0000
      5 N5           1.2471 -15.1625  10.3349 N.am           1 <1>                0.0000
      6 C6           1.0088 -14.0958   9.5401 C.2            1 <1>                0.0000
      7 O7           1.5901 -13.9599   8.4784 O.2            1 <1>                0.0000
      8 C8           0.0215 -13.1084   9.9965 C.2            1 <1>                0.0000
      9 C9          -0.2951 -11.9229   9.1934 C.2            1 <1>                0.0000
     10 O10         -1.4475 -11.5143   9.1331 O.co2          1 <1>                0.0000
     11 O11          0.5930 -11.3418   8.5835 O.co2          1 <1>               -1.0000
     12 C12          0.8873 -16.4962  12.3619 C.3            1 <1>                0.0000
     13 C13          2.3157 -16.6604  12.8849 C.3            1 <1>                0.0000
     14 C14          1.1935 -16.2503  13.8407 C.3            1 <1>                0.0000
     15 H15         -1.9854 -12.7074  12.7206 H              1 <1>                0.0000
     16 H16         -1.1514 -11.3795  11.8784 H              1 <1>                0.0000
     17 H17         -2.4452 -12.2825  11.0544 H              1 <1>                0.0000
     18 H18          0.3380 -17.4020  12.1052 H              1 <1>                0.0000
     19 H19          2.7061 -17.6743  12.9726 H              1 <1>                0.0000
     20 H20          3.0441 -15.8985  12.6074 H              1 <1>                0.0000
     21 H21          1.1835 -15.2186  14.1919 H              1 <1>                0.0000
     22 H22          0.8456 -16.9944  14.5572 H              1 <1>                0.0000
     23 H23          1.8908 -15.8351  10.0622 H              1 <1>                0.0000
@<TRIPOS>BOND
    1    1    2 1     
    2    1   15 1     
    3    1   16 1     
    4    1   17 1     
    5    2    3 1     
    6    2    8 2     
    7    3    4 2     
    8    4    5 1     
    9    4   12 1     
   10    5    6 am    
   11    5   23 1     
   12    6    7 2     
   13    6    8 1     
   14    8    9 1     
   15    9   10 ar    
   16    9   11 ar    
   17   12   13 1     
   18   12   14 1     
   19   12   18 1     
   20   13   14 1     
   21   13   19 1     
   22   13   20 1     
   23   14   21 1     
   24   14   22 1     
@<TRIPOS>SUBSTRUCTURE
      1 ****           1
@<TRIPOS>SET
DONOR_HYDROGENS      STATIC     ATOMS    <user>   **** ""
1 23
ATOM$RED        STATIC     ATOMS    COLORGROUP SYSTEM
1 23
@<TRIPOS>COMMENT
> <Gold.Version>
2022.2.0

> <Gold.Id.Protein>
3pbl|protein|mol2

> <Gold.Protein.RotatedTorsions>
[ 1303 1298 1297 1294 ] final -117.31 input  179.99 | X-H torsion
[ 2461 2456 2455 2452 ] final -148.40 input   30.03 | X-H torsion
[ 2515 2510 2509 2506 ] final   -7.77 input  -89.99 | X-H torsion
[ 3721 3712 3711 3710 ] final   12.04 input -179.91 | X-H torsion
[ 3841 3832 3831 3830 ] final    6.85 input -179.91 | X-H torsion
[ 3767 3762 3761 3758 ] final   23.43 input  -89.99 | X-H torsion
[ 2472 2467 2466 2463 ] final   39.81 input  -89.97 | X-H torsion

> <Gold.Protein.ActiveResidues>
 VAL82   VAL86   LEU89   PHE106  VAL107  ASP110  VAL111  MET112  CYS114  THR115 
 CYS181  SER182  ILE183  PHE188  VAL189  ILE190  SER192  SER193  SER196  TRP342 
 PHE345  PHE346  HIS349  VAL350  TYR365  THR369  GLY372  TYR373 

> <Gold.Protein.RotatedAtoms>
    4.1962   -8.4812    4.0704 H   0  0  0  0  0  0  0  0  0  0  0  0  # atno 1303 bound_to 1298
    0.9529   -9.2860    8.2963 H   0  0  0  0  0  0  0  0  0  0  0  0  # atno 2461 bound_to 2456
   -4.3160   -4.7992    7.7020 H   0  0  0  0  0  0  0  0  0  0  0  0  # atno 2472 bound_to 2467
    2.5925   -7.7166    4.5305 H   0  0  0  0  0  0  0  0  0  0  0  0  # atno 2515 bound_to 2510
   -2.4710  -18.0113   14.0698 H   0  0  0  0  0  0  0  0  0  0  0  0  # atno 3721 bound_to 3712
   -5.0673  -22.9893   10.0645 H   0  0  0  0  0  0  0  0  0  0  0  0  # atno 3767 bound_to 3762
    1.8001  -20.5631    9.5876 H   0  0  0  0  0  0  0  0  0  0  0  0  # atno 3841 bound_to 3832
    4.7651   -9.7331    4.9509 LP  0  0  0  0  0  0  0  0  0  0  0  0  # atno 4297 bound_to 1298
    3.4009   -9.9073    4.0705 LP  0  0  0  0  0  0  0  0  0  0  0  0  # atno 4298 bound_to 1298
    2.1434   -8.3150    7.7419 LP  0  0  0  0  0  0  0  0  0  0  0  0  # atno 4299 bound_to 2456
    0.6414   -8.2074    7.1101 LP  0  0  0  0  0  0  0  0  0  0  0  0  # atno 4300 bound_to 2456
    2.6730   -9.2382    5.1170 LP  0  0  0  0  0  0  0  0  0  0  0  0  # atno 4301 bound_to 2510
    2.0312   -8.0447    6.0282 LP  0  0  0  0  0  0  0  0  0  0  0  0  # atno 4302 bound_to 2510
   -3.3665  -16.7916   14.6067 LP  0  0  0  0  0  0  0  0  0  0  0  0  # atno 4306 bound_to 3712
   -3.3084  -17.1404   13.0125 LP  0  0  0  0  0  0  0  0  0  0  0  0  # atno 4307 bound_to 3712
    2.0426  -19.6387    8.2981 LP  0  0  0  0  0  0  0  0  0  0  0  0  # atno 4314 bound_to 3832
    3.1073  -20.8131    8.6904 LP  0  0  0  0  0  0  0  0  0  0  0  0  # atno 4315 bound_to 3832
   -5.1515  -21.9147   11.2912 LP  0  0  0  0  0  0  0  0  0  0  0  0  # atno 4318 bound_to 3762
   -3.9086  -22.9711   11.2151 LP  0  0  0  0  0  0  0  0  0  0  0  0  # atno 4319 bound_to 3762
   -3.9192   -5.2967    9.2058 LP  0  0  0  0  0  0  0  0  0  0  0  0  # atno 4320 bound_to 2467
   -5.4817   -5.2976    8.7312 LP  0  0  0  0  0  0  0  0  0  0  0  0  # atno 4321 bound_to 2467

> <Gold.Score>
     Score     S(PLP)   S(hbond)     S(cho)   S(metal)  DE(clash)   DE(tors)     intcor
     39.31     -33.53       1.99       0.00       0.00       0.00       0.69       1.18

> <Gold.PLP.Fitness>
39.3117

> <Gold.PLP.PLP>
-33.5308

> <Gold.PLP.part.hbond>
-2.0000

> <Gold.PLP.part.metal>
0.0000

> <Gold.PLP.part.buried>
-4.2685

> <Gold.PLP.part.nonpolar>
-28.3550

> <Gold.PLP.part.repulsive>
0.1884

> <Gold.PLP.ligand.clash>
0.0000

> <Gold.PLP.ligand.torsion>
0.6863

> <Gold.PLP.Chemscore.Hbond>
1.9913

> <Gold.PLP.Chemscore.CHOScore>
0.0000

> <Gold.PLP.Chemscore.Metal>
0.0000

> <Gold.Chemscore.Hbonds>
donor molecule, donor type, donor heavy atom, donor atom, acceptor molecule, acceptor atom, score
      L1  H     5    23       P1  1227  1.00
      P1  H  2456  2461       L1    11  0.99

> <Gold.PLP.Chemscore.Internal.Correction>
1.1798

