#       Name:                EN300-35009_i001
#       Creating user name   fsindt
#       Creation time:       Wed Mar  1 02:13:50 2023


#       File generated by GOLD software.
#

@<TRIPOS>MOLECULE
EN300-35009_i001|acide_3|mol2|8936|dock18
    23    24     1
SMALL
USER_CHARGES


@<TRIPOS>ATOM
      1 C1          -0.3748 -18.9415  11.1890 C.3            1 <1>                0.0000
      2 C2          -0.1713 -17.5407  11.7062 C.2            1 <1>                0.0000
      3 N3          -0.0840 -16.5200  10.8604 N.2            1 <1>                0.0000
      4 C4           0.0919 -15.2893  11.2652 C.2            1 <1>                0.0000
      5 N5           0.1984 -14.9591  12.5633 N.am           1 <1>                0.0000
      6 C6           0.1245 -15.9156  13.5152 C.2            1 <1>                0.0000
      7 O7           0.2190 -15.6358  14.6968 O.2            1 <1>                0.0000
      8 C8          -0.0787 -17.3032  13.0778 C.2            1 <1>                0.0000
      9 C9          -0.1699 -18.4001  14.0469 C.2            1 <1>                0.0000
     10 O10         -0.7484 -18.2292  15.1120 O.co2          1 <1>                0.0000
     11 O11          0.3324 -19.4865  13.7906 O.co2          1 <1>               -1.0000
     12 C12          0.1792 -14.1952  10.2324 C.3            1 <1>                0.0000
     13 C13          1.3740 -14.2194   9.2770 C.3            1 <1>                0.0000
     14 C14         -0.0205 -14.5890   8.7674 C.3            1 <1>                0.0000
     15 H15         -0.4268 -18.9229  10.1005 H              1 <1>                0.0000
     16 H16          0.4594 -19.5692  11.5024 H              1 <1>                0.0000
     17 H17         -1.3043 -19.3455  11.5903 H              1 <1>                0.0000
     18 H18         -0.1938 -13.2207  10.5472 H              1 <1>                0.0000
     19 H19          1.7868 -13.2606   8.9631 H              1 <1>                0.0000
     20 H20          2.0970 -15.0265   9.3954 H              1 <1>                0.0000
     21 H21         -0.2151 -15.6393   8.5507 H              1 <1>                0.0000
     22 H22         -0.5252 -13.8735   8.1183 H              1 <1>                0.0000
     23 H23          0.3290 -14.0322  12.8177 H              1 <1>                0.0000
@<TRIPOS>BOND
    1    1    2 1     
    2    1   15 1     
    3    1   16 1     
    4    1   17 1     
    5    2    3 1     
    6    2    8 2     
    7    3    4 2     
    8    4    5 1     
    9    4   12 1     
   10    5    6 am    
   11    5   23 1     
   12    6    7 2     
   13    6    8 1     
   14    8    9 1     
   15    9   10 ar    
   16    9   11 ar    
   17   12   13 1     
   18   12   14 1     
   19   12   18 1     
   20   13   14 1     
   21   13   19 1     
   22   13   20 1     
   23   14   21 1     
   24   14   22 1     
@<TRIPOS>SUBSTRUCTURE
      1 ****           1
@<TRIPOS>SET
DONOR_HYDROGENS      STATIC     ATOMS    <user>   **** ""
1 23
ATOM$RED        STATIC     ATOMS    COLORGROUP SYSTEM
1 23
@<TRIPOS>COMMENT
> <Gold.Version>
2022.2.0

> <Gold.Id.Protein>
3pbl|protein|mol2

> <Gold.Protein.RotatedTorsions>
[ 1303 1298 1297 1294 ] final -113.56 input  179.99 | X-H torsion
[ 2461 2456 2455 2452 ] final -148.53 input   30.03 | X-H torsion
[ 2515 2510 2509 2506 ] final -147.76 input  -89.99 | X-H torsion
[ 3721 3712 3711 3710 ] final  -19.06 input -179.91 | X-H torsion
[ 3841 3832 3831 3830 ] final   14.59 input -179.91 | X-H torsion
[ 3767 3762 3761 3758 ] final  137.61 input  -89.99 | X-H torsion
[ 2472 2467 2466 2463 ] final    3.00 input  -89.97 | X-H torsion

> <Gold.Protein.ActiveResidues>
 VAL82   VAL86   LEU89   PHE106  VAL107  ASP110  VAL111  MET112  CYS114  THR115 
 CYS181  SER182  ILE183  PHE188  VAL189  ILE190  SER192  SER193  SER196  TRP342 
 PHE345  PHE346  HIS349  VAL350  TYR365  THR369  GLY372  TYR373 

> <Gold.Protein.RotatedAtoms>
    4.1444   -8.4897    4.0377 H   0  0  0  0  0  0  0  0  0  0  0  0  # atno 1303 bound_to 1298
    0.9549   -9.2861    8.2972 H   0  0  0  0  0  0  0  0  0  0  0  0  # atno 2461 bound_to 2456
   -3.8265   -4.8652    8.0346 H   0  0  0  0  0  0  0  0  0  0  0  0  # atno 2472 bound_to 2467
    2.5478   -9.2480    5.4191 H   0  0  0  0  0  0  0  0  0  0  0  0  # atno 2515 bound_to 2510
   -2.5492  -17.8109   14.4815 H   0  0  0  0  0  0  0  0  0  0  0  0  # atno 3721 bound_to 3712
   -3.9073  -23.0318   11.1412 H   0  0  0  0  0  0  0  0  0  0  0  0  # atno 3767 bound_to 3762
    1.8812  -20.6443    9.6101 H   0  0  0  0  0  0  0  0  0  0  0  0  # atno 3841 bound_to 3832
    4.7938   -9.6784    4.9496 LP  0  0  0  0  0  0  0  0  0  0  0  0  # atno 4297 bound_to 1298
    3.4239   -9.9535    4.1044 LP  0  0  0  0  0  0  0  0  0  0  0  0  # atno 4298 bound_to 1298
    2.1430   -8.3136    7.7403 LP  0  0  0  0  0  0  0  0  0  0  0  0  # atno 4299 bound_to 2456
    0.6398   -8.2087    7.1108 LP  0  0  0  0  0  0  0  0  0  0  0  0  # atno 4300 bound_to 2456
    2.0395   -7.7616    5.8639 LP  0  0  0  0  0  0  0  0  0  0  0  0  # atno 4301 bound_to 2510
    2.7094   -7.9890    4.3922 LP  0  0  0  0  0  0  0  0  0  0  0  0  # atno 4302 bound_to 2510
   -3.5282  -16.5773   14.1691 LP  0  0  0  0  0  0  0  0  0  0  0  0  # atno 4306 bound_to 3712
   -3.0564  -17.5860   12.9748 LP  0  0  0  0  0  0  0  0  0  0  0  0  # atno 4307 bound_to 3712
    1.9311  -19.6346    8.3635 LP  0  0  0  0  0  0  0  0  0  0  0  0  # atno 4314 bound_to 3832
    3.1252  -20.7234    8.5990 LP  0  0  0  0  0  0  0  0  0  0  0  0  # atno 4315 bound_to 3832
   -5.1385  -22.9261   10.0736 LP  0  0  0  0  0  0  0  0  0  0  0  0  # atno 4318 bound_to 3762
   -5.0813  -21.9173   11.3565 LP  0  0  0  0  0  0  0  0  0  0  0  0  # atno 4319 bound_to 3762
   -4.4527   -5.4363    9.4303 LP  0  0  0  0  0  0  0  0  0  0  0  0  # atno 4320 bound_to 2467
   -5.4376   -5.0920    8.1741 LP  0  0  0  0  0  0  0  0  0  0  0  0  # atno 4321 bound_to 2467

> <Gold.Score>
     Score     S(PLP)   S(hbond)     S(cho)   S(metal)  DE(clash)   DE(tors)     intcor
     35.16     -29.17       2.00       0.00       0.00       0.00       0.60       1.18

> <Gold.PLP.Fitness>
35.1557

> <Gold.PLP.PLP>
-29.1696

> <Gold.PLP.part.hbond>
-2.0000

> <Gold.PLP.part.metal>
0.0000

> <Gold.PLP.part.buried>
-3.9921

> <Gold.PLP.part.nonpolar>
-23.5321

> <Gold.PLP.part.repulsive>
0.2820

> <Gold.PLP.ligand.clash>
0.0000

> <Gold.PLP.ligand.torsion>
0.5968

> <Gold.PLP.Chemscore.Hbond>
2.0000

> <Gold.PLP.Chemscore.CHOScore>
0.0000

> <Gold.PLP.Chemscore.Metal>
0.0000

> <Gold.Chemscore.Hbonds>
donor molecule, donor type, donor heavy atom, donor atom, acceptor molecule, acceptor atom, score
      P1  H  2305  2313       L1     7  1.00
      P1  H  3712  3721       L1    10  1.00

> <Gold.PLP.Chemscore.Internal.Correction>
1.1798

