#       Name:                EN300-35009_i001
#       Creating user name   fsindt
#       Creation time:       Wed Mar  1 02:13:49 2023


#       File generated by GOLD software.
#

@<TRIPOS>MOLECULE
EN300-35009_i001|acide_3|mol2|8936|dock17
    23    24     1
SMALL
USER_CHARGES


@<TRIPOS>ATOM
      1 C1           0.4156 -15.6043  13.3339 C.3            1 <1>                0.0000
      2 C2           0.2036 -15.9617  11.8853 C.2            1 <1>                0.0000
      3 N3           0.3477 -15.0401  10.9394 N.2            1 <1>                0.0000
      4 C4           0.1740 -15.3062   9.6712 C.2            1 <1>                0.0000
      5 N5          -0.1630 -16.5277   9.2242 N.am           1 <1>                0.0000
      6 C6          -0.3369 -17.5454  10.0962 C.2            1 <1>                0.0000
      7 O7          -0.6425 -18.6594   9.7102 O.2            1 <1>                0.0000
      8 C8          -0.1399 -17.2648  11.5247 C.2            1 <1>                0.0000
      9 C9          -0.3091 -18.3136  12.5357 C.2            1 <1>                0.0000
     10 O10          0.0687 -19.4545  12.3033 O.co2          1 <1>                0.0000
     11 O11         -0.8280 -18.0480  13.6121 O.co2          1 <1>               -1.0000
     12 C12          0.3593 -14.1963   8.6687 C.3            1 <1>                0.0000
     13 C13          1.4034 -14.4040   7.5698 C.3            1 <1>                0.0000
     14 C14         -0.0872 -14.4622   7.2296 C.3            1 <1>                0.0000
     15 H15          0.6803 -14.5499  13.4129 H              1 <1>                0.0000
     16 H16         -0.5016 -15.7916  13.8922 H              1 <1>                0.0000
     17 H17          1.2215 -16.2129  13.7441 H              1 <1>                0.0000
     18 H18          0.2315 -13.1859   9.0570 H              1 <1>                0.0000
     19 H19          1.9623 -13.5301   7.2349 H              1 <1>                0.0000
     20 H20          1.9563 -15.3433   7.5718 H              1 <1>                0.0000
     21 H21         -0.5150 -15.4399   7.0080 H              1 <1>                0.0000
     22 H22         -0.5090 -13.6267   6.6711 H              1 <1>                0.0000
     23 H23         -0.2821 -16.6793   8.2735 H              1 <1>                0.0000
@<TRIPOS>BOND
    1    1    2 1     
    2    1   15 1     
    3    1   16 1     
    4    1   17 1     
    5    2    3 1     
    6    2    8 2     
    7    3    4 2     
    8    4    5 1     
    9    4   12 1     
   10    5    6 am    
   11    5   23 1     
   12    6    7 2     
   13    6    8 1     
   14    8    9 1     
   15    9   10 ar    
   16    9   11 ar    
   17   12   13 1     
   18   12   14 1     
   19   12   18 1     
   20   13   14 1     
   21   13   19 1     
   22   13   20 1     
   23   14   21 1     
   24   14   22 1     
@<TRIPOS>SUBSTRUCTURE
      1 ****           1
@<TRIPOS>SET
DONOR_HYDROGENS      STATIC     ATOMS    <user>   **** ""
1 23
ATOM$RED        STATIC     ATOMS    COLORGROUP SYSTEM
1 23
@<TRIPOS>COMMENT
> <Gold.Version>
2022.2.0

> <Gold.Id.Protein>
3pbl|protein|mol2

> <Gold.Protein.RotatedTorsions>
[ 1303 1298 1297 1294 ] final -131.16 input  179.99 | X-H torsion
[ 2461 2456 2455 2452 ] final  163.32 input   30.03 | X-H torsion
[ 2515 2510 2509 2506 ] final  -96.99 input  -89.99 | X-H torsion
[ 3721 3712 3711 3710 ] final   32.91 input -179.91 | X-H torsion
[ 3841 3832 3831 3830 ] final  -32.42 input -179.91 | X-H torsion
[ 3767 3762 3761 3758 ] final  150.10 input  -89.99 | X-H torsion
[ 2472 2467 2466 2463 ] final -150.60 input  -89.97 | X-H torsion

> <Gold.Protein.ActiveResidues>
 VAL82   VAL86   LEU89   PHE106  VAL107  ASP110  VAL111  MET112  CYS114  THR115 
 CYS181  SER182  ILE183  PHE188  VAL189  ILE190  SER192  SER193  SER196  TRP342 
 PHE345  PHE346  HIS349  VAL350  TYR365  THR369  GLY372  TYR373 

> <Gold.Protein.RotatedAtoms>
    4.3824   -8.4831    4.2005 H   0  0  0  0  0  0  0  0  0  0  0  0  # atno 1303 bound_to 1298
    1.6984   -9.1038    8.3746 H   0  0  0  0  0  0  0  0  0  0  0  0  # atno 2461 bound_to 2456
   -4.9873   -5.4587    9.3270 H   0  0  0  0  0  0  0  0  0  0  0  0  # atno 2472 bound_to 2467
    2.8049   -9.0134    4.6898 H   0  0  0  0  0  0  0  0  0  0  0  0  # atno 2515 bound_to 2510
   -2.4884  -18.0293   13.7571 H   0  0  0  0  0  0  0  0  0  0  0  0  # atno 3721 bound_to 3712
   -3.9191  -22.8962   11.2946 H   0  0  0  0  0  0  0  0  0  0  0  0  # atno 3767 bound_to 3762
    1.5665  -20.1025    9.3199 H   0  0  0  0  0  0  0  0  0  0  0  0  # atno 3841 bound_to 3832
    4.6365   -9.9197    4.9339 LP  0  0  0  0  0  0  0  0  0  0  0  0  # atno 4297 bound_to 1298
    3.3432   -9.7189    3.9573 LP  0  0  0  0  0  0  0  0  0  0  0  0  # atno 4298 bound_to 1298
    1.7089   -7.9465    7.2221 LP  0  0  0  0  0  0  0  0  0  0  0  0  # atno 4299 bound_to 2456
    0.3306   -8.7580    7.5516 LP  0  0  0  0  0  0  0  0  0  0  0  0  # atno 4300 bound_to 2456
    2.1115   -8.5349    6.0884 LP  0  0  0  0  0  0  0  0  0  0  0  0  # atno 4301 bound_to 2510
    2.3802   -7.4506    4.8973 LP  0  0  0  0  0  0  0  0  0  0  0  0  # atno 4302 bound_to 2510
   -3.2090  -17.0374   14.7938 LP  0  0  0  0  0  0  0  0  0  0  0  0  # atno 4306 bound_to 3712
   -3.4458  -16.8737   13.1864 LP  0  0  0  0  0  0  0  0  0  0  0  0  # atno 4307 bound_to 3712
    2.6244  -19.8614    8.1372 LP  0  0  0  0  0  0  0  0  0  0  0  0  # atno 4314 bound_to 3832
    2.7954  -21.1225    9.1605 LP  0  0  0  0  0  0  0  0  0  0  0  0  # atno 4315 bound_to 3832
   -4.9818  -23.0581   10.0653 LP  0  0  0  0  0  0  0  0  0  0  0  0  # atno 4318 bound_to 3762
   -5.2262  -21.9208   11.2113 LP  0  0  0  0  0  0  0  0  0  0  0  0  # atno 4319 bound_to 3762
   -5.0931   -4.9158    7.7906 LP  0  0  0  0  0  0  0  0  0  0  0  0  # atno 4320 bound_to 2467
   -3.6366   -5.0191    8.5217 LP  0  0  0  0  0  0  0  0  0  0  0  0  # atno 4321 bound_to 2467

> <Gold.Score>
     Score     S(PLP)   S(hbond)     S(cho)   S(metal)  DE(clash)   DE(tors)     intcor
     35.41     -32.59       1.00       0.00       0.00       0.00       0.68       1.18

> <Gold.PLP.Fitness>
35.4133

> <Gold.PLP.PLP>
-32.5854

> <Gold.PLP.part.hbond>
-1.9396

> <Gold.PLP.part.metal>
0.0000

> <Gold.PLP.part.buried>
-3.4534

> <Gold.PLP.part.nonpolar>
-28.9173

> <Gold.PLP.part.repulsive>
0.2284

> <Gold.PLP.ligand.clash>
0.0000

> <Gold.PLP.ligand.torsion>
0.6759

> <Gold.PLP.Chemscore.Hbond>
1.0000

> <Gold.PLP.Chemscore.CHOScore>
0.0000

> <Gold.PLP.Chemscore.Metal>
0.0000

> <Gold.Chemscore.Hbonds>
donor molecule, donor type, donor heavy atom, donor atom, acceptor molecule, acceptor atom, score
      P1  H  3712  3721       L1    11  1.00

> <Gold.PLP.Chemscore.Internal.Correction>
1.1798

