#       Name:                EN300-35009_i001
#       Creating user name   fsindt
#       Creation time:       Wed Mar  1 02:13:42 2023


#       File generated by GOLD software.
#

@<TRIPOS>MOLECULE
EN300-35009_i001|acide_3|mol2|8936|dock3
    23    24     1
SMALL
USER_CHARGES


@<TRIPOS>ATOM
      1 C1           1.0233 -13.9028   7.8693 C.3            1 <1>                0.0000
      2 C2           0.4746 -13.8913   9.2728 C.2            1 <1>                0.0000
      3 N3           0.6542 -14.9376  10.0714 N.2            1 <1>                0.0000
      4 C4           0.1960 -14.9702  11.2954 C.2            1 <1>                0.0000
      5 N5          -0.4908 -13.9528  11.8419 N.am           1 <1>                0.0000
      6 C6          -0.7347 -12.8348  11.1228 C.2            1 <1>                0.0000
      7 O7          -1.3555 -11.9023  11.6008 O.2            1 <1>                0.0000
      8 C8          -0.2218 -12.7795   9.7473 C.2            1 <1>                0.0000
      9 C9          -0.4430 -11.6030   8.9003 C.2            1 <1>                0.0000
     10 O10         -1.5029 -10.9938   8.9636 O.co2          1 <1>                0.0000
     11 O11          0.4322 -11.2301   8.1300 O.co2          1 <1>               -1.0000
     12 C12          0.4484 -16.2006  12.1282 C.3            1 <1>                0.0000
     13 C13          1.4075 -16.0673  13.3128 C.3            1 <1>                0.0000
     14 C14         -0.0959 -16.2098  13.5581 C.3            1 <1>                0.0000
     15 H15          1.5354 -14.8476   7.6872 H              1 <1>                0.0000
     16 H16          0.2050 -13.7900   7.1583 H              1 <1>                0.0000
     17 H17          1.7267 -13.0790   7.7475 H              1 <1>                0.0000
     18 H18          0.4494 -17.1448  11.5837 H              1 <1>                0.0000
     19 H19          2.0392 -16.9239  13.5478 H              1 <1>                0.0000
     20 H20          1.8560 -15.0897  13.4899 H              1 <1>                0.0000
     21 H21         -0.6367 -15.3260  13.8965 H              1 <1>                0.0000
     22 H22         -0.4534 -17.1602  13.9544 H              1 <1>                0.0000
     23 H23         -0.8127 -14.0211  12.7544 H              1 <1>                0.0000
@<TRIPOS>BOND
    1    1    2 1     
    2    1   15 1     
    3    1   16 1     
    4    1   17 1     
    5    2    3 1     
    6    2    8 2     
    7    3    4 2     
    8    4    5 1     
    9    4   12 1     
   10    5    6 am    
   11    5   23 1     
   12    6    7 2     
   13    6    8 1     
   14    8    9 1     
   15    9   10 ar    
   16    9   11 ar    
   17   12   13 1     
   18   12   14 1     
   19   12   18 1     
   20   13   14 1     
   21   13   19 1     
   22   13   20 1     
   23   14   21 1     
   24   14   22 1     
@<TRIPOS>SUBSTRUCTURE
      1 ****           1
@<TRIPOS>SET
DONOR_HYDROGENS      STATIC     ATOMS    <user>   **** ""
1 23
ATOM$RED        STATIC     ATOMS    COLORGROUP SYSTEM
1 23
@<TRIPOS>COMMENT
> <Gold.Version>
2022.2.0

> <Gold.Id.Protein>
3pbl|protein|mol2

> <Gold.Protein.RotatedTorsions>
[ 1303 1298 1297 1294 ] final   98.15 input  179.99 | X-H torsion
[ 2461 2456 2455 2452 ] final -124.18 input   30.03 | X-H torsion
[ 2515 2510 2509 2506 ] final -143.17 input  -89.99 | X-H torsion
[ 3721 3712 3711 3710 ] final   98.99 input -179.91 | X-H torsion
[ 3841 3832 3831 3830 ] final -153.35 input -179.91 | X-H torsion
[ 3767 3762 3761 3758 ] final -103.53 input  -89.99 | X-H torsion
[ 2472 2467 2466 2463 ] final -175.70 input  -89.97 | X-H torsion

> <Gold.Protein.ActiveResidues>
 VAL82   VAL86   LEU89   PHE106  VAL107  ASP110  VAL111  MET112  CYS114  THR115 
 CYS181  SER182  ILE183  PHE188  VAL189  ILE190  SER192  SER193  SER196  TRP342 
 PHE345  PHE346  HIS349  VAL350  TYR365  THR369  GLY372  TYR373 

> <Gold.Protein.RotatedAtoms>
    4.5159  -10.0422    4.8983 H   0  0  0  0  0  0  0  0  0  0  0  0  # atno 1303 bound_to 1298
    0.6228   -9.2003    8.0955 H   0  0  0  0  0  0  0  0  0  0  0  0  # atno 2461 bound_to 2456
   -5.3049   -5.4025    9.0742 H   0  0  0  0  0  0  0  0  0  0  0  0  # atno 2472 bound_to 2467
    2.5784   -9.2556    5.3505 H   0  0  0  0  0  0  0  0  0  0  0  0  # atno 2515 bound_to 2510
   -2.8506  -17.5056   13.0594 H   0  0  0  0  0  0  0  0  0  0  0  0  # atno 3721 bound_to 3712
   -5.0668  -21.9180   11.3683 H   0  0  0  0  0  0  0  0  0  0  0  0  # atno 3767 bound_to 3762
    2.6708  -19.7802    8.3475 H   0  0  0  0  0  0  0  0  0  0  0  0  # atno 3841 bound_to 3832
    3.3295   -9.5589    3.8857 LP  0  0  0  0  0  0  0  0  0  0  0  0  # atno 4297 bound_to 1298
    4.5167   -8.5200    4.3075 LP  0  0  0  0  0  0  0  0  0  0  0  0  # atno 4298 bound_to 1298
    2.1382   -8.5958    8.0206 LP  0  0  0  0  0  0  0  0  0  0  0  0  # atno 4299 bound_to 2456
    0.9766   -8.0123    7.0322 LP  0  0  0  0  0  0  0  0  0  0  0  0  # atno 4300 bound_to 2456
    2.0332   -7.8216    5.9093 LP  0  0  0  0  0  0  0  0  0  0  0  0  # atno 4301 bound_to 2510
    2.6850   -7.9215    4.4154 LP  0  0  0  0  0  0  0  0  0  0  0  0  # atno 4302 bound_to 2510
   -2.7119  -17.9350   14.6002 LP  0  0  0  0  0  0  0  0  0  0  0  0  # atno 4306 bound_to 3712
   -3.5247  -16.5808   14.1855 LP  0  0  0  0  0  0  0  0  0  0  0  0  # atno 4307 bound_to 3712
    2.7477  -21.1364    9.2025 LP  0  0  0  0  0  0  0  0  0  0  0  0  # atno 4314 bound_to 3832
    1.3964  -20.2198    9.2185 LP  0  0  0  0  0  0  0  0  0  0  0  0  # atno 4315 bound_to 3832
   -3.9087  -23.0437   11.1268 LP  0  0  0  0  0  0  0  0  0  0  0  0  # atno 4318 bound_to 3762
   -5.1520  -22.9131   10.0762 LP  0  0  0  0  0  0  0  0  0  0  0  0  # atno 4319 bound_to 3762
   -4.7131   -4.8286    7.6647 LP  0  0  0  0  0  0  0  0  0  0  0  0  # atno 4320 bound_to 2467
   -3.6991   -5.1624    8.9004 LP  0  0  0  0  0  0  0  0  0  0  0  0  # atno 4321 bound_to 2467

> <Gold.Score>
     Score     S(PLP)   S(hbond)     S(cho)   S(metal)  DE(clash)   DE(tors)     intcor
     37.75     -34.84       1.00       0.00       0.00       0.01       0.63       1.18

> <Gold.PLP.Fitness>
37.7527

> <Gold.PLP.PLP>
-34.8383

> <Gold.PLP.part.hbond>
-1.0000

> <Gold.PLP.part.metal>
0.0000

> <Gold.PLP.part.buried>
-5.2346

> <Gold.PLP.part.nonpolar>
-29.5464

> <Gold.PLP.part.repulsive>
0.2021

> <Gold.PLP.ligand.clash>
0.0124

> <Gold.PLP.ligand.torsion>
0.6265

> <Gold.PLP.Chemscore.Hbond>
1.0000

> <Gold.PLP.Chemscore.CHOScore>
0.0000

> <Gold.PLP.Chemscore.Metal>
0.0000

> <Gold.Chemscore.Hbonds>
donor molecule, donor type, donor heavy atom, donor atom, acceptor molecule, acceptor atom, score
      P1  H  2456  2461       L1    11  1.00

> <Gold.PLP.Chemscore.Internal.Correction>
1.1798

