#       Name:                EN300-35009_i001
#       Creating user name   fsindt
#       Creation time:       Wed Mar  1 02:13:46 2023


#       File generated by GOLD software.
#

@<TRIPOS>MOLECULE
EN300-35009_i001|acide_3|mol2|8936|dock11
    23    24     1
SMALL
USER_CHARGES


@<TRIPOS>ATOM
      1 C1           0.7899 -20.4263  15.9174 C.3            1 <1>                0.0000
      2 C2           1.0869 -19.7509  14.6034 C.2            1 <1>                0.0000
      3 N3           1.3533 -18.4500  14.5634 N.2            1 <1>                0.0000
      4 C4           1.6166 -17.8239  13.4463 C.2            1 <1>                0.0000
      5 N5           1.6387 -18.4427  12.2538 N.am           1 <1>                0.0000
      6 C6           1.3826 -19.7671  12.1716 C.2            1 <1>                0.0000
      7 O7           1.3979 -20.3456  11.0999 O.2            1 <1>                0.0000
      8 C8           1.0904 -20.4871  13.4184 C.2            1 <1>                0.0000
      9 C9           0.8021 -21.9250  13.4161 C.2            1 <1>                0.0000
     10 O10          1.2813 -22.6466  14.2810 O.co2          1 <1>                0.0000
     11 O11          0.0822 -22.4035  12.5494 O.co2          1 <1>               -1.0000
     12 C12          1.9072 -16.3460  13.4983 C.3            1 <1>                0.0000
     13 C13          2.0160 -15.6003  12.1668 C.3            1 <1>                0.0000
     14 C14          0.7937 -15.3913  13.0629 C.3            1 <1>                0.0000
     15 H15          0.8387 -19.6928  16.7221 H              1 <1>                0.0000
     16 H16         -0.2081 -20.8633  15.8839 H              1 <1>                0.0000
     17 H17          1.5245 -21.2114  16.0965 H              1 <1>                0.0000
     18 H18          2.5584 -16.0233  14.3105 H              1 <1>                0.0000
     19 H19          2.7385 -14.7866  12.1032 H              1 <1>                0.0000
     20 H20          1.8774 -16.1784  11.2532 H              1 <1>                0.0000
     21 H21         -0.1491 -15.8320  12.7391 H              1 <1>                0.0000
     22 H22          0.7120 -14.4402  13.5891 H              1 <1>                0.0000
     23 H23          1.8385 -17.9376  11.4501 H              1 <1>                0.0000
@<TRIPOS>BOND
    1    1    2 1     
    2    1   15 1     
    3    1   16 1     
    4    1   17 1     
    5    2    3 1     
    6    2    8 2     
    7    3    4 2     
    8    4    5 1     
    9    4   12 1     
   10    5    6 am    
   11    5   23 1     
   12    6    7 2     
   13    6    8 1     
   14    8    9 1     
   15    9   10 ar    
   16    9   11 ar    
   17   12   13 1     
   18   12   14 1     
   19   12   18 1     
   20   13   14 1     
   21   13   19 1     
   22   13   20 1     
   23   14   21 1     
   24   14   22 1     
@<TRIPOS>SUBSTRUCTURE
      1 ****           1
@<TRIPOS>SET
DONOR_HYDROGENS      STATIC     ATOMS    <user>   **** ""
1 23
ATOM$RED        STATIC     ATOMS    COLORGROUP SYSTEM
1 23
@<TRIPOS>COMMENT
> <Gold.Version>
2022.2.0

> <Gold.Id.Protein>
3pbl|protein|mol2

> <Gold.Protein.RotatedTorsions>
[ 1303 1298 1297 1294 ] final   34.11 input  179.99 | X-H torsion
[ 2461 2456 2455 2452 ] final  163.89 input   30.03 | X-H torsion
[ 2515 2510 2509 2506 ] final   23.05 input  -89.99 | X-H torsion
[ 3721 3712 3711 3710 ] final   -2.87 input -179.91 | X-H torsion
[ 3841 3832 3831 3830 ] final   16.47 input -179.91 | X-H torsion
[ 3767 3762 3761 3758 ] final   11.42 input  -89.99 | X-H torsion
[ 2472 2467 2466 2463 ] final -117.15 input  -89.97 | X-H torsion

> <Gold.Protein.ActiveResidues>
 VAL82   VAL86   LEU89   PHE106  VAL107  ASP110  VAL111  MET112  CYS114  THR115 
 CYS181  SER182  ILE183  PHE188  VAL189  ILE190  SER192  SER193  SER196  TRP342 
 PHE345  PHE346  HIS349  VAL350  TYR365  THR369  GLY372  TYR373 

> <Gold.Protein.RotatedAtoms>
    3.6775  -10.2055    4.3790 H   0  0  0  0  0  0  0  0  0  0  0  0  # atno 1303 bound_to 1298
    1.6904   -9.1084    8.3764 H   0  0  0  0  0  0  0  0  0  0  0  0  # atno 2461 bound_to 2456
   -4.4550   -5.4374    9.4303 H   0  0  0  0  0  0  0  0  0  0  0  0  # atno 2472 bound_to 2467
    2.3801   -7.4507    4.8980 H   0  0  0  0  0  0  0  0  0  0  0  0  # atno 2515 bound_to 2510
   -2.4935  -17.9392   14.2814 H   0  0  0  0  0  0  0  0  0  0  0  0  # atno 3721 bound_to 3712
   -5.2088  -22.8544   10.0909 H   0  0  0  0  0  0  0  0  0  0  0  0  # atno 3767 bound_to 3762
    1.9022  -20.6630    9.6139 H   0  0  0  0  0  0  0  0  0  0  0  0  # atno 3841 bound_to 3832
    3.7747   -8.6645    3.8480 LP  0  0  0  0  0  0  0  0  0  0  0  0  # atno 4297 bound_to 1298
    4.9101   -9.2510    4.8646 LP  0  0  0  0  0  0  0  0  0  0  0  0  # atno 4298 bound_to 1298
    1.7168   -7.9486    7.2269 LP  0  0  0  0  0  0  0  0  0  0  0  0  # atno 4299 bound_to 2456
    0.3308   -8.7513    7.5450 LP  0  0  0  0  0  0  0  0  0  0  0  0  # atno 4300 bound_to 2456
    2.8050   -9.0133    4.6891 LP  0  0  0  0  0  0  0  0  0  0  0  0  # atno 4301 bound_to 2510
    2.1117   -8.5356    6.0883 LP  0  0  0  0  0  0  0  0  0  0  0  0  # atno 4302 bound_to 2510
   -3.4576  -16.6623   14.4152 LP  0  0  0  0  0  0  0  0  0  0  0  0  # atno 4306 bound_to 3712
   -3.1913  -17.3529   12.9596 LP  0  0  0  0  0  0  0  0  0  0  0  0  # atno 4307 bound_to 3712
    1.9049  -19.6357    8.3807 LP  0  0  0  0  0  0  0  0  0  0  0  0  # atno 4314 bound_to 3832
    3.1271  -20.7006    8.5774 LP  0  0  0  0  0  0  0  0  0  0  0  0  # atno 4315 bound_to 3832
   -5.0027  -21.9280   11.4199 LP  0  0  0  0  0  0  0  0  0  0  0  0  # atno 4318 bound_to 3762
   -3.9161  -23.0927   11.0600 LP  0  0  0  0  0  0  0  0  0  0  0  0  # atno 4319 bound_to 3762
   -5.4367   -5.0912    8.1722 LP  0  0  0  0  0  0  0  0  0  0  0  0  # atno 4320 bound_to 2467
   -3.8252   -4.8650    8.0367 LP  0  0  0  0  0  0  0  0  0  0  0  0  # atno 4321 bound_to 2467

> <Gold.Score>
     Score     S(PLP)   S(hbond)     S(cho)   S(metal)  DE(clash)   DE(tors)     intcor
     35.42     -30.26       1.98       0.00       0.00       0.00       0.97       1.18

> <Gold.PLP.Fitness>
35.4221

> <Gold.PLP.PLP>
-30.2574

> <Gold.PLP.part.hbond>
-1.9066

> <Gold.PLP.part.metal>
0.0000

> <Gold.PLP.part.buried>
-4.9413

> <Gold.PLP.part.nonpolar>
-24.5070

> <Gold.PLP.part.repulsive>
0.2167

> <Gold.PLP.ligand.clash>
0.0000

> <Gold.PLP.ligand.torsion>
0.9701

> <Gold.PLP.Chemscore.Hbond>
1.9750

> <Gold.PLP.Chemscore.CHOScore>
0.0000

> <Gold.PLP.Chemscore.Metal>
0.0000

> <Gold.Chemscore.Hbonds>
donor molecule, donor type, donor heavy atom, donor atom, acceptor molecule, acceptor atom, score
      L1  H     5    23       P1  1227  0.98
      P1  H  3832  3841       L1     7  1.00

> <Gold.PLP.Chemscore.Internal.Correction>
1.1798

