#       Name:                EN300-35009_i001
#       Creating user name   fsindt
#       Creation time:       Wed Mar  1 02:13:48 2023


#       File generated by GOLD software.
#

@<TRIPOS>MOLECULE
EN300-35009_i001|acide_3|mol2|8936|dock15
    23    24     1
SMALL
USER_CHARGES


@<TRIPOS>ATOM
      1 C1          -1.2726 -11.6620  11.9200 C.3            1 <1>                0.0000
      2 C2          -0.7523 -12.8183  11.1055 C.2            1 <1>                0.0000
      3 N3          -0.4209 -13.9602  11.6979 N.2            1 <1>                0.0000
      4 C4           0.0339 -14.9883  11.0304 C.2            1 <1>                0.0000
      5 N5           0.2024 -14.9728   9.6974 N.am           1 <1>                0.0000
      6 C6          -0.1019 -13.8637   8.9876 C.2            1 <1>                0.0000
      7 O7           0.0441 -13.8305   7.7789 O.2            1 <1>                0.0000
      8 C8          -0.6197 -12.7013   9.7216 C.2            1 <1>                0.0000
      9 C9          -0.9738 -11.4595   9.0265 C.2            1 <1>                0.0000
     10 O10         -1.9542 -10.8179   9.3809 O.co2          1 <1>                0.0000
     11 O11         -0.2888 -11.0645   8.0920 O.co2          1 <1>               -1.0000
     12 C12          0.3841 -16.2432  11.7878 C.3            1 <1>                0.0000
     13 C13          1.5469 -16.1685  12.7794 C.3            1 <1>                0.0000
     14 C14          0.1086 -16.2602  13.2928 C.3            1 <1>                0.0000
     15 H15         -1.3085 -11.9457  12.9718 H              1 <1>                0.0000
     16 H16         -0.6111 -10.8044  11.7972 H              1 <1>                0.0000
     17 H17         -2.2745 -11.3998  11.5800 H              1 <1>                0.0000
     18 H18          0.2486 -17.1760  11.2405 H              1 <1>                0.0000
     19 H19          2.1762 -17.0523  12.8846 H              1 <1>                0.0000
     20 H20          2.0587 -15.2118  12.8840 H              1 <1>                0.0000
     21 H21         -0.3261 -15.3638  13.7349 H              1 <1>                0.0000
     22 H22         -0.2086 -17.2043  13.7357 H              1 <1>                0.0000
     23 H23          0.5436 -15.7593   9.2436 H              1 <1>                0.0000
@<TRIPOS>BOND
    1    1    2 1     
    2    1   15 1     
    3    1   16 1     
    4    1   17 1     
    5    2    3 1     
    6    2    8 2     
    7    3    4 2     
    8    4    5 1     
    9    4   12 1     
   10    5    6 am    
   11    5   23 1     
   12    6    7 2     
   13    6    8 1     
   14    8    9 1     
   15    9   10 ar    
   16    9   11 ar    
   17   12   13 1     
   18   12   14 1     
   19   12   18 1     
   20   13   14 1     
   21   13   19 1     
   22   13   20 1     
   23   14   21 1     
   24   14   22 1     
@<TRIPOS>SUBSTRUCTURE
      1 ****           1
@<TRIPOS>SET
DONOR_HYDROGENS      STATIC     ATOMS    <user>   **** ""
1 23
ATOM$RED        STATIC     ATOMS    COLORGROUP SYSTEM
1 23
@<TRIPOS>COMMENT
> <Gold.Version>
2022.2.0

> <Gold.Id.Protein>
3pbl|protein|mol2

> <Gold.Protein.RotatedTorsions>
[ 1303 1298 1297 1294 ] final  -79.17 input  179.99 | X-H torsion
[ 2461 2456 2455 2452 ] final -124.72 input   30.03 | X-H torsion
[ 2515 2510 2509 2506 ] final   94.20 input  -89.99 | X-H torsion
[ 3721 3712 3711 3710 ] final -153.26 input -179.91 | X-H torsion
[ 3841 3832 3831 3830 ] final  149.20 input -179.91 | X-H torsion
[ 3767 3762 3761 3758 ] final  129.35 input  -89.99 | X-H torsion
[ 2472 2467 2466 2463 ] final   92.57 input  -89.97 | X-H torsion

> <Gold.Protein.ActiveResidues>
 VAL82   VAL86   LEU89   PHE106  VAL107  ASP110  VAL111  MET112  CYS114  THR115 
 CYS181  SER182  ILE183  PHE188  VAL189  ILE190  SER192  SER193  SER196  TRP342 
 PHE345  PHE346  HIS349  VAL350  TYR365  THR369  GLY372  TYR373 

> <Gold.Protein.RotatedAtoms>
    3.6936   -8.7339    3.8192 H   0  0  0  0  0  0  0  0  0  0  0  0  # atno 1303 bound_to 1298
    0.6292   -9.2035    8.1009 H   0  0  0  0  0  0  0  0  0  0  0  0  # atno 2461 bound_to 2456
   -5.1354   -4.9309    7.8172 H   0  0  0  0  0  0  0  0  0  0  0  0  # atno 2472 bound_to 2467
    2.0368   -7.7871    5.8837 H   0  0  0  0  0  0  0  0  0  0  0  0  # atno 2515 bound_to 2510
   -3.3314  -16.5298   13.9396 H   0  0  0  0  0  0  0  0  0  0  0  0  # atno 3721 bound_to 3712
   -3.9203  -23.1112   11.0319 H   0  0  0  0  0  0  0  0  0  0  0  0  # atno 3767 bound_to 3762
    3.1252  -20.4153    8.6349 H   0  0  0  0  0  0  0  0  0  0  0  0  # atno 3841 bound_to 3832
    4.9113   -9.1478    4.8253 LP  0  0  0  0  0  0  0  0  0  0  0  0  # atno 4297 bound_to 1298
    3.7574  -10.2398    4.4473 LP  0  0  0  0  0  0  0  0  0  0  0  0  # atno 4298 bound_to 1298
    2.1401   -8.5893    8.0147 LP  0  0  0  0  0  0  0  0  0  0  0  0  # atno 4299 bound_to 2456
    0.9683   -8.0156    7.0326 LP  0  0  0  0  0  0  0  0  0  0  0  0  # atno 4300 bound_to 2456
    2.6992   -7.9599    4.4014 LP  0  0  0  0  0  0  0  0  0  0  0  0  # atno 4301 bound_to 2510
    2.5609   -9.2524    5.3899 LP  0  0  0  0  0  0  0  0  0  0  0  0  # atno 4302 bound_to 2510
   -2.9164  -17.8153   13.0718 LP  0  0  0  0  0  0  0  0  0  0  0  0  # atno 4306 bound_to 3712
   -2.7651  -17.8270   14.6977 LP  0  0  0  0  0  0  0  0  0  0  0  0  # atno 4307 bound_to 3712
    1.9159  -20.9459    9.5470 LP  0  0  0  0  0  0  0  0  0  0  0  0  # atno 4314 bound_to 3832
    1.7034  -19.6765    8.5420 LP  0  0  0  0  0  0  0  0  0  0  0  0  # atno 4315 bound_to 3832
   -5.2313  -22.8305   10.0995 LP  0  0  0  0  0  0  0  0  0  0  0  0  # atno 4318 bound_to 3762
   -4.9754  -21.9335   11.4398 LP  0  0  0  0  0  0  0  0  0  0  0  0  # atno 4319 bound_to 3762
   -3.6414   -5.0019    8.4725 LP  0  0  0  0  0  0  0  0  0  0  0  0  # atno 4320 bound_to 2467
   -4.9403   -5.4608    9.3494 LP  0  0  0  0  0  0  0  0  0  0  0  0  # atno 4321 bound_to 2467

> <Gold.Score>
     Score     S(PLP)   S(hbond)     S(cho)   S(metal)  DE(clash)   DE(tors)     intcor
     35.50     -32.56       1.00       0.00       0.00       0.00       0.62       1.18

> <Gold.PLP.Fitness>
35.4975

> <Gold.PLP.PLP>
-32.5567

> <Gold.PLP.part.hbond>
-1.0000

> <Gold.PLP.part.metal>
0.0000

> <Gold.PLP.part.buried>
-4.8915

> <Gold.PLP.part.nonpolar>
-27.6927

> <Gold.PLP.part.repulsive>
0.0828

> <Gold.PLP.ligand.clash>
0.0000

> <Gold.PLP.ligand.torsion>
0.6195

> <Gold.PLP.Chemscore.Hbond>
1.0000

> <Gold.PLP.Chemscore.CHOScore>
0.0000

> <Gold.PLP.Chemscore.Metal>
0.0000

> <Gold.Chemscore.Hbonds>
donor molecule, donor type, donor heavy atom, donor atom, acceptor molecule, acceptor atom, score
      P1  H  2456  2461       L1    11  1.00

> <Gold.PLP.Chemscore.Internal.Correction>
1.1798

