#       Name:                EN300-35009_i001
#       Creating user name   fsindt
#       Creation time:       Wed Mar  1 02:13:45 2023


#       File generated by GOLD software.
#

@<TRIPOS>MOLECULE
EN300-35009_i001|acide_3|mol2|8936|dock8
    23    24     1
SMALL
USER_CHARGES


@<TRIPOS>ATOM
      1 C1          -1.2650 -11.8339  11.3804 C.3            1 <1>                0.0000
      2 C2          -0.4465 -13.0703  11.1114 C.2            1 <1>                0.0000
      3 N3          -0.5667 -14.1372  11.8938 N.2            1 <1>                0.0000
      4 C4           0.1230 -15.2303  11.6969 C.2            1 <1>                0.0000
      5 N5           1.0053 -15.3622  10.6922 N.am           1 <1>                0.0000
      6 C6           1.2114 -14.3408   9.8314 C.2            1 <1>                0.0000
      7 O7           2.0070 -14.4414   8.9147 O.2            1 <1>                0.0000
      8 C8           0.4402 -13.1071  10.0350 C.2            1 <1>                0.0000
      9 C9           0.6044 -11.9526   9.1458 C.2            1 <1>                0.0000
     10 O10          0.5735 -10.8179   9.6040 O.co2          1 <1>                0.0000
     11 O11          0.7725 -12.1236   7.9454 O.co2          1 <1>               -1.0000
     12 C12         -0.0799 -16.3910  12.6365 C.3            1 <1>                0.0000
     13 C13         -0.5099 -17.7267  12.0267 C.3            1 <1>                0.0000
     14 C14          0.9157 -17.5498  12.5533 C.3            1 <1>                0.0000
     15 H15         -1.8963 -11.9990  12.2535 H              1 <1>                0.0000
     16 H16         -0.5995 -10.9912  11.5673 H              1 <1>                0.0000
     17 H17         -1.8913 -11.6173  10.5150 H              1 <1>                0.0000
     18 H18         -0.4751 -16.1362  13.6199 H              1 <1>                0.0000
     19 H19         -1.1877 -18.3508  12.6091 H              1 <1>                0.0000
     20 H20         -0.6460 -17.7661  10.9460 H              1 <1>                0.0000
     21 H21          1.7175 -17.4726  11.8190 H              1 <1>                0.0000
     22 H22          1.1759 -18.0574  13.4821 H              1 <1>                0.0000
     23 H23          1.4958 -16.1921  10.5846 H              1 <1>                0.0000
@<TRIPOS>BOND
    1    1    2 1     
    2    1   15 1     
    3    1   16 1     
    4    1   17 1     
    5    2    3 1     
    6    2    8 2     
    7    3    4 2     
    8    4    5 1     
    9    4   12 1     
   10    5    6 am    
   11    5   23 1     
   12    6    7 2     
   13    6    8 1     
   14    8    9 1     
   15    9   10 ar    
   16    9   11 ar    
   17   12   13 1     
   18   12   14 1     
   19   12   18 1     
   20   13   14 1     
   21   13   19 1     
   22   13   20 1     
   23   14   21 1     
   24   14   22 1     
@<TRIPOS>SUBSTRUCTURE
      1 ****           1
@<TRIPOS>SET
DONOR_HYDROGENS      STATIC     ATOMS    <user>   **** ""
1 23
ATOM$RED        STATIC     ATOMS    COLORGROUP SYSTEM
1 23
@<TRIPOS>COMMENT
> <Gold.Version>
2022.2.0

> <Gold.Id.Protein>
3pbl|protein|mol2

> <Gold.Protein.RotatedTorsions>
[ 1303 1298 1297 1294 ] final  -86.72 input  179.99 | X-H torsion
[ 2461 2456 2455 2452 ] final -152.13 input   30.03 | X-H torsion
[ 2515 2510 2509 2506 ] final  -88.60 input  -89.99 | X-H torsion
[ 3721 3712 3711 3710 ] final   83.02 input -179.91 | X-H torsion
[ 3841 3832 3831 3830 ] final  -87.09 input -179.91 | X-H torsion
[ 3767 3762 3761 3758 ] final   40.82 input  -89.99 | X-H torsion
[ 2472 2467 2466 2463 ] final  168.79 input  -89.97 | X-H torsion

> <Gold.Protein.ActiveResidues>
 VAL82   VAL86   LEU89   PHE106  VAL107  ASP110  VAL111  MET112  CYS114  THR115 
 CYS181  SER182  ILE183  PHE188  VAL189  ILE190  SER192  SER193  SER196  TRP342 
 PHE345  PHE346  HIS349  VAL350  TYR365  THR369  GLY372  TYR373 

> <Gold.Protein.RotatedAtoms>
    3.7849   -8.6566    3.8526 H   0  0  0  0  0  0  0  0  0  0  0  0  # atno 1303 bound_to 1298
    1.0099   -9.2885    8.3188 H   0  0  0  0  0  0  0  0  0  0  0  0  # atno 2461 bound_to 2456
   -5.4347   -5.3411    8.8642 H   0  0  0  0  0  0  0  0  0  0  0  0  # atno 2472 bound_to 2467
    2.8235   -8.9148    4.5952 H   0  0  0  0  0  0  0  0  0  0  0  0  # atno 2515 bound_to 2510
   -2.7340  -17.6946   13.1522 H   0  0  0  0  0  0  0  0  0  0  0  0  # atno 3721 bound_to 3712
   -4.8365  -23.1550   10.0875 H   0  0  0  0  0  0  0  0  0  0  0  0  # atno 3767 bound_to 3762
    1.8218  -19.6271    8.7361 H   0  0  0  0  0  0  0  0  0  0  0  0  # atno 3841 bound_to 3832
    4.9092   -9.2641    4.8690 LP  0  0  0  0  0  0  0  0  0  0  0  0  # atno 4297 bound_to 1298
    3.6682  -10.2009    4.3701 LP  0  0  0  0  0  0  0  0  0  0  0  0  # atno 4298 bound_to 1298
    2.1298   -8.2751    7.6973 LP  0  0  0  0  0  0  0  0  0  0  0  0  # atno 4299 bound_to 2456
    0.5980   -8.2447    7.1322 LP  0  0  0  0  0  0  0  0  0  0  0  0  # atno 4300 bound_to 2456
    2.1507   -8.6644    6.0617 LP  0  0  0  0  0  0  0  0  0  0  0  0  # atno 4301 bound_to 2510
    2.3223   -7.4197    5.0186 LP  0  0  0  0  0  0  0  0  0  0  0  0  # atno 4302 bound_to 2510
   -2.8088  -17.7418   14.7553 LP  0  0  0  0  0  0  0  0  0  0  0  0  # atno 4306 bound_to 3712
   -3.5624  -16.5558   13.9234 LP  0  0  0  0  0  0  0  0  0  0  0  0  # atno 4307 bound_to 3712
    3.1138  -20.5296    8.4325 LP  0  0  0  0  0  0  0  0  0  0  0  0  # atno 4314 bound_to 3832
    2.0111  -21.0035    9.5396 LP  0  0  0  0  0  0  0  0  0  0  0  0  # atno 4315 bound_to 3832
   -5.3313  -21.9504   11.0730 LP  0  0  0  0  0  0  0  0  0  0  0  0  # atno 4318 bound_to 3762
   -3.9597  -22.7699   11.4103 LP  0  0  0  0  0  0  0  0  0  0  0  0  # atno 4319 bound_to 3762
   -4.4601   -4.8027    7.6699 LP  0  0  0  0  0  0  0  0  0  0  0  0  # atno 4320 bound_to 2467
   -3.8223   -5.2498    9.1051 LP  0  0  0  0  0  0  0  0  0  0  0  0  # atno 4321 bound_to 2467

> <Gold.Score>
     Score     S(PLP)   S(hbond)     S(cho)   S(metal)  DE(clash)   DE(tors)     intcor
     36.72     -30.90       2.00       0.00       0.00       0.00       0.68       1.18

> <Gold.PLP.Fitness>
36.7212

> <Gold.PLP.PLP>
-30.8993

> <Gold.PLP.part.hbond>
-2.0000

> <Gold.PLP.part.metal>
0.0000

> <Gold.PLP.part.buried>
-6.3687

> <Gold.PLP.part.nonpolar>
-25.2195

> <Gold.PLP.part.repulsive>
0.2703

> <Gold.PLP.ligand.clash>
0.0000

> <Gold.PLP.ligand.torsion>
0.6789

> <Gold.PLP.Chemscore.Hbond>
2.0000

> <Gold.PLP.Chemscore.CHOScore>
0.0000

> <Gold.PLP.Chemscore.Metal>
0.0000

> <Gold.Chemscore.Hbonds>
donor molecule, donor type, donor heavy atom, donor atom, acceptor molecule, acceptor atom, score
      L1  H     5    23       P1  1227  1.00
      P1  H  2456  2461       L1    10  1.00

> <Gold.PLP.Chemscore.Internal.Correction>
1.1798

