#       Name:                EN300-35009_i001
#       Creating user name   fsindt
#       Creation time:       Wed Mar  1 02:13:42 2023


#       File generated by GOLD software.
#

@<TRIPOS>MOLECULE
EN300-35009_i001|acide_3|mol2|8936|dock2
    23    24     1
SMALL
USER_CHARGES


@<TRIPOS>ATOM
      1 C1          -1.4807 -11.9278  11.3810 C.3            1 <1>                0.0000
      2 C2          -0.5875 -13.0135  10.8384 C.2            1 <1>                0.0000
      3 N3          -0.3928 -14.1301  11.5312 N.2            1 <1>                0.0000
      4 C4           0.3731 -15.0973  11.0984 C.2            1 <1>                0.0000
      5 N5           1.0225 -15.0402   9.9235 N.am           1 <1>                0.0000
      6 C6           0.8995 -13.9514   9.1323 C.2            1 <1>                0.0000
      7 O7           1.4803 -13.8811   8.0641 O.2            1 <1>                0.0000
      8 C8           0.0379 -12.8577   9.6011 C.2            1 <1>                0.0000
      9 C9          -0.1491 -11.6418   8.8027 C.2            1 <1>                0.0000
     10 O10         -1.2424 -11.0922   8.7717 O.co2          1 <1>                0.0000
     11 O11          0.7881 -11.1766   8.1674 O.co2          1 <1>               -1.0000
     12 C12          0.5347 -16.3278  11.9534 C.3            1 <1>                0.0000
     13 C13         -0.1469 -16.3306  13.3232 C.3            1 <1>                0.0000
     14 C14         -0.7056 -17.1922  12.1891 C.3            1 <1>                0.0000
     15 H15         -1.8777 -12.2339  12.3489 H              1 <1>                0.0000
     16 H16         -0.9060 -11.0092  11.4980 H              1 <1>                0.0000
     17 H17         -2.3047 -11.7553  10.6885 H              1 <1>                0.0000
     18 H18          1.4945 -16.8370  11.8679 H              1 <1>                0.0000
     19 H19          0.3645 -16.8420  14.1388 H              1 <1>                0.0000
     20 H20         -0.7121 -15.4426  13.6061 H              1 <1>                0.0000
     21 H21         -1.6383 -16.8710  11.7256 H              1 <1>                0.0000
     22 H22         -0.5618 -18.2704  12.2583 H              1 <1>                0.0000
     23 H23          1.5811 -15.7818   9.6427 H              1 <1>                0.0000
@<TRIPOS>BOND
    1    1    2 1     
    2    1   15 1     
    3    1   16 1     
    4    1   17 1     
    5    2    3 1     
    6    2    8 2     
    7    3    4 2     
    8    4    5 1     
    9    4   12 1     
   10    5    6 am    
   11    5   23 1     
   12    6    7 2     
   13    6    8 1     
   14    8    9 1     
   15    9   10 ar    
   16    9   11 ar    
   17   12   13 1     
   18   12   14 1     
   19   12   18 1     
   20   13   14 1     
   21   13   19 1     
   22   13   20 1     
   23   14   21 1     
   24   14   22 1     
@<TRIPOS>SUBSTRUCTURE
      1 ****           1
@<TRIPOS>SET
DONOR_HYDROGENS      STATIC     ATOMS    <user>   **** ""
1 23
ATOM$RED        STATIC     ATOMS    COLORGROUP SYSTEM
1 23
@<TRIPOS>COMMENT
> <Gold.Version>
2022.2.0

> <Gold.Id.Protein>
3pbl|protein|mol2

> <Gold.Protein.RotatedTorsions>
[ 1303 1298 1297 1294 ] final   44.07 input  179.99 | X-H torsion
[ 2461 2456 2455 2452 ] final -135.94 input   30.03 | X-H torsion
[ 2515 2510 2509 2506 ] final    8.90 input  -89.99 | X-H torsion
[ 3721 3712 3711 3710 ] final   64.36 input -179.91 | X-H torsion
[ 3841 3832 3831 3830 ] final  -43.61 input -179.91 | X-H torsion
[ 3767 3762 3761 3758 ] final  144.34 input  -89.99 | X-H torsion
[ 2472 2467 2466 2463 ] final -168.01 input  -89.97 | X-H torsion

> <Gold.Protein.ActiveResidues>
 VAL82   VAL86   LEU89   PHE106  VAL107  ASP110  VAL111  MET112  CYS114  THR115 
 CYS181  SER182  ILE183  PHE188  VAL189  ILE190  SER192  SER193  SER196  TRP342 
 PHE345  PHE346  HIS349  VAL350  TYR365  THR369  GLY372  TYR373 

> <Gold.Protein.RotatedAtoms>
    3.7975  -10.2516    4.4803 H   0  0  0  0  0  0  0  0  0  0  0  0  # atno 1303 bound_to 1298
    0.7727   -9.2565    8.2040 H   0  0  0  0  0  0  0  0  0  0  0  0  # atno 2461 bound_to 2456
   -5.2200   -5.4259    9.1649 H   0  0  0  0  0  0  0  0  0  0  0  0  # atno 2472 bound_to 2467
    2.4795   -7.5449    4.7105 H   0  0  0  0  0  0  0  0  0  0  0  0  # atno 2515 bound_to 2510
   -2.6151  -17.8743   13.3325 H   0  0  0  0  0  0  0  0  0  0  0  0  # atno 3721 bound_to 3712
   -3.9089  -22.9608   11.2260 H   0  0  0  0  0  0  0  0  0  0  0  0  # atno 3767 bound_to 3762
    1.5637  -19.9759    9.2082 H   0  0  0  0  0  0  0  0  0  0  0  0  # atno 3841 bound_to 3832
    3.6569   -8.7705    3.8072 LP  0  0  0  0  0  0  0  0  0  0  0  0  # atno 4297 bound_to 1298
    4.9079   -9.0989    4.8040 LP  0  0  0  0  0  0  0  0  0  0  0  0  # atno 4298 bound_to 1298
    2.1611   -8.4561    7.8890 LP  0  0  0  0  0  0  0  0  0  0  0  0  # atno 4299 bound_to 2456
    0.8039   -8.0958    7.0553 LP  0  0  0  0  0  0  0  0  0  0  0  0  # atno 4300 bound_to 2456
    2.7558   -9.1458    4.8734 LP  0  0  0  0  0  0  0  0  0  0  0  0  # atno 4301 bound_to 2510
    2.0614   -8.3089    6.0916 LP  0  0  0  0  0  0  0  0  0  0  0  0  # atno 4302 bound_to 2510
   -2.9487  -17.4825   14.8533 LP  0  0  0  0  0  0  0  0  0  0  0  0  # atno 4306 bound_to 3712
   -3.5598  -16.6077   13.6172 LP  0  0  0  0  0  0  0  0  0  0  0  0  # atno 4307 bound_to 3712
    2.7706  -19.9769    8.1501 LP  0  0  0  0  0  0  0  0  0  0  0  0  # atno 4314 bound_to 3832
    2.6524  -21.1532    9.2766 LP  0  0  0  0  0  0  0  0  0  0  0  0  # atno 4315 bound_to 3832
   -5.0561  -22.9994   10.0644 LP  0  0  0  0  0  0  0  0  0  0  0  0  # atno 4318 bound_to 3762
   -5.1620  -21.9150   11.2808 LP  0  0  0  0  0  0  0  0  0  0  0  0  # atno 4319 bound_to 3762
   -4.8359   -4.8498    7.6860 LP  0  0  0  0  0  0  0  0  0  0  0  0  # atno 4320 bound_to 2467
   -3.6612   -5.1179    8.7883 LP  0  0  0  0  0  0  0  0  0  0  0  0  # atno 4321 bound_to 2467

> <Gold.Score>
     Score     S(PLP)   S(hbond)     S(cho)   S(metal)  DE(clash)   DE(tors)     intcor
     39.71     -33.71       2.00       0.00       0.00       0.00       0.59       1.18

> <Gold.PLP.Fitness>
39.7059

> <Gold.PLP.PLP>
-33.7069

> <Gold.PLP.part.hbond>
-2.0000

> <Gold.PLP.part.metal>
0.0000

> <Gold.PLP.part.buried>
-3.6425

> <Gold.PLP.part.nonpolar>
-28.6358

> <Gold.PLP.part.repulsive>
0.1807

> <Gold.PLP.ligand.clash>
0.0000

> <Gold.PLP.ligand.torsion>
0.5904

> <Gold.PLP.Chemscore.Hbond>
2.0000

> <Gold.PLP.Chemscore.CHOScore>
0.0000

> <Gold.PLP.Chemscore.Metal>
0.0000

> <Gold.Chemscore.Hbonds>
donor molecule, donor type, donor heavy atom, donor atom, acceptor molecule, acceptor atom, score
      L1  H     5    23       P1  1227  1.00
      P1  H  2456  2461       L1    11  1.00

> <Gold.PLP.Chemscore.Internal.Correction>
1.1798

