#       Name:                EN300-35009_i001
#       Creating user name   fsindt
#       Creation time:       Wed Mar  1 02:13:51 2023


#       File generated by GOLD software.
#

@<TRIPOS>MOLECULE
EN300-35009_i001|acide_3|mol2|8936|dock20
    23    24     1
SMALL
USER_CHARGES


@<TRIPOS>ATOM
      1 C1          -0.9410 -19.9270  15.4604 C.3            1 <1>                0.0000
      2 C2          -0.2220 -19.4551  14.2229 C.2            1 <1>                0.0000
      3 N3           0.1179 -18.1777  14.0912 N.2            1 <1>                0.0000
      4 C4           0.7425 -17.7253  13.0354 C.2            1 <1>                0.0000
      5 N5           1.0890 -18.5123  12.0029 N.am           1 <1>                0.0000
      6 C6           0.7945 -19.8311  12.0259 C.2            1 <1>                0.0000
      7 O7           1.1003 -20.5603  11.0996 O.2            1 <1>                0.0000
      8 C8           0.0979 -20.3569  13.2076 C.2            1 <1>                0.0000
      9 C9          -0.2580 -21.7757  13.3115 C.2            1 <1>                0.0000
     10 O10         -0.1864 -22.3473  14.3915 O.co2          1 <1>                0.0000
     11 O11         -0.6269 -22.3885  12.3180 O.co2          1 <1>               -1.0000
     12 C12          1.0878 -16.2597  12.9737 C.3            1 <1>                0.0000
     13 C13          0.5396 -15.4537  11.7944 C.3            1 <1>                0.0000
     14 C14         -0.0464 -15.2566  13.1938 C.3            1 <1>                0.0000
     15 H15         -1.0962 -19.0842  16.1340 H              1 <1>                0.0000
     16 H16         -1.9053 -20.3512  15.1808 H              1 <1>                0.0000
     17 H17         -0.3413 -20.6869  15.9615 H              1 <1>                0.0000
     18 H18          2.0756 -15.9932  13.3495 H              1 <1>                0.0000
     19 H19          1.1667 -14.6569  11.3945 H              1 <1>                0.0000
     20 H20         -0.0708 -15.9835  11.0630 H              1 <1>                0.0000
     21 H21         -1.0424 -15.6568  13.3834 H              1 <1>                0.0000
     22 H22          0.1951 -14.3302  13.7148 H              1 <1>                0.0000
     23 H23          1.5513 -18.1329  11.2391 H              1 <1>                0.0000
@<TRIPOS>BOND
    1    1    2 1     
    2    1   15 1     
    3    1   16 1     
    4    1   17 1     
    5    2    3 1     
    6    2    8 2     
    7    3    4 2     
    8    4    5 1     
    9    4   12 1     
   10    5    6 am    
   11    5   23 1     
   12    6    7 2     
   13    6    8 1     
   14    8    9 1     
   15    9   10 ar    
   16    9   11 ar    
   17   12   13 1     
   18   12   14 1     
   19   12   18 1     
   20   13   14 1     
   21   13   19 1     
   22   13   20 1     
   23   14   21 1     
   24   14   22 1     
@<TRIPOS>SUBSTRUCTURE
      1 ****           1
@<TRIPOS>SET
DONOR_HYDROGENS      STATIC     ATOMS    <user>   **** ""
1 23
ATOM$RED        STATIC     ATOMS    COLORGROUP SYSTEM
1 23
@<TRIPOS>COMMENT
> <Gold.Version>
2022.2.0

> <Gold.Id.Protein>
3pbl|protein|mol2

> <Gold.Protein.RotatedTorsions>
[ 1303 1298 1297 1294 ] final  -83.05 input  179.99 | X-H torsion
[ 2461 2456 2455 2452 ] final   21.82 input   30.03 | X-H torsion
[ 2515 2510 2509 2506 ] final -155.66 input  -89.99 | X-H torsion
[ 3721 3712 3711 3710 ] final  112.75 input -179.91 | X-H torsion
[ 3841 3832 3831 3830 ] final    0.75 input -179.91 | X-H torsion
[ 3767 3762 3761 3758 ] final  154.03 input  -89.99 | X-H torsion
[ 2472 2467 2466 2463 ] final -124.96 input  -89.97 | X-H torsion

> <Gold.Protein.ActiveResidues>
 VAL82   VAL86   LEU89   PHE106  VAL107  ASP110  VAL111  MET112  CYS114  THR115 
 CYS181  SER182  ILE183  PHE188  VAL189  ILE190  SER192  SER193  SER196  TRP342 
 PHE345  PHE346  HIS349  VAL350  TYR365  THR369  GLY372  TYR373 

> <Gold.Protein.RotatedAtoms>
    3.7397   -8.6927    3.8352 H   0  0  0  0  0  0  0  0  0  0  0  0  # atno 1303 bound_to 1298
    1.3874   -7.9188    7.0823 H   0  0  0  0  0  0  0  0  0  0  0  0  # atno 2461 bound_to 2456
   -4.5826   -5.4523    9.4328 H   0  0  0  0  0  0  0  0  0  0  0  0  # atno 2472 bound_to 2467
    2.4936   -9.2213    5.5339 H   0  0  0  0  0  0  0  0  0  0  0  0  # atno 2515 bound_to 2510
   -2.9547  -17.3283   13.0310 H   0  0  0  0  0  0  0  0  0  0  0  0  # atno 3721 bound_to 3712
   -3.9306  -22.8505   11.3390 H   0  0  0  0  0  0  0  0  0  0  0  0  # atno 3767 bound_to 3762
    1.7433  -20.4952    9.5621 H   0  0  0  0  0  0  0  0  0  0  0  0  # atno 3841 bound_to 3832
    4.9119   -9.2073    4.8489 LP  0  0  0  0  0  0  0  0  0  0  0  0  # atno 4297 bound_to 1298
    3.7106  -10.2216    4.4077 LP  0  0  0  0  0  0  0  0  0  0  0  0  # atno 4298 bound_to 1298
    0.3921   -8.9920    7.8068 LP  0  0  0  0  0  0  0  0  0  0  0  0  # atno 4299 bound_to 2456
    1.9584   -8.8971    8.2588 LP  0  0  0  0  0  0  0  0  0  0  0  0  # atno 4300 bound_to 2456
    2.0560   -7.6672    5.7764 LP  0  0  0  0  0  0  0  0  0  0  0  0  # atno 4301 bound_to 2510
    2.7471   -8.1102    4.3648 LP  0  0  0  0  0  0  0  0  0  0  0  0  # atno 4302 bound_to 2510
   -2.6514  -18.0680   14.4234 LP  0  0  0  0  0  0  0  0  0  0  0  0  # atno 4306 bound_to 3712
   -3.4650  -16.6524   14.3951 LP  0  0  0  0  0  0  0  0  0  0  0  0  # atno 4307 bound_to 3712
    2.1334  -19.6517    8.2535 LP  0  0  0  0  0  0  0  0  0  0  0  0  # atno 4314 bound_to 3832
    3.0823  -20.8785    8.7644 LP  0  0  0  0  0  0  0  0  0  0  0  0  # atno 4315 bound_to 3832
   -4.9294  -23.0958   10.0705 LP  0  0  0  0  0  0  0  0  0  0  0  0  # atno 4318 bound_to 3762
   -5.2670  -21.9288   11.1618 LP  0  0  0  0  0  0  0  0  0  0  0  0  # atno 4319 bound_to 3762
   -5.3793   -5.0467    8.0663 LP  0  0  0  0  0  0  0  0  0  0  0  0  # atno 4320 bound_to 2467
   -3.7551   -4.8946    8.1402 LP  0  0  0  0  0  0  0  0  0  0  0  0  # atno 4321 bound_to 2467

> <Gold.Score>
     Score     S(PLP)   S(hbond)     S(cho)   S(metal)  DE(clash)   DE(tors)     intcor
     32.32     -26.42       1.98       0.00       0.00       0.00       0.60       1.18

> <Gold.PLP.Fitness>
32.3196

> <Gold.PLP.PLP>
-26.4188

> <Gold.PLP.part.hbond>
-2.0000

> <Gold.PLP.part.metal>
0.0000

> <Gold.PLP.part.buried>
-4.9228

> <Gold.PLP.part.nonpolar>
-19.5322

> <Gold.PLP.part.repulsive>
0.0986

> <Gold.PLP.ligand.clash>
0.0000

> <Gold.PLP.ligand.torsion>
0.6020

> <Gold.PLP.Chemscore.Hbond>
1.9750

> <Gold.PLP.Chemscore.CHOScore>
0.0000

> <Gold.PLP.Chemscore.Metal>
0.0000

> <Gold.Chemscore.Hbonds>
donor molecule, donor type, donor heavy atom, donor atom, acceptor molecule, acceptor atom, score
      L1  H     5    23       P1  1227  0.98
      P1  H  3832  3841       L1     7  1.00

> <Gold.PLP.Chemscore.Internal.Correction>
1.1798

