#       Name:                EN300-35009_i001
#       Creating user name   fsindt
#       Creation time:       Wed Mar  1 02:13:43 2023


#       File generated by GOLD software.
#

@<TRIPOS>MOLECULE
EN300-35009_i001|acide_3|mol2|8936|dock4
    23    24     1
SMALL
USER_CHARGES


@<TRIPOS>ATOM
      1 C1          -1.2138 -10.8584   9.8494 C.3            1 <1>                0.0000
      2 C2          -0.6339 -12.2411  10.0005 C.2            1 <1>                0.0000
      3 N3          -0.8800 -12.9556  11.0931 N.2            1 <1>                0.0000
      4 C4          -0.3979 -14.1586  11.2656 C.2            1 <1>                0.0000
      5 N5           0.3819 -14.7666  10.3559 N.am           1 <1>                0.0000
      6 C6           0.6997 -14.1354   9.2039 C.2            1 <1>                0.0000
      7 O7           1.4053 -14.6701   8.3674 O.2            1 <1>                0.0000
      8 C8           0.1616 -12.7850   8.9917 C.2            1 <1>                0.0000
      9 C9           0.4587 -12.0319   7.7689 C.2            1 <1>                0.0000
     10 O10          0.6470 -10.8236   7.8248 O.co2          1 <1>                0.0000
     11 O11          0.5184 -12.6115   6.6924 O.co2          1 <1>               -1.0000
     12 C12         -0.7308 -14.8941  12.5381 C.3            1 <1>                0.0000
     13 C13         -0.3178 -16.3642  12.6330 C.3            1 <1>                0.0000
     14 C14          0.4335 -15.3049  13.4419 C.3            1 <1>                0.0000
     15 H15         -1.8052 -10.6141  10.7317 H              1 <1>                0.0000
     16 H16         -0.4054 -10.1352   9.7421 H              1 <1>                0.0000
     17 H17         -1.8502 -10.8260   8.9650 H              1 <1>                0.0000
     18 H18         -1.6634 -14.6012  13.0202 H              1 <1>                0.0000
     19 H19         -0.9787 -17.0385  13.1779 H              1 <1>                0.0000
     20 H20          0.1946 -16.7996  11.7751 H              1 <1>                0.0000
     21 H21          1.4401 -15.0432  13.1161 H              1 <1>                0.0000
     22 H22          0.2669 -15.2821  14.5188 H              1 <1>                0.0000
     23 H23          0.7180 -15.6604  10.5265 H              1 <1>                0.0000
@<TRIPOS>BOND
    1    1    2 1     
    2    1   15 1     
    3    1   16 1     
    4    1   17 1     
    5    2    3 1     
    6    2    8 2     
    7    3    4 2     
    8    4    5 1     
    9    4   12 1     
   10    5    6 am    
   11    5   23 1     
   12    6    7 2     
   13    6    8 1     
   14    8    9 1     
   15    9   10 ar    
   16    9   11 ar    
   17   12   13 1     
   18   12   14 1     
   19   12   18 1     
   20   13   14 1     
   21   13   19 1     
   22   13   20 1     
   23   14   21 1     
   24   14   22 1     
@<TRIPOS>SUBSTRUCTURE
      1 ****           1
@<TRIPOS>SET
DONOR_HYDROGENS      STATIC     ATOMS    <user>   **** ""
1 23
ATOM$RED        STATIC     ATOMS    COLORGROUP SYSTEM
1 23
@<TRIPOS>COMMENT
> <Gold.Version>
2022.2.0

> <Gold.Id.Protein>
3pbl|protein|mol2

> <Gold.Protein.RotatedTorsions>
[ 1303 1298 1297 1294 ] final    2.83 input  179.99 | X-H torsion
[ 2461 2456 2455 2452 ] final -137.43 input   30.03 | X-H torsion
[ 2515 2510 2509 2506 ] final  109.54 input  -89.99 | X-H torsion
[ 3721 3712 3711 3710 ] final  -74.52 input -179.91 | X-H torsion
[ 3841 3832 3831 3830 ] final    4.16 input -179.91 | X-H torsion
[ 3767 3762 3761 3758 ] final  -12.61 input  -89.99 | X-H torsion
[ 2472 2467 2466 2463 ] final -124.97 input  -89.97 | X-H torsion

> <Gold.Protein.ActiveResidues>
 VAL82   VAL86   LEU89   PHE106  VAL107  ASP110  VAL111  MET112  CYS114  THR115 
 CYS181  SER182  ILE183  PHE188  VAL189  ILE190  SER192  SER193  SER196  TRP342 
 PHE345  PHE346  HIS349  VAL350  TYR365  THR369  GLY372  TYR373 

> <Gold.Protein.RotatedAtoms>
    3.4016   -9.9088    4.0721 H   0  0  0  0  0  0  0  0  0  0  0  0  # atno 1303 bound_to 1298
    0.7931   -9.2616    8.2163 H   0  0  0  0  0  0  0  0  0  0  0  0  # atno 2461 bound_to 2456
   -4.5828   -5.4523    9.4328 H   0  0  0  0  0  0  0  0  0  0  0  0  # atno 2472 bound_to 2467
    2.0298   -8.0039    6.0111 H   0  0  0  0  0  0  0  0  0  0  0  0  # atno 2515 bound_to 2510
   -2.9091  -17.1412   14.7492 H   0  0  0  0  0  0  0  0  0  0  0  0  # atno 3721 bound_to 3712
   -5.4210  -22.5606   10.2420 H   0  0  0  0  0  0  0  0  0  0  0  0  # atno 3767 bound_to 3762
    1.7742  -20.5335    9.5772 H   0  0  0  0  0  0  0  0  0  0  0  0  # atno 3841 bound_to 3832
    4.1946   -8.4814    4.0687 LP  0  0  0  0  0  0  0  0  0  0  0  0  # atno 4297 bound_to 1298
    4.7663   -9.7310    4.9509 LP  0  0  0  0  0  0  0  0  0  0  0  0  # atno 4298 bound_to 1298
    2.1612   -8.4388    7.8718 LP  0  0  0  0  0  0  0  0  0  0  0  0  # atno 4299 bound_to 2456
    0.7833   -8.1080    7.0603 LP  0  0  0  0  0  0  0  0  0  0  0  0  # atno 4300 bound_to 2456
    2.6096   -7.7493    4.5062 LP  0  0  0  0  0  0  0  0  0  0  0  0  # atno 4301 bound_to 2510
    2.6576   -9.2461    5.1575 LP  0  0  0  0  0  0  0  0  0  0  0  0  # atno 4302 bound_to 2510
   -3.4941  -16.7716   13.3004 LP  0  0  0  0  0  0  0  0  0  0  0  0  # atno 4306 bound_to 3712
   -2.6750  -18.1648   13.5345 LP  0  0  0  0  0  0  0  0  0  0  0  0  # atno 4307 bound_to 3712
    2.0824  -19.6434    8.2776 LP  0  0  0  0  0  0  0  0  0  0  0  0  # atno 4314 bound_to 3832
    3.0974  -20.8426    8.7229 LP  0  0  0  0  0  0  0  0  0  0  0  0  # atno 4315 bound_to 3832
   -4.6732  -22.0443   11.5989 LP  0  0  0  0  0  0  0  0  0  0  0  0  # atno 4318 bound_to 3762
   -4.0334  -23.2701   10.7300 LP  0  0  0  0  0  0  0  0  0  0  0  0  # atno 4319 bound_to 3762
   -5.3792   -5.0466    8.0662 LP  0  0  0  0  0  0  0  0  0  0  0  0  # atno 4320 bound_to 2467
   -3.7550   -4.8947    8.1404 LP  0  0  0  0  0  0  0  0  0  0  0  0  # atno 4321 bound_to 2467

> <Gold.Score>
     Score     S(PLP)   S(hbond)     S(cho)   S(metal)  DE(clash)   DE(tors)     intcor
     37.49     -34.82       0.91       0.00       0.00       0.00       0.62       1.18

> <Gold.PLP.Fitness>
37.4900

> <Gold.PLP.PLP>
-34.8189

> <Gold.PLP.part.hbond>
-0.6897

> <Gold.PLP.part.metal>
0.0000

> <Gold.PLP.part.buried>
-6.1529

> <Gold.PLP.part.nonpolar>
-27.7034

> <Gold.PLP.part.repulsive>
0.2535

> <Gold.PLP.ligand.clash>
0.0000

> <Gold.PLP.ligand.torsion>
0.6224

> <Gold.PLP.Chemscore.Hbond>
0.9120

> <Gold.PLP.Chemscore.CHOScore>
0.0000

> <Gold.PLP.Chemscore.Metal>
0.0000

> <Gold.Chemscore.Hbonds>
donor molecule, donor type, donor heavy atom, donor atom, acceptor molecule, acceptor atom, score
      P1  H  2456  2461       L1    10  0.91

> <Gold.PLP.Chemscore.Internal.Correction>
1.1798

