#       Name:                EN300-35009_i001
#       Creating user name   fsindt
#       Creation time:       Wed Mar  1 02:13:49 2023


#       File generated by GOLD software.
#

@<TRIPOS>MOLECULE
EN300-35009_i001|acide_3|mol2|8936|dock16
    23    24     1
SMALL
USER_CHARGES


@<TRIPOS>ATOM
      1 C1           0.9137 -11.8407   6.3363 C.3            1 <1>                0.0000
      2 C2           0.2934 -12.0154   7.6986 C.2            1 <1>                0.0000
      3 N3          -0.3979 -11.0253   8.2523 N.2            1 <1>                0.0000
      4 C4          -0.9529 -11.1335   9.4312 C.2            1 <1>                0.0000
      5 N5          -0.8691 -12.2498  10.1745 N.am           1 <1>                0.0000
      6 C6          -0.1901 -13.3233   9.7127 C.2            1 <1>                0.0000
      7 O7          -0.1030 -14.3437  10.3719 O.2            1 <1>                0.0000
      8 C8           0.4348 -13.2204   8.3872 C.2            1 <1>                0.0000
      9 C9           1.1891 -14.3395   7.8136 C.2            1 <1>                0.0000
     10 O10          2.2262 -14.1275   7.1988 O.co2          1 <1>                0.0000
     11 O11          0.7817 -15.4858   7.9496 O.co2          1 <1>               -1.0000
     12 C12         -1.7185  -9.9569   9.9794 C.3            1 <1>                0.0000
     13 C13         -3.2179  -9.8895   9.6825 C.3            1 <1>                0.0000
     14 C14         -2.7319 -10.2301  11.0927 C.3            1 <1>                0.0000
     15 H15          0.6910 -10.8418   5.9611 H              1 <1>                0.0000
     16 H16          1.9936 -11.9690   6.4097 H              1 <1>                0.0000
     17 H17          0.5050 -12.5850   5.6528 H              1 <1>                0.0000
     18 H18         -1.1702  -9.0157  10.0175 H              1 <1>                0.0000
     19 H19         -3.6560  -8.9038   9.5255 H              1 <1>                0.0000
     20 H20         -3.6507 -10.6960   9.0906 H              1 <1>                0.0000
     21 H21         -2.8448 -11.2609  11.4286 H              1 <1>                0.0000
     22 H22         -2.8502  -9.4687  11.8635 H              1 <1>                0.0000
     23 H23         -1.2964 -12.2850  11.0446 H              1 <1>                0.0000
@<TRIPOS>BOND
    1    1    2 1     
    2    1   15 1     
    3    1   16 1     
    4    1   17 1     
    5    2    3 1     
    6    2    8 2     
    7    3    4 2     
    8    4    5 1     
    9    4   12 1     
   10    5    6 am    
   11    5   23 1     
   12    6    7 2     
   13    6    8 1     
   14    8    9 1     
   15    9   10 ar    
   16    9   11 ar    
   17   12   13 1     
   18   12   14 1     
   19   12   18 1     
   20   13   14 1     
   21   13   19 1     
   22   13   20 1     
   23   14   21 1     
   24   14   22 1     
@<TRIPOS>SUBSTRUCTURE
      1 ****           1
@<TRIPOS>SET
DONOR_HYDROGENS      STATIC     ATOMS    <user>   **** ""
1 23
ATOM$RED        STATIC     ATOMS    COLORGROUP SYSTEM
1 23
@<TRIPOS>COMMENT
> <Gold.Version>
2022.2.0

> <Gold.Id.Protein>
3pbl|protein|mol2

> <Gold.Protein.RotatedTorsions>
[ 1303 1298 1297 1294 ] final -148.39 input  179.99 | X-H torsion
[ 2461 2456 2455 2452 ] final -125.60 input   30.03 | X-H torsion
[ 2515 2510 2509 2506 ] final  -54.44 input  -89.99 | X-H torsion
[ 3721 3712 3711 3710 ] final    5.70 input -179.91 | X-H torsion
[ 3841 3832 3831 3830 ] final   81.29 input -179.91 | X-H torsion
[ 3767 3762 3761 3758 ] final -159.17 input  -89.99 | X-H torsion
[ 2472 2467 2466 2463 ] final  -67.33 input  -89.97 | X-H torsion

> <Gold.Protein.ActiveResidues>
 VAL82   VAL86   LEU89   PHE106  VAL107  ASP110  VAL111  MET112  CYS114  THR115 
 CYS181  SER182  ILE183  PHE188  VAL189  ILE190  SER192  SER193  SER196  TRP342 
 PHE345  PHE346  HIS349  VAL350  TYR365  THR369  GLY372  TYR373 

> <Gold.Protein.RotatedAtoms>
    4.5918   -8.5574    4.3748 H   0  0  0  0  0  0  0  0  0  0  0  0  # atno 1303 bound_to 1298
    0.6397   -9.2085    8.1096 H   0  0  0  0  0  0  0  0  0  0  0  0  # atno 2461 bound_to 2456
   -3.7857   -5.2292    9.0569 H   0  0  0  0  0  0  0  0  0  0  0  0  # atno 2472 bound_to 2467
    2.8116   -8.4110    4.3659 H   0  0  0  0  0  0  0  0  0  0  0  0  # atno 2515 bound_to 2510
   -2.4770  -17.9864   14.1621 H   0  0  0  0  0  0  0  0  0  0  0  0  # atno 3721 bound_to 3712
   -4.3182  -22.2881   11.6462 H   0  0  0  0  0  0  0  0  0  0  0  0  # atno 3767 bound_to 3762
    2.7442  -20.9472    9.3470 H   0  0  0  0  0  0  0  0  0  0  0  0  # atno 3841 bound_to 3832
    4.4355  -10.1065    4.8668 LP  0  0  0  0  0  0  0  0  0  0  0  0  # atno 4297 bound_to 1298
    3.3347   -9.4577    3.8500 LP  0  0  0  0  0  0  0  0  0  0  0  0  # atno 4298 bound_to 1298
    2.1430   -8.5788    8.0052 LP  0  0  0  0  0  0  0  0  0  0  0  0  # atno 4299 bound_to 2456
    0.9550   -8.0211    7.0334 LP  0  0  0  0  0  0  0  0  0  0  0  0  # atno 4300 bound_to 2456
    2.3618   -9.0921    5.7799 LP  0  0  0  0  0  0  0  0  0  0  0  0  # atno 4301 bound_to 2510
    2.1231   -7.4961    5.5298 LP  0  0  0  0  0  0  0  0  0  0  0  0  # atno 4302 bound_to 2510
   -3.4079  -16.7312   14.5304 LP  0  0  0  0  0  0  0  0  0  0  0  0  # atno 4306 bound_to 3712
   -3.2600  -17.2295   12.9823 LP  0  0  0  0  0  0  0  0  0  0  0  0  # atno 4307 bound_to 3712
    1.3897  -20.1143    9.1282 LP  0  0  0  0  0  0  0  0  0  0  0  0  # atno 4314 bound_to 3832
    2.6696  -19.8938    8.1383 LP  0  0  0  0  0  0  0  0  0  0  0  0  # atno 4315 bound_to 3832
   -4.2978  -23.3354   10.3934 LP  0  0  0  0  0  0  0  0  0  0  0  0  # atno 4318 bound_to 3762
   -5.5112  -22.2514   10.5317 LP  0  0  0  0  0  0  0  0  0  0  0  0  # atno 4319 bound_to 3762
   -5.4078   -5.3574    8.9199 LP  0  0  0  0  0  0  0  0  0  0  0  0  # atno 4320 bound_to 2467
   -4.5232   -4.8070    7.6625 LP  0  0  0  0  0  0  0  0  0  0  0  0  # atno 4321 bound_to 2467

> <Gold.Score>
     Score     S(PLP)   S(hbond)     S(cho)   S(metal)  DE(clash)   DE(tors)     intcor
     37.78     -36.15       1.00       0.00       0.00       0.00       1.27       1.18

> <Gold.PLP.Fitness>
37.7842

> <Gold.PLP.PLP>
-36.1507

> <Gold.PLP.part.hbond>
-1.1732

> <Gold.PLP.part.metal>
0.0000

> <Gold.PLP.part.buried>
-2.4709

> <Gold.PLP.part.nonpolar>
-36.5231

> <Gold.PLP.part.repulsive>
3.1740

> <Gold.PLP.ligand.clash>
0.0000

> <Gold.PLP.ligand.torsion>
1.2732

> <Gold.PLP.Chemscore.Hbond>
1.0000

> <Gold.PLP.Chemscore.CHOScore>
0.0000

> <Gold.PLP.Chemscore.Metal>
0.0000

> <Gold.Chemscore.Hbonds>
donor molecule, donor type, donor heavy atom, donor atom, acceptor molecule, acceptor atom, score
      P1  H  2456  2461       L1     3  1.00

> <Gold.PLP.Chemscore.Internal.Correction>
1.1798

