#       Name:                EN300-35009_i001
#       Creating user name   fsindt
#       Creation time:       Wed Mar  1 02:13:51 2023


#       File generated by GOLD software.
#

@<TRIPOS>MOLECULE
EN300-35009_i001|acide_3|mol2|8936|dock19
    23    24     1
SMALL
USER_CHARGES


@<TRIPOS>ATOM
      1 C1          -0.0936 -19.4620  16.0091 C.3            1 <1>                0.0000
      2 C2           0.5101 -19.0198  14.7010 C.2            1 <1>                0.0000
      3 N3           0.6417 -17.7267  14.4265 N.2            1 <1>                0.0000
      4 C4           1.1599 -17.2989  13.3050 C.2            1 <1>                0.0000
      5 N5           1.5989 -18.1287  12.3437 N.am           1 <1>                0.0000
      6 C6           1.5158 -19.4671  12.5125 C.2            1 <1>                0.0000
      7 O7           1.9082 -20.2352  11.6526 O.2            1 <1>                0.0000
      8 C8           0.9412 -19.9647  13.7696 C.2            1 <1>                0.0000
      9 C9           0.8153 -21.4022  14.0313 C.2            1 <1>                0.0000
     10 O10          1.7007 -22.1689  13.6756 O.co2          1 <1>                0.0000
     11 O11         -0.1753 -21.8353  14.6055 O.co2          1 <1>               -1.0000
     12 C12          1.2692 -15.8126  13.0809 C.3            1 <1>                0.0000
     13 C13          2.0059 -15.3397  11.8262 C.3            1 <1>                0.0000
     14 C14          0.4835 -15.2147  11.9121 C.3            1 <1>                0.0000
     15 H15         -0.3618 -18.5861  16.5999 H              1 <1>                0.0000
     16 H16         -0.9863 -20.0564  15.8147 H              1 <1>                0.0000
     17 H17          0.6307 -20.0631  16.5588 H              1 <1>                0.0000
     18 H18          1.3700 -15.2075  13.9818 H              1 <1>                0.0000
     19 H19          2.5912 -14.4232  11.9016 H              1 <1>                0.0000
     20 H20          2.4117 -16.1034  11.1627 H              1 <1>                0.0000
     21 H21         -0.1125 -15.8963  11.3053 H              1 <1>                0.0000
     22 H22          0.0671 -14.2161  12.0440 H              1 <1>                0.0000
     23 H23          1.9760 -17.7665  11.5267 H              1 <1>                0.0000
@<TRIPOS>BOND
    1    1    2 1     
    2    1   15 1     
    3    1   16 1     
    4    1   17 1     
    5    2    3 1     
    6    2    8 2     
    7    3    4 2     
    8    4    5 1     
    9    4   12 1     
   10    5    6 am    
   11    5   23 1     
   12    6    7 2     
   13    6    8 1     
   14    8    9 1     
   15    9   10 ar    
   16    9   11 ar    
   17   12   13 1     
   18   12   14 1     
   19   12   18 1     
   20   13   14 1     
   21   13   19 1     
   22   13   20 1     
   23   14   21 1     
   24   14   22 1     
@<TRIPOS>SUBSTRUCTURE
      1 ****           1
@<TRIPOS>SET
DONOR_HYDROGENS      STATIC     ATOMS    <user>   **** ""
1 23
ATOM$RED        STATIC     ATOMS    COLORGROUP SYSTEM
1 23
@<TRIPOS>COMMENT
> <Gold.Version>
2022.2.0

> <Gold.Id.Protein>
3pbl|protein|mol2

> <Gold.Protein.RotatedTorsions>
[ 1303 1298 1297 1294 ] final   94.95 input  179.99 | X-H torsion
[ 2461 2456 2455 2452 ] final -100.36 input   30.03 | X-H torsion
[ 2515 2510 2509 2506 ] final -104.79 input  -89.99 | X-H torsion
[ 3721 3712 3711 3710 ] final -170.05 input -179.91 | X-H torsion
[ 3841 3832 3831 3830 ] final    7.17 input -179.91 | X-H torsion
[ 3767 3762 3761 3758 ] final -164.71 input  -89.99 | X-H torsion
[ 2472 2467 2466 2463 ] final  -96.07 input  -89.97 | X-H torsion

> <Gold.Protein.ActiveResidues>
 VAL82   VAL86   LEU89   PHE106  VAL107  ASP110  VAL111  MET112  CYS114  THR115 
 CYS181  SER182  ILE183  PHE188  VAL189  ILE190  SER192  SER193  SER196  TRP342 
 PHE345  PHE346  HIS349  VAL350  TYR365  THR369  GLY372  TYR373 

> <Gold.Protein.RotatedAtoms>
    4.4770  -10.0746    4.8838 H   0  0  0  0  0  0  0  0  0  0  0  0  # atno 1303 bound_to 1298
    0.4050   -9.0133    7.8327 H   0  0  0  0  0  0  0  0  0  0  0  0  # atno 2461 bound_to 2456
   -4.1282   -5.3700    9.3430 H   0  0  0  0  0  0  0  0  0  0  0  0  # atno 2472 bound_to 2467
    2.7804   -9.0920    4.7881 H   0  0  0  0  0  0  0  0  0  0  0  0  # atno 2515 bound_to 2510
   -3.3364  -16.5601   13.6886 H   0  0  0  0  0  0  0  0  0  0  0  0  # atno 3721 bound_to 3712
   -4.2524  -22.3501   11.6349 H   0  0  0  0  0  0  0  0  0  0  0  0  # atno 3767 bound_to 3762
    1.8033  -20.5666    9.5888 H   0  0  0  0  0  0  0  0  0  0  0  0  # atno 3841 bound_to 3832
    3.3308   -9.5096    3.8674 LP  0  0  0  0  0  0  0  0  0  0  0  0  # atno 4297 bound_to 1298
    4.5543   -8.5369    4.3402 LP  0  0  0  0  0  0  0  0  0  0  0  0  # atno 4298 bound_to 1298
    1.9797   -8.8734    8.2425 LP  0  0  0  0  0  0  0  0  0  0  0  0  # atno 4299 bound_to 2456
    1.3529   -7.9216    7.0730 LP  0  0  0  0  0  0  0  0  0  0  0  0  # atno 4300 bound_to 2456
    2.0812   -8.4105    6.0967 LP  0  0  0  0  0  0  0  0  0  0  0  0  # atno 4301 bound_to 2510
    2.4350   -7.4962    4.7907 LP  0  0  0  0  0  0  0  0  0  0  0  0  # atno 4302 bound_to 2510
   -2.7940  -18.0029   13.2391 LP  0  0  0  0  0  0  0  0  0  0  0  0  # atno 4306 bound_to 3712
   -2.8818  -17.6044   14.8203 LP  0  0  0  0  0  0  0  0  0  0  0  0  # atno 4307 bound_to 3712
    2.0379  -19.6383    8.3006 LP  0  0  0  0  0  0  0  0  0  0  0  0  # atno 4314 bound_to 3832
    3.1083  -20.8096    8.6866 LP  0  0  0  0  0  0  0  0  0  0  0  0  # atno 4315 bound_to 3832
   -4.3661  -23.3300   10.3335 LP  0  0  0  0  0  0  0  0  0  0  0  0  # atno 4318 bound_to 3762
   -5.5087  -22.1949   10.6030 LP  0  0  0  0  0  0  0  0  0  0  0  0  # atno 4319 bound_to 3762
   -5.5097   -5.2125    8.4867 LP  0  0  0  0  0  0  0  0  0  0  0  0  # atno 4320 bound_to 2467
   -4.0789   -4.8111    7.8095 LP  0  0  0  0  0  0  0  0  0  0  0  0  # atno 4321 bound_to 2467

> <Gold.Score>
     Score     S(PLP)   S(hbond)     S(cho)   S(metal)  DE(clash)   DE(tors)     intcor
     32.60     -26.69       1.99       0.00       0.00       0.00       0.62       1.18

> <Gold.PLP.Fitness>
32.5972

> <Gold.PLP.PLP>
-26.6855

> <Gold.PLP.part.hbond>
-2.0000

> <Gold.PLP.part.metal>
0.0000

> <Gold.PLP.part.buried>
-4.2666

> <Gold.PLP.part.nonpolar>
-21.1353

> <Gold.PLP.part.repulsive>
0.1582

> <Gold.PLP.ligand.clash>
0.0000

> <Gold.PLP.ligand.torsion>
0.6209

> <Gold.PLP.Chemscore.Hbond>
1.9913

> <Gold.PLP.Chemscore.CHOScore>
0.0000

> <Gold.PLP.Chemscore.Metal>
0.0000

> <Gold.Chemscore.Hbonds>
donor molecule, donor type, donor heavy atom, donor atom, acceptor molecule, acceptor atom, score
      L1  H     5    23       P1  1227  0.99
      P1  H  3832  3841       L1     7  1.00

> <Gold.PLP.Chemscore.Internal.Correction>
1.1798

