#       Name:                EN300-35009_i001
#       Creating user name   fsindt
#       Creation time:       Wed Mar  1 02:13:43 2023


#       File generated by GOLD software.
#

@<TRIPOS>MOLECULE
EN300-35009_i001|acide_3|mol2|8936|dock5
    23    24     1
SMALL
USER_CHARGES


@<TRIPOS>ATOM
      1 C1           0.8971 -14.7884   7.4237 C.3            1 <1>                0.0000
      2 C2           0.5270 -14.0197   8.6659 C.2            1 <1>                0.0000
      3 N3           0.2317 -14.6635   9.7897 N.2            1 <1>                0.0000
      4 C4          -0.0942 -14.0370  10.8900 C.2            1 <1>                0.0000
      5 N5          -0.1567 -12.6973  10.9725 N.am           1 <1>                0.0000
      6 C6           0.1234 -11.9369   9.8909 C.2            1 <1>                0.0000
      7 O7           0.0720 -10.7213   9.9460 O.2            1 <1>                0.0000
      8 C8           0.4969 -12.6250   8.6478 C.2            1 <1>                0.0000
      9 C9           0.8159 -11.8737   7.4295 C.2            1 <1>                0.0000
     10 O10          0.1971 -10.8524   7.1605 O.co2          1 <1>                0.0000
     11 O11          1.7010 -12.2680   6.6814 O.co2          1 <1>               -1.0000
     12 C12         -0.4133 -14.8515  12.1171 C.3            1 <1>                0.0000
     13 C13         -0.3514 -16.3749  11.9896 C.3            1 <1>                0.0000
     14 C14          0.7335 -15.6278  12.7678 C.3            1 <1>                0.0000
     15 H15          0.8693 -15.8572   7.6362 H              1 <1>                0.0000
     16 H16          0.1881 -14.5574   6.6287 H              1 <1>                0.0000
     17 H17          1.9016 -14.5068   7.1079 H              1 <1>                0.0000
     18 H18         -1.1744 -14.4321  12.7749 H              1 <1>                0.0000
     19 H19         -1.0717 -16.9577  12.5637 H              1 <1>                0.0000
     20 H20         -0.0798 -16.7881  11.0181 H              1 <1>                0.0000
     21 H21          1.7188 -15.5492  12.3084 H              1 <1>                0.0000
     22 H22          0.7270 -15.7189  13.8539 H              1 <1>                0.0000
     23 H23         -0.4038 -12.2750  11.8101 H              1 <1>                0.0000
@<TRIPOS>BOND
    1    1    2 1     
    2    1   15 1     
    3    1   16 1     
    4    1   17 1     
    5    2    3 1     
    6    2    8 2     
    7    3    4 2     
    8    4    5 1     
    9    4   12 1     
   10    5    6 am    
   11    5   23 1     
   12    6    7 2     
   13    6    8 1     
   14    8    9 1     
   15    9   10 ar    
   16    9   11 ar    
   17   12   13 1     
   18   12   14 1     
   19   12   18 1     
   20   13   14 1     
   21   13   19 1     
   22   13   20 1     
   23   14   21 1     
   24   14   22 1     
@<TRIPOS>SUBSTRUCTURE
      1 ****           1
@<TRIPOS>SET
DONOR_HYDROGENS      STATIC     ATOMS    <user>   **** ""
1 23
ATOM$RED        STATIC     ATOMS    COLORGROUP SYSTEM
1 23
@<TRIPOS>COMMENT
> <Gold.Version>
2022.2.0

> <Gold.Id.Protein>
3pbl|protein|mol2

> <Gold.Protein.RotatedTorsions>
[ 1303 1298 1297 1294 ] final   39.79 input  179.99 | X-H torsion
[ 2461 2456 2455 2452 ] final -116.43 input   30.03 | X-H torsion
[ 2515 2510 2509 2506 ] final  -21.95 input  -89.99 | X-H torsion
[ 3721 3712 3711 3710 ] final  112.87 input -179.91 | X-H torsion
[ 3841 3832 3831 3830 ] final    8.96 input -179.91 | X-H torsion
[ 3767 3762 3761 3758 ] final   42.98 input  -89.99 | X-H torsion
[ 2472 2467 2466 2463 ] final -141.17 input  -89.97 | X-H torsion

> <Gold.Protein.ActiveResidues>
 VAL82   VAL86   LEU89   PHE106  VAL107  ASP110  VAL111  MET112  CYS114  THR115 
 CYS181  SER182  ILE183  PHE188  VAL189  ILE190  SER192  SER193  SER196  TRP342 
 PHE345  PHE346  HIS349  VAL350  TYR365  THR369  GLY372  TYR373 

> <Gold.Protein.RotatedAtoms>
    3.7445  -10.2350    4.4370 H   0  0  0  0  0  0  0  0  0  0  0  0  # atno 1303 bound_to 1298
    0.5381   -9.1494    8.0151 H   0  0  0  0  0  0  0  0  0  0  0  0  # atno 2461 bound_to 2456
   -4.8440   -5.4640    9.3856 H   0  0  0  0  0  0  0  0  0  0  0  0  # atno 2472 bound_to 2467
    2.6783   -7.9041    4.4228 H   0  0  0  0  0  0  0  0  0  0  0  0  # atno 2515 bound_to 2510
   -2.9555  -17.3268   13.0310 H   0  0  0  0  0  0  0  0  0  0  0  0  # atno 3721 bound_to 3712
   -4.8065  -23.1724   10.0954 H   0  0  0  0  0  0  0  0  0  0  0  0  # atno 3767 bound_to 3762
    1.8213  -20.5858    9.5949 H   0  0  0  0  0  0  0  0  0  0  0  0  # atno 3841 bound_to 3832
    3.7060   -8.7225    3.8227 LP  0  0  0  0  0  0  0  0  0  0  0  0  # atno 4297 bound_to 1298
    4.9118   -9.1635    4.8318 LP  0  0  0  0  0  0  0  0  0  0  0  0  # atno 4298 bound_to 1298
    2.1025   -8.6883    8.1005 LP  0  0  0  0  0  0  0  0  0  0  0  0  # atno 4299 bound_to 2456
    1.0970   -7.9706    7.0326 LP  0  0  0  0  0  0  0  0  0  0  0  0  # atno 4300 bound_to 2456
    2.5862   -9.2570    5.3322 LP  0  0  0  0  0  0  0  0  0  0  0  0  # atno 4301 bound_to 2510
    2.0320   -7.8382    5.9207 LP  0  0  0  0  0  0  0  0  0  0  0  0  # atno 4302 bound_to 2510
   -2.6510  -18.0690   14.4218 LP  0  0  0  0  0  0  0  0  0  0  0  0  # atno 4306 bound_to 3712
   -3.4644  -16.6532   14.3967 LP  0  0  0  0  0  0  0  0  0  0  0  0  # atno 4307 bound_to 3712
    2.0118  -19.6362    8.3150 LP  0  0  0  0  0  0  0  0  0  0  0  0  # atno 4314 bound_to 3832
    3.1137  -20.7894    8.6651 LP  0  0  0  0  0  0  0  0  0  0  0  0  # atno 4315 bound_to 3832
   -5.3499  -21.9593   11.0440 LP  0  0  0  0  0  0  0  0  0  0  0  0  # atno 4318 bound_to 3762
   -3.9710  -22.7435   11.4314 LP  0  0  0  0  0  0  0  0  0  0  0  0  # atno 4319 bound_to 3762
   -5.2138   -4.9603    7.8770 LP  0  0  0  0  0  0  0  0  0  0  0  0  # atno 4320 bound_to 2467
   -3.6592   -4.9693    8.3767 LP  0  0  0  0  0  0  0  0  0  0  0  0  # atno 4321 bound_to 2467

> <Gold.Score>
     Score     S(PLP)   S(hbond)     S(cho)   S(metal)  DE(clash)   DE(tors)     intcor
     36.41     -34.13       0.80       0.00       0.00       0.08       0.61       1.18

> <Gold.PLP.Fitness>
36.4092

> <Gold.PLP.PLP>
-34.1251

> <Gold.PLP.part.hbond>
-1.4243

> <Gold.PLP.part.metal>
0.0000

> <Gold.PLP.part.buried>
-2.3526

> <Gold.PLP.part.nonpolar>
-30.7911

> <Gold.PLP.part.repulsive>
0.2315

> <Gold.PLP.ligand.clash>
0.0815

> <Gold.PLP.ligand.torsion>
0.6071

> <Gold.PLP.Chemscore.Hbond>
0.8000

> <Gold.PLP.Chemscore.CHOScore>
0.0000

> <Gold.PLP.Chemscore.Metal>
0.0000

> <Gold.Chemscore.Hbonds>
donor molecule, donor type, donor heavy atom, donor atom, acceptor molecule, acceptor atom, score
      P1  H  2456  2461       L1    10  0.80

> <Gold.PLP.Chemscore.Internal.Correction>
1.1798

