#       Name:                EN300-35009_i001
#       Creating user name   fsindt
#       Creation time:       Wed Mar  1 02:13:41 2023


#       File generated by GOLD software.
#

@<TRIPOS>MOLECULE
EN300-35009_i001|acide_3|mol2|8936|dock1
    23    24     1
SMALL
USER_CHARGES


@<TRIPOS>ATOM
      1 C1          -1.3879 -11.7434  10.7610 C.3            1 <1>                0.0000
      2 C2          -0.5128 -12.9558  10.5730 C.2            1 <1>                0.0000
      3 N3          -0.5427 -13.9475  11.4564 N.2            1 <1>                0.0000
      4 C4           0.1986 -15.0173  11.3324 C.2            1 <1>                0.0000
      5 N5           1.0470 -15.1991  10.3064 N.am           1 <1>                0.0000
      6 C6           1.1620 -14.2556   9.3456 C.2            1 <1>                0.0000
      7 O7           1.9255 -14.4023   8.4080 O.2            1 <1>                0.0000
      8 C8           0.3318 -13.0497   9.4666 C.2            1 <1>                0.0000
      9 C9           0.3965 -11.9788   8.4668 C.2            1 <1>                0.0000
     10 O10          0.3303 -10.8082   8.8186 O.co2          1 <1>                0.0000
     11 O11          0.5168 -12.2555   7.2805 O.co2          1 <1>               -1.0000
     12 C12          0.0977 -16.0915  12.3847 C.3            1 <1>                0.0000
     13 C13          1.3652 -16.4312  13.1713 C.3            1 <1>                0.0000
     14 C14          0.2285 -15.6622  13.8474 C.3            1 <1>                0.0000
     15 H15         -1.9744 -11.8565  11.6727 H              1 <1>                0.0000
     16 H16         -0.7636 -10.8533  10.8385 H              1 <1>                0.0000
     17 H17         -2.0586 -11.6435   9.9076 H              1 <1>                0.0000
     18 H18         -0.5884 -16.9077  12.1588 H              1 <1>                0.0000
     19 H19          1.5129 -17.4709  13.4632 H              1 <1>                0.0000
     20 H20          2.2722 -15.8778  12.9278 H              1 <1>                0.0000
     21 H21          0.3874 -14.6028  14.0487 H              1 <1>                0.0000
     22 H22         -0.3719 -16.1959  14.5841 H              1 <1>                0.0000
     23 H23          1.5783 -16.0090  10.2554 H              1 <1>                0.0000
@<TRIPOS>BOND
    1    1    2 1     
    2    1   15 1     
    3    1   16 1     
    4    1   17 1     
    5    2    3 1     
    6    2    8 2     
    7    3    4 2     
    8    4    5 1     
    9    4   12 1     
   10    5    6 am    
   11    5   23 1     
   12    6    7 2     
   13    6    8 1     
   14    8    9 1     
   15    9   10 ar    
   16    9   11 ar    
   17   12   13 1     
   18   12   14 1     
   19   12   18 1     
   20   13   14 1     
   21   13   19 1     
   22   13   20 1     
   23   14   21 1     
   24   14   22 1     
@<TRIPOS>SUBSTRUCTURE
      1 ****           1
@<TRIPOS>SET
DONOR_HYDROGENS      STATIC     ATOMS    <user>   **** ""
1 23
ATOM$RED        STATIC     ATOMS    COLORGROUP SYSTEM
1 23
@<TRIPOS>COMMENT
> <Gold.Version>
2022.2.0

> <Gold.Id.Protein>
3pbl|protein|mol2

> <Gold.Protein.RotatedTorsions>
[ 1303 1298 1297 1294 ] final    5.27 input  179.99 | X-H torsion
[ 2461 2456 2455 2452 ] final -131.87 input   30.03 | X-H torsion
[ 2515 2510 2509 2506 ] final   52.32 input  -89.99 | X-H torsion
[ 3721 3712 3711 3710 ] final -136.05 input -179.91 | X-H torsion
[ 3841 3832 3831 3830 ] final  -97.44 input -179.91 | X-H torsion
[ 3767 3762 3761 3758 ] final  -79.36 input  -89.99 | X-H torsion
[ 2472 2467 2466 2463 ] final  148.35 input  -89.97 | X-H torsion

> <Gold.Protein.ActiveResidues>
 VAL82   VAL86   LEU89   PHE106  VAL107  ASP110  VAL111  MET112  CYS114  THR115 
 CYS181  SER182  ILE183  PHE188  VAL189  ILE190  SER192  SER193  SER196  TRP342 
 PHE345  PHE346  HIS349  VAL350  TYR365  THR369  GLY372  TYR373 

> <Gold.Protein.RotatedAtoms>
    3.4163   -9.9390    4.0941 H   0  0  0  0  0  0  0  0  0  0  0  0  # atno 1303 bound_to 1298
    0.7182   -9.2400    8.1685 H   0  0  0  0  0  0  0  0  0  0  0  0  # atno 2461 bound_to 2456
   -5.5090   -5.2378    8.5548 H   0  0  0  0  0  0  0  0  0  0  0  0  # atno 2472 bound_to 2467
    2.1911   -7.4286    5.3346 H   0  0  0  0  0  0  0  0  0  0  0  0  # atno 2515 bound_to 2510
   -3.2885  -16.5653   14.1927 H   0  0  0  0  0  0  0  0  0  0  0  0  # atno 3721 bound_to 3712
   -5.3294  -21.9491   11.0751 H   0  0  0  0  0  0  0  0  0  0  0  0  # atno 3767 bound_to 3762
    1.9354  -19.5924    8.6348 H   0  0  0  0  0  0  0  0  0  0  0  0  # atno 3841 bound_to 3832
    4.1609   -8.4866    4.0473 LP  0  0  0  0  0  0  0  0  0  0  0  0  # atno 4297 bound_to 1298
    4.7852   -9.6955    4.9503 LP  0  0  0  0  0  0  0  0  0  0  0  0  # atno 4298 bound_to 1298
    2.1575   -8.5041    7.9357 LP  0  0  0  0  0  0  0  0  0  0  0  0  # atno 4299 bound_to 2456
    0.8620   -8.0643    7.0441 LP  0  0  0  0  0  0  0  0  0  0  0  0  # atno 4300 bound_to 2456
    2.8331   -8.6202    4.4215 LP  0  0  0  0  0  0  0  0  0  0  0  0  # atno 4301 bound_to 2510
    2.2726   -8.9508    5.9192 LP  0  0  0  0  0  0  0  0  0  0  0  0  # atno 4302 bound_to 2510
   -3.0568  -17.5854   12.9747 LP  0  0  0  0  0  0  0  0  0  0  0  0  # atno 4306 bound_to 3712
   -2.6742  -18.0160   14.5027 LP  0  0  0  0  0  0  0  0  0  0  0  0  # atno 4307 bound_to 3712
    3.1283  -20.6621    8.5422 LP  0  0  0  0  0  0  0  0  0  0  0  0  # atno 4314 bound_to 3832
    1.8654  -20.9110    9.5470 LP  0  0  0  0  0  0  0  0  0  0  0  0  # atno 4315 bound_to 3832
   -3.9588  -22.7719   11.4086 LP  0  0  0  0  0  0  0  0  0  0  0  0  # atno 4318 bound_to 3762
   -4.8394  -23.1538   10.0875 LP  0  0  0  0  0  0  0  0  0  0  0  0  # atno 4319 bound_to 3762
   -4.1420   -4.8050    7.7736 LP  0  0  0  0  0  0  0  0  0  0  0  0  # atno 4320 bound_to 2467
   -4.0661   -5.3507    9.3108 LP  0  0  0  0  0  0  0  0  0  0  0  0  # atno 4321 bound_to 2467

> <Gold.Score>
     Score     S(PLP)   S(hbond)     S(cho)   S(metal)  DE(clash)   DE(tors)     intcor
     43.60     -37.72       2.00       0.00       0.00       0.00       0.65       1.19

> <Gold.PLP.Fitness>
43.6042

> <Gold.PLP.PLP>
-37.7165

> <Gold.PLP.part.hbond>
-2.0000

> <Gold.PLP.part.metal>
0.0000

> <Gold.PLP.part.buried>
-6.4546

> <Gold.PLP.part.nonpolar>
-31.2167

> <Gold.PLP.part.repulsive>
0.2603

> <Gold.PLP.ligand.clash>
0.0000

> <Gold.PLP.ligand.torsion>
0.6533

> <Gold.PLP.Chemscore.Hbond>
2.0000

> <Gold.PLP.Chemscore.CHOScore>
0.0000

> <Gold.PLP.Chemscore.Metal>
0.0000

> <Gold.Chemscore.Hbonds>
donor molecule, donor type, donor heavy atom, donor atom, acceptor molecule, acceptor atom, score
      L1  H     5    23       P1  1227  1.00
      P1  H  2456  2461       L1    10  1.00

> <Gold.PLP.Chemscore.Internal.Correction>
1.1943

