#       Name:                EN300-35009_i001
#       Creating user name   fsindt
#       Creation time:       Wed Mar  1 02:13:47 2023


#       File generated by GOLD software.
#

@<TRIPOS>MOLECULE
EN300-35009_i001|acide_3|mol2|8936|dock12
    23    24     1
SMALL
USER_CHARGES


@<TRIPOS>ATOM
      1 C1           0.1120 -16.3360  12.6253 C.3            1 <1>                0.0000
      2 C2          -0.0421 -16.4337  11.1294 C.2            1 <1>                0.0000
      3 N3           0.0707 -15.3485  10.3716 N.2            1 <1>                0.0000
      4 C4          -0.0551 -15.3875   9.0708 C.2            1 <1>                0.0000
      5 N5          -0.3079 -16.5231   8.3986 N.am           1 <1>                0.0000
      6 C6          -0.4429 -17.6909   9.0654 C.2            1 <1>                0.0000
      7 O7          -0.6722 -18.7304   8.4737 O.2            1 <1>                0.0000
      8 C8          -0.2987 -17.6657  10.5272 C.2            1 <1>                0.0000
      9 C9          -0.4306 -18.8890  11.3252 C.2            1 <1>                0.0000
     10 O10          0.0350 -19.9428  10.9115 O.co2          1 <1>                0.0000
     11 O11         -1.0062 -18.8561  12.4050 O.co2          1 <1>               -1.0000
     12 C12          0.0890 -14.1049   8.2928 C.3            1 <1>                0.0000
     13 C13          1.2914 -13.9787   7.3552 C.3            1 <1>                0.0000
     14 C14         -0.1121 -14.1712   6.7775 C.3            1 <1>                0.0000
     15 H15          0.3117 -15.3011  12.9031 H              1 <1>                0.0000
     16 H16         -0.8061 -16.6711  13.1078 H              1 <1>                0.0000
     17 H17          0.9421 -16.9651  12.9470 H              1 <1>                0.0000
     18 H18         -0.2456 -13.2035   8.8062 H              1 <1>                0.0000
     19 H19          1.7477 -12.9942   7.2516 H              1 <1>                0.0000
     20 H20          1.9783 -14.8233   7.3010 H              1 <1>                0.0000
     21 H21         -0.3488 -15.1426   6.3433 H              1 <1>                0.0000
     22 H22         -0.5794 -13.3135   6.2938 H              1 <1>                0.0000
     23 H23         -0.3940 -16.5047   7.4326 H              1 <1>                0.0000
@<TRIPOS>BOND
    1    1    2 1     
    2    1   15 1     
    3    1   16 1     
    4    1   17 1     
    5    2    3 1     
    6    2    8 2     
    7    3    4 2     
    8    4    5 1     
    9    4   12 1     
   10    5    6 am    
   11    5   23 1     
   12    6    7 2     
   13    6    8 1     
   14    8    9 1     
   15    9   10 ar    
   16    9   11 ar    
   17   12   13 1     
   18   12   14 1     
   19   12   18 1     
   20   13   14 1     
   21   13   19 1     
   22   13   20 1     
   23   14   21 1     
   24   14   22 1     
@<TRIPOS>SUBSTRUCTURE
      1 ****           1
@<TRIPOS>SET
DONOR_HYDROGENS      STATIC     ATOMS    <user>   **** ""
1 23
ATOM$RED        STATIC     ATOMS    COLORGROUP SYSTEM
1 23
@<TRIPOS>COMMENT
> <Gold.Version>
2022.2.0

> <Gold.Id.Protein>
3pbl|protein|mol2

> <Gold.Protein.RotatedTorsions>
[ 1303 1298 1297 1294 ] final   84.38 input  179.99 | X-H torsion
[ 2461 2456 2455 2452 ] final  147.21 input   30.03 | X-H torsion
[ 2515 2510 2509 2506 ] final  128.73 input  -89.99 | X-H torsion
[ 3721 3712 3711 3710 ] final   46.41 input -179.91 | X-H torsion
[ 3841 3832 3831 3830 ] final  -13.91 input -179.91 | X-H torsion
[ 3767 3762 3761 3758 ] final  -87.71 input  -89.99 | X-H torsion
[ 2472 2467 2466 2463 ] final   60.76 input  -89.97 | X-H torsion

> <Gold.Protein.ActiveResidues>
 VAL82   VAL86   LEU89   PHE106  VAL107  ASP110  VAL111  MET112  CYS114  THR115 
 CYS181  SER182  ILE183  PHE188  VAL189  ILE190  SER192  SER193  SER196  TRP342 
 PHE345  PHE346  HIS349  VAL350  TYR365  THR369  GLY372  TYR373 

> <Gold.Protein.RotatedAtoms>
    4.3413  -10.1658    4.8249 H   0  0  0  0  0  0  0  0  0  0  0  0  # atno 1303 bound_to 1298
    1.9014   -8.9541    8.2959 H   0  0  0  0  0  0  0  0  0  0  0  0  # atno 2461 bound_to 2456
   -4.6554   -4.8213    7.6598 H   0  0  0  0  0  0  0  0  0  0  0  0  # atno 2472 bound_to 2467
    2.0612   -8.3061    6.0910 H   0  0  0  0  0  0  0  0  0  0  0  0  # atno 2515 bound_to 2510
   -2.5293  -17.9884   13.5618 H   0  0  0  0  0  0  0  0  0  0  0  0  # atno 3721 bound_to 3712
   -5.2490  -21.9242   11.1836 H   0  0  0  0  0  0  0  0  0  0  0  0  # atno 3767 bound_to 3762
    1.6357  -20.3233    9.4748 H   0  0  0  0  0  0  0  0  0  0  0  0  # atno 3841 bound_to 3832
    3.3524   -9.3443    3.8182 LP  0  0  0  0  0  0  0  0  0  0  0  0  # atno 4297 bound_to 1298
    4.6684   -8.6110    4.4482 LP  0  0  0  0  0  0  0  0  0  0  0  0  # atno 4298 bound_to 1298
    1.4717   -7.9169    7.1097 LP  0  0  0  0  0  0  0  0  0  0  0  0  # atno 4299 bound_to 2456
    0.3649   -8.9373    7.7427 LP  0  0  0  0  0  0  0  0  0  0  0  0  # atno 4300 bound_to 2456
    2.4805   -7.5460    4.7082 LP  0  0  0  0  0  0  0  0  0  0  0  0  # atno 4301 bound_to 2510
    2.7551   -9.1470    4.8756 LP  0  0  0  0  0  0  0  0  0  0  0  0  # atno 4302 bound_to 2510
   -3.0971  -17.2233   14.8541 LP  0  0  0  0  0  0  0  0  0  0  0  0  # atno 4306 bound_to 3712
   -3.5105  -16.7351   13.3517 LP  0  0  0  0  0  0  0  0  0  0  0  0  # atno 4307 bound_to 3712
    2.3550  -19.7168    8.1746 LP  0  0  0  0  0  0  0  0  0  0  0  0  # atno 4314 bound_to 3832
    2.9849  -21.0120    8.9442 LP  0  0  0  0  0  0  0  0  0  0  0  0  # atno 4315 bound_to 3832
   -3.9257  -22.8713   11.3199 LP  0  0  0  0  0  0  0  0  0  0  0  0  # atno 4318 bound_to 3762
   -4.9529  -23.0792   10.0677 LP  0  0  0  0  0  0  0  0  0  0  0  0  # atno 4319 bound_to 3762
   -3.7218   -5.1827    8.9498 LP  0  0  0  0  0  0  0  0  0  0  0  0  # atno 4320 bound_to 2467
   -5.3397   -5.3894    9.0293 LP  0  0  0  0  0  0  0  0  0  0  0  0  # atno 4321 bound_to 2467

> <Gold.Score>
     Score     S(PLP)   S(hbond)     S(cho)   S(metal)  DE(clash)   DE(tors)     intcor
     38.13     -32.85       1.80       0.00       0.00       0.00       0.64       1.18

> <Gold.PLP.Fitness>
38.1315

> <Gold.PLP.PLP>
-32.8481

> <Gold.PLP.part.hbond>
-1.9874

> <Gold.PLP.part.metal>
0.0000

> <Gold.PLP.part.buried>
-2.8365

> <Gold.PLP.part.nonpolar>
-29.3062

> <Gold.PLP.part.repulsive>
0.2804

> <Gold.PLP.ligand.clash>
0.0000

> <Gold.PLP.ligand.torsion>
0.6425

> <Gold.PLP.Chemscore.Hbond>
1.7963

> <Gold.PLP.Chemscore.CHOScore>
0.0000

> <Gold.PLP.Chemscore.Metal>
0.0000

> <Gold.Chemscore.Hbonds>
donor molecule, donor type, donor heavy atom, donor atom, acceptor molecule, acceptor atom, score
      P1  H  3712  3721       L1    11  1.00
      P1  H  3832  3841       L1    10  0.80

> <Gold.PLP.Chemscore.Internal.Correction>
1.1798

