#       Name:                EN300-35009_i001
#       Creating user name   fsindt
#       Creation time:       Wed Mar  1 02:13:46 2023


#       File generated by GOLD software.
#

@<TRIPOS>MOLECULE
EN300-35009_i001|acide_3|mol2|8936|dock10
    23    24     1
SMALL
USER_CHARGES


@<TRIPOS>ATOM
      1 C1          -1.0730 -18.6694   8.6332 C.3            1 <1>                0.0000
      2 C2          -0.5428 -17.4424   9.3292 C.2            1 <1>                0.0000
      3 N3          -0.2278 -16.3581   8.6293 N.2            1 <1>                0.0000
      4 C4           0.2347 -15.2723   9.1919 C.2            1 <1>                0.0000
      5 N5           0.4282 -15.1660  10.5173 N.am           1 <1>                0.0000
      6 C6           0.1422 -16.2069  11.3306 C.2            1 <1>                0.0000
      7 O7           0.3110 -16.1296  12.5343 O.2            1 <1>                0.0000
      8 C8          -0.3838 -17.4327  10.7152 C.2            1 <1>                0.0000
      9 C9          -0.7192 -18.6071  11.5269 C.2            1 <1>                0.0000
     10 O10         -1.3023 -18.4674  12.5941 O.co2          1 <1>                0.0000
     11 O11         -0.4162 -19.7273  11.1371 O.co2          1 <1>               -1.0000
     12 C12          0.5650 -14.0905   8.3170 C.3            1 <1>                0.0000
     13 C13         -0.5325 -13.5728   7.3852 C.3            1 <1>                0.0000
     14 C14         -0.1372 -12.7662   8.6238 C.3            1 <1>                0.0000
     15 H15         -1.1299 -18.4826   7.5608 H              1 <1>                0.0000
     16 H16         -0.4056 -19.5104   8.8207 H              1 <1>                0.0000
     17 H17         -2.0672 -18.9024   9.0146 H              1 <1>                0.0000
     18 H18          1.5932 -14.0440   7.9582 H              1 <1>                0.0000
     19 H19         -0.2263 -13.1853   6.4135 H              1 <1>                0.0000
     20 H20         -1.4935 -14.0868   7.4049 H              1 <1>                0.0000
     21 H21         -0.8379 -12.7497   9.4584 H              1 <1>                0.0000
     22 H22          0.4291 -11.8482   8.4670 H              1 <1>                0.0000
     23 H23          0.7742 -14.3406  10.8912 H              1 <1>                0.0000
@<TRIPOS>BOND
    1    1    2 1     
    2    1   15 1     
    3    1   16 1     
    4    1   17 1     
    5    2    3 1     
    6    2    8 2     
    7    3    4 2     
    8    4    5 1     
    9    4   12 1     
   10    5    6 am    
   11    5   23 1     
   12    6    7 2     
   13    6    8 1     
   14    8    9 1     
   15    9   10 ar    
   16    9   11 ar    
   17   12   13 1     
   18   12   14 1     
   19   12   18 1     
   20   13   14 1     
   21   13   19 1     
   22   13   20 1     
   23   14   21 1     
   24   14   22 1     
@<TRIPOS>SUBSTRUCTURE
      1 ****           1
@<TRIPOS>SET
DONOR_HYDROGENS      STATIC     ATOMS    <user>   **** ""
1 23
ATOM$RED        STATIC     ATOMS    COLORGROUP SYSTEM
1 23
@<TRIPOS>COMMENT
> <Gold.Version>
2022.2.0

> <Gold.Id.Protein>
3pbl|protein|mol2

> <Gold.Protein.RotatedTorsions>
[ 1303 1298 1297 1294 ] final  119.94 input  179.99 | X-H torsion
[ 2461 2456 2455 2452 ] final   43.31 input   30.03 | X-H torsion
[ 2515 2510 2509 2506 ] final   98.66 input  -89.99 | X-H torsion
[ 3721 3712 3711 3710 ] final   56.22 input -179.91 | X-H torsion
[ 3841 3832 3831 3830 ] final  121.96 input -179.91 | X-H torsion
[ 3767 3762 3761 3758 ] final -167.60 input  -89.99 | X-H torsion
[ 2472 2467 2466 2463 ] final -171.30 input  -89.97 | X-H torsion

> <Gold.Protein.ActiveResidues>
 VAL82   VAL86   LEU89   PHE106  VAL107  ASP110  VAL111  MET112  CYS114  THR115 
 CYS181  SER182  ILE183  PHE188  VAL189  ILE190  SER192  SER193  SER196  TRP342 
 PHE345  PHE346  HIS349  VAL350  TYR365  THR369  GLY372  TYR373 

> <Gold.Protein.RotatedAtoms>
    4.7419   -9.7719    4.9505 H   0  0  0  0  0  0  0  0  0  0  0  0  # atno 1303 bound_to 1298
    1.7089   -7.9463    7.2219 H   0  0  0  0  0  0  0  0  0  0  0  0  # atno 2461 bound_to 2456
   -5.2578   -5.4165    9.1274 H   0  0  0  0  0  0  0  0  0  0  0  0  # atno 2472 bound_to 2467
    2.0318   -7.8467    5.9261 H   0  0  0  0  0  0  0  0  0  0  0  0  # atno 2515 bound_to 2510
   -2.5721  -17.9340   13.4309 H   0  0  0  0  0  0  0  0  0  0  0  0  # atno 3721 bound_to 3712
   -4.2197  -22.3835   11.6260 H   0  0  0  0  0  0  0  0  0  0  0  0  # atno 3767 bound_to 3762
    3.0905  -20.7071    8.9176 H   0  0  0  0  0  0  0  0  0  0  0  0  # atno 3841 bound_to 3832
    3.3859   -9.8719    4.0463 LP  0  0  0  0  0  0  0  0  0  0  0  0  # atno 4297 bound_to 1298
    4.2341   -8.4773    4.0946 LP  0  0  0  0  0  0  0  0  0  0  0  0  # atno 4298 bound_to 1298
    0.3306   -8.7581    7.5517 LP  0  0  0  0  0  0  0  0  0  0  0  0  # atno 4299 bound_to 2456
    1.6984   -9.1036    8.3743 LP  0  0  0  0  0  0  0  0  0  0  0  0  # atno 4300 bound_to 2456
    2.6749   -7.8952    4.4261 LP  0  0  0  0  0  0  0  0  0  0  0  0  # atno 4301 bound_to 2510
    2.5903   -9.2574    5.3228 LP  0  0  0  0  0  0  0  0  0  0  0  0  # atno 4302 bound_to 2510
   -3.0152  -17.3646   14.8652 LP  0  0  0  0  0  0  0  0  0  0  0  0  # atno 4306 bound_to 3712
   -3.5430  -16.6567   13.4916 LP  0  0  0  0  0  0  0  0  0  0  0  0  # atno 4307 bound_to 3712
    1.5883  -20.6436    9.4792 LP  0  0  0  0  0  0  0  0  0  0  0  0  # atno 4314 bound_to 3832
    2.0711  -19.6419    8.2833 LP  0  0  0  0  0  0  0  0  0  0  0  0  # atno 4315 bound_to 3832
   -4.4032  -23.3246   10.3040 LP  0  0  0  0  0  0  0  0  0  0  0  0  # atno 4318 bound_to 3762
   -5.5043  -22.1669   10.6413 LP  0  0  0  0  0  0  0  0  0  0  0  0  # atno 4319 bound_to 3762
   -4.7838   -4.8401    7.6750 LP  0  0  0  0  0  0  0  0  0  0  0  0  # atno 4320 bound_to 2467
   -3.6754   -5.1369    8.8369 LP  0  0  0  0  0  0  0  0  0  0  0  0  # atno 4321 bound_to 2467

> <Gold.Score>
     Score     S(PLP)   S(hbond)     S(cho)   S(metal)  DE(clash)   DE(tors)     intcor
     35.53     -32.77       1.00       0.00       0.00       0.00       0.71       1.18

> <Gold.PLP.Fitness>
35.5252

> <Gold.PLP.PLP>
-32.7651

> <Gold.PLP.part.hbond>
-1.0000

> <Gold.PLP.part.metal>
0.0000

> <Gold.PLP.part.buried>
-3.3006

> <Gold.PLP.part.nonpolar>
-30.1571

> <Gold.PLP.part.repulsive>
0.2472

> <Gold.PLP.ligand.clash>
0.0000

> <Gold.PLP.ligand.torsion>
0.7099

> <Gold.PLP.Chemscore.Hbond>
1.0000

> <Gold.PLP.Chemscore.CHOScore>
0.0000

> <Gold.PLP.Chemscore.Metal>
0.0000

> <Gold.Chemscore.Hbonds>
donor molecule, donor type, donor heavy atom, donor atom, acceptor molecule, acceptor atom, score
      P1  H  3712  3721       L1    10  1.00

> <Gold.PLP.Chemscore.Internal.Correction>
1.1798

