#       Name:                EN300-35009_i001
#       Creating user name   fsindt
#       Creation time:       Wed Mar  1 02:13:48 2023


#       File generated by GOLD software.
#

@<TRIPOS>MOLECULE
EN300-35009_i001|acide_3|mol2|8936|dock14
    23    24     1
SMALL
USER_CHARGES


@<TRIPOS>ATOM
      1 C1           0.4005 -13.5571   8.0314 C.3            1 <1>                0.0000
      2 C2          -0.1031 -13.3071   9.4295 C.2            1 <1>                0.0000
      3 N3          -0.0813 -14.2799  10.3339 N.2            1 <1>                0.0000
      4 C4          -0.5077 -14.1070  11.5577 C.2            1 <1>                0.0000
      5 N5          -1.0004 -12.9369  11.9975 N.am           1 <1>                0.0000
      6 C6          -1.0715 -11.8746  11.1649 C.2            1 <1>                0.0000
      7 O7          -1.5150 -10.8059  11.5451 O.2            1 <1>                0.0000
      8 C8          -0.5912 -12.0502   9.7877 C.2            1 <1>                0.0000
      9 C9          -0.6334 -10.9477   8.8216 C.2            1 <1>                0.0000
     10 O10          0.2725 -10.8102   8.0099 O.co2          1 <1>                0.0000
     11 O11         -1.5747 -10.1651   8.8268 O.co2          1 <1>               -1.0000
     12 C12         -0.4441 -15.2691  12.5152 C.3            1 <1>                0.0000
     13 C13          0.1839 -16.5688  12.0080 C.3            1 <1>                0.0000
     14 C14          0.9369 -15.6976  13.0155 C.3            1 <1>                0.0000
     15 H15          0.7423 -14.5887   7.9474 H              1 <1>                0.0000
     16 H16         -0.4050 -13.3819   7.3183 H              1 <1>                0.0000
     17 H17          1.2287 -12.8815   7.8173 H              1 <1>                0.0000
     18 H18         -1.2795 -15.3516  13.2105 H              1 <1>                0.0000
     19 H19         -0.2382 -17.5064  12.3699 H              1 <1>                0.0000
     20 H20          0.5511 -16.5835  10.9818 H              1 <1>                0.0000
     21 H21          1.7994 -15.1391  12.6521 H              1 <1>                0.0000
     22 H22          1.0102 -16.0620  14.0401 H              1 <1>                0.0000
     23 H23         -1.3061 -12.8544  12.9143 H              1 <1>                0.0000
@<TRIPOS>BOND
    1    1    2 1     
    2    1   15 1     
    3    1   16 1     
    4    1   17 1     
    5    2    3 1     
    6    2    8 2     
    7    3    4 2     
    8    4    5 1     
    9    4   12 1     
   10    5    6 am    
   11    5   23 1     
   12    6    7 2     
   13    6    8 1     
   14    8    9 1     
   15    9   10 ar    
   16    9   11 ar    
   17   12   13 1     
   18   12   14 1     
   19   12   18 1     
   20   13   14 1     
   21   13   19 1     
   22   13   20 1     
   23   14   21 1     
   24   14   22 1     
@<TRIPOS>SUBSTRUCTURE
      1 ****           1
@<TRIPOS>SET
DONOR_HYDROGENS      STATIC     ATOMS    <user>   **** ""
1 23
ATOM$RED        STATIC     ATOMS    COLORGROUP SYSTEM
1 23
@<TRIPOS>COMMENT
> <Gold.Version>
2022.2.0

> <Gold.Id.Protein>
3pbl|protein|mol2

> <Gold.Protein.RotatedTorsions>
[ 1303 1298 1297 1294 ] final  -17.04 input  179.99 | X-H torsion
[ 2461 2456 2455 2452 ] final -119.95 input   30.03 | X-H torsion
[ 2515 2510 2509 2506 ] final -160.21 input  -89.99 | X-H torsion
[ 3721 3712 3711 3710 ] final   35.87 input -179.91 | X-H torsion
[ 3841 3832 3831 3830 ] final   26.19 input -179.91 | X-H torsion
[ 3767 3762 3761 3758 ] final  -70.48 input  -89.99 | X-H torsion
[ 2472 2467 2466 2463 ] final   49.80 input  -89.97 | X-H torsion

> <Gold.Protein.ActiveResidues>
 VAL82   VAL86   LEU89   PHE106  VAL107  ASP110  VAL111  MET112  CYS114  THR115 
 CYS181  SER182  ILE183  PHE188  VAL189  ILE190  SER192  SER193  SER196  TRP342 
 PHE345  PHE346  HIS349  VAL350  TYR365  THR369  GLY372  TYR373 

> <Gold.Protein.RotatedAtoms>
    3.3322   -9.6318    3.9165 H   0  0  0  0  0  0  0  0  0  0  0  0  # atno 1303 bound_to 1298
    0.5751   -9.1738    8.0524 H   0  0  0  0  0  0  0  0  0  0  0  0  # atno 2461 bound_to 2456
   -4.4764   -4.8043    7.6673 H   0  0  0  0  0  0  0  0  0  0  0  0  # atno 2472 bound_to 2467
    2.4618   -9.1982    5.5976 H   0  0  0  0  0  0  0  0  0  0  0  0  # atno 2515 bound_to 2510
   -2.4955  -18.0239   13.7132 H   0  0  0  0  0  0  0  0  0  0  0  0  # atno 3721 bound_to 3712
   -5.4005  -21.9913   10.9546 H   0  0  0  0  0  0  0  0  0  0  0  0  # atno 3767 bound_to 3762
    2.0180  -20.7527    9.6225 H   0  0  0  0  0  0  0  0  0  0  0  0  # atno 3841 bound_to 3832
    4.4579   -8.4996    4.2587 LP  0  0  0  0  0  0  0  0  0  0  0  0  # atno 4297 bound_to 1298
    4.5724   -9.9898    4.9166 LP  0  0  0  0  0  0  0  0  0  0  0  0  # atno 4298 bound_to 1298
    2.1207   -8.6463    8.0650 LP  0  0  0  0  0  0  0  0  0  0  0  0  # atno 4299 bound_to 2456
    1.0418   -7.9882    7.0308 LP  0  0  0  0  0  0  0  0  0  0  0  0  # atno 4300 bound_to 2456
    2.0688   -7.6183    5.7211 LP  0  0  0  0  0  0  0  0  0  0  0  0  # atno 4301 bound_to 2510
    2.7661   -8.1821    4.3564 LP  0  0  0  0  0  0  0  0  0  0  0  0  # atno 4302 bound_to 2510
   -3.1848  -17.0769   14.8114 LP  0  0  0  0  0  0  0  0  0  0  0  0  # atno 4306 bound_to 3712
   -3.4618  -16.8405   13.2195 LP  0  0  0  0  0  0  0  0  0  0  0  0  # atno 4307 bound_to 3712
    1.7759  -19.6544    8.4773 LP  0  0  0  0  0  0  0  0  0  0  0  0  # atno 4314 bound_to 3832
    3.1223  -20.5784    8.4709 LP  0  0  0  0  0  0  0  0  0  0  0  0  # atno 4315 bound_to 3832
   -4.0116  -22.6628   11.4901 LP  0  0  0  0  0  0  0  0  0  0  0  0  # atno 4318 bound_to 3762
   -4.7155  -23.2208   10.1264 LP  0  0  0  0  0  0  0  0  0  0  0  0  # atno 4319 bound_to 3762
   -3.8124   -5.2442    9.0927 LP  0  0  0  0  0  0  0  0  0  0  0  0  # atno 4320 bound_to 2467
   -5.4282   -5.3449    8.8790 LP  0  0  0  0  0  0  0  0  0  0  0  0  # atno 4321 bound_to 2467

> <Gold.Score>
     Score     S(PLP)   S(hbond)     S(cho)   S(metal)  DE(clash)   DE(tors)     intcor
     36.12     -33.30       1.00       0.00       0.00       0.00       0.68       1.18

> <Gold.PLP.Fitness>
36.1202

> <Gold.PLP.PLP>
-33.3028

> <Gold.PLP.part.hbond>
-1.0164

> <Gold.PLP.part.metal>
0.0000

> <Gold.PLP.part.buried>
-3.8634

> <Gold.PLP.part.nonpolar>
-29.5844

> <Gold.PLP.part.repulsive>
0.3501

> <Gold.PLP.ligand.clash>
0.0000

> <Gold.PLP.ligand.torsion>
0.6812

> <Gold.PLP.Chemscore.Hbond>
1.0000

> <Gold.PLP.Chemscore.CHOScore>
0.0000

> <Gold.PLP.Chemscore.Metal>
0.0000

> <Gold.Chemscore.Hbonds>
donor molecule, donor type, donor heavy atom, donor atom, acceptor molecule, acceptor atom, score
      P1  H  2456  2461       L1    10  1.00

> <Gold.PLP.Chemscore.Internal.Correction>
1.1798

