#       Name:                EN300-35009_i001
#       Creating user name   fsindt
#       Creation time:       Wed Mar  1 02:13:41 2023


#       File generated by GOLD software.
#

@<TRIPOS>MOLECULE
EN300-35009_i001
    23    24     1
SMALL
USER_CHARGES


@<TRIPOS>ATOM
      1 C1          -1.5871   2.1802  -0.0199 C.3            1 <1>                0.0000
      2 C2          -1.0834   0.7599  -0.0293 C.2            1 <1>                0.0000
      3 N3           0.2214   0.5115  -0.0521 N.2            1 <1>                0.0000
      4 C4           0.7020  -0.7044  -0.0606 C.2            1 <1>                0.0000
      5 N5          -0.0815  -1.7959  -0.0473 N.am           1 <1>                0.0000
      6 C6          -1.4265  -1.6657  -0.0238 C.2            1 <1>                0.0000
      7 O7          -2.1531  -2.6431  -0.0116 O.2            1 <1>                0.0000
      8 C8          -1.9830  -0.3062  -0.0082 C.2            1 <1>                0.0000
      9 C9          -3.4314  -0.0780   0.0175 C.2            1 <1>                0.0000
     10 O10         -3.8709   1.0644   0.0301 O.co2          1 <1>                0.0000
     11 O11         -4.2009  -1.0300   0.0263 O.co2          1 <1>               -1.0000
     12 C12          2.1974  -0.8894  -0.0867 C.3            1 <1>                0.0000
     13 C13          3.0393   0.2446  -0.6750 C.3            1 <1>                0.0000
     14 C14          3.0354  -0.0011   0.8351 C.3            1 <1>                0.0000
     15 H15         -0.7401   2.8661  -0.0343 H              1 <1>                0.0000
     16 H16         -2.2082   2.3512  -0.8991 H              1 <1>                0.0000
     17 H17         -2.1772   2.3505   0.8806 H              1 <1>                0.0000
     18 H18          2.5420  -1.9101  -0.2522 H              1 <1>                0.0000
     19 H19          3.9380  -0.0301  -1.2273 H              1 <1>                0.0000
     20 H20          2.5117   1.1245  -1.0432 H              1 <1>                0.0000
     21 H21          2.5051   0.7170   1.4605 H              1 <1>                0.0000
     22 H22          3.9314  -0.4375   1.2764 H              1 <1>                0.0000
     23 H23          0.3191  -2.6793  -0.0550 H              1 <1>                0.0000
@<TRIPOS>BOND
    1    1    2 1     
    2    1   15 1     
    3    1   16 1     
    4    1   17 1     
    5    2    3 1     
    6    2    8 2     
    7    3    4 2     
    8    4    5 1     
    9    4   12 1     
   10    5    6 am    
   11    5   23 1     
   12    6    7 2     
   13    6    8 1     
   14    8    9 1     
   15    9   10 ar    
   16    9   11 ar    
   17   12   13 1     
   18   12   14 1     
   19   12   18 1     
   20   13   14 1     
   21   13   19 1     
   22   13   20 1     
   23   14   21 1     
   24   14   22 1     
@<TRIPOS>SUBSTRUCTURE
      1 ****           1
@<TRIPOS>SET
DONOR_HYDROGENS      STATIC     ATOMS    <user>   **** ""
1 23
ATOM$RED        STATIC     ATOMS    COLORGROUP SYSTEM
1 23
