#       Name:                EN300-6730942_i002
#       Creating user name   aseyller
#       Creation time:       Fri Apr 21 19:13:24 2023


#       File generated by GOLD software.
#

@<TRIPOS>MOLECULE
EN300-6730942_i002|Sulfonylchlorides|mol2|756|dock9
    21    21     1
SMALL
USER_CHARGES


@<TRIPOS>ATOM
      1 F1          28.9201  36.9972  41.4034 F              1 <1>                0.0000
      2 C2          28.1486  36.3315  40.4449 C.3            1 <1>                0.0000
      3 F3          27.9264  35.0136  40.8584 F              1 <1>                0.0000
      4 F4          26.9216  36.9869  40.2967 F              1 <1>                0.0000
      5 C5          28.8898  36.3279  39.1064 C.3            1 <1>                0.0000
      6 C6          30.3998  36.0683  39.2391 C.3            1 <1>                0.0000
      7 C7          30.5992  37.1363  38.1506 C.3            1 <1>                0.0000
      8 C8          30.5737  36.5737  36.7281 C.3            1 <1>                0.0000
      9 S9          31.5824  37.6225  35.6450 S.o2           1 <1>                0.0000
     10 O10         30.8604  37.9664  34.4704 O.2            1 <1>                0.0000
     11 O11         32.2629  38.6132  36.4030 O.2            1 <1>                0.0000
     12 Cl12        33.0516  36.4021  34.9873 Cl             1 <1>                0.0000
     13 C13         29.2556  37.7335  38.6011 C.3            1 <1>                0.0000
     14 H14         28.4041  35.7052  38.3553 H              1 <1>                0.0000
     15 H15         30.8080  36.3520  40.2092 H              1 <1>                0.0000
     16 H16         30.6997  35.0674  38.9288 H              1 <1>                0.0000
     17 H17         31.4520  37.7905  38.3319 H              1 <1>                0.0000
     18 H18         30.9763  35.5608  36.7307 H              1 <1>                0.0000
     19 H19         29.5469  36.5557  36.3628 H              1 <1>                0.0000
     20 H20         28.6318  38.0769  37.7758 H              1 <1>                0.0000
     21 H21         29.3510  38.4725  39.3967 H              1 <1>                0.0000
@<TRIPOS>BOND
    1    1    2 1     
    2    2    3 1     
    3    2    4 1     
    4    2    5 1     
    5    5    6 1     
    6    5   13 1     
    7    5   14 1     
    8    6    7 1     
    9    6   15 1     
   10    6   16 1     
   11    7    8 1     
   12    7   13 1     
   13    7   17 1     
   14    8    9 1     
   15    8   18 1     
   16    8   19 1     
   17    9   10 2     
   18    9   11 2     
   19    9   12 1     
   20   13   20 1     
   21   13   21 1     
@<TRIPOS>SUBSTRUCTURE
      1 ****           1
@<TRIPOS>COMMENT
> <Gold.Version>
2022.2.0

> <Gold.Id.Protein>
1qkm|1qkm_protein|mol2

> <Gold.Protein.RotatedTorsions>
[  496  491  490  487 ] final   23.50 input  -89.99 | X-H torsion

> <Gold.Protein.ActiveResidues>
 MET295  LEU298  THR299  LEU301  ALA302  GLU305  TRP335  MET336  LEU339  MET340 
 GLY342  LEU343  ARG346  PHE356  ILE373  ILE376  PHE377  LEU380  LYS471  GLY472 
 MET473  HIS475  LEU476  LEU477  ASN478  MET479  VAL484  VAL487 

> <Gold.Protein.RotatedAtoms>
   36.3161   33.8572   42.3677 H   0  0  0  0  0  0  0  0  0  0  0  0  # atno 496  bound_to 491 

> <Gold.Score>
     Score     S(PLP)   S(hbond)     S(cho)   S(metal)  DE(clash)   DE(tors)     intcor
     36.72     -37.79       0.00       0.00       0.00       0.00       0.86       0.64

> <Gold.PLP.Fitness>
36.7177

> <Gold.PLP.PLP>
-37.7940

> <Gold.PLP.part.hbond>
0.0000

> <Gold.PLP.part.metal>
0.0000

> <Gold.PLP.part.buried>
-2.3893

> <Gold.PLP.part.nonpolar>
-35.6798

> <Gold.PLP.part.repulsive>
0.0666

> <Gold.PLP.ligand.clash>
0.0000

> <Gold.PLP.ligand.torsion>
0.8600

> <Gold.PLP.Chemscore.Hbond>
0.0000

> <Gold.PLP.Chemscore.CHOScore>
0.0000

> <Gold.PLP.Chemscore.Metal>
0.0000

> <Gold.PLP.Chemscore.Internal.Correction>
0.6438

