#       Name:                EN300-6730942_i002
#       Creating user name   aseyller
#       Creation time:       Fri Apr 21 19:13:33 2023


#       File generated by GOLD software.
#

@<TRIPOS>MOLECULE
EN300-6730942_i002|Sulfonylchlorides|mol2|756|dock18
    21    21     1
SMALL
USER_CHARGES


@<TRIPOS>ATOM
      1 F1          27.6466  34.9891  40.2414 F              1 <1>                0.0000
      2 C2          27.8406  36.3186  40.6313 C.3            1 <1>                0.0000
      3 F3          26.6135  36.9904  40.6246 F              1 <1>                0.0000
      4 F4          28.3835  36.3521  41.9202 F              1 <1>                0.0000
      5 C5          28.8011  37.0013  39.6554 C.3            1 <1>                0.0000
      6 C6          28.4572  36.7528  38.1773 C.3            1 <1>                0.0000
      7 C7          29.9690  36.6172  37.9299 C.3            1 <1>                0.0000
      8 C8          30.6576  37.9434  37.6016 C.3            1 <1>                0.0000
      9 S9          29.7452  38.7875  36.2803 S.o2           1 <1>                0.0000
     10 O10         29.9989  38.1699  35.0259 O.2            1 <1>                0.0000
     11 O11         28.4189  39.0796  36.6982 O.2            1 <1>                0.0000
     12 Cl12        30.6309  40.5971  36.1328 Cl             1 <1>                0.0000
     13 C13         30.0942  36.2070  39.4067 C.3            1 <1>                0.0000
     14 H14         28.9710  38.0512  39.8936 H              1 <1>                0.0000
     15 H15         27.9024  35.8300  38.0072 H              1 <1>                0.0000
     16 H16         28.0093  37.6145  37.6823 H              1 <1>                0.0000
     17 H17         30.2274  35.8217  37.2309 H              1 <1>                0.0000
     18 H18         30.6753  38.5735  38.4908 H              1 <1>                0.0000
     19 H19         31.6787  37.7509  37.2723 H              1 <1>                0.0000
     20 H20         30.9678  36.6281  39.9042 H              1 <1>                0.0000
     21 H21         29.9870  35.1351  39.5727 H              1 <1>                0.0000
@<TRIPOS>BOND
    1    1    2 1     
    2    2    3 1     
    3    2    4 1     
    4    2    5 1     
    5    5    6 1     
    6    5   13 1     
    7    5   14 1     
    8    6    7 1     
    9    6   15 1     
   10    6   16 1     
   11    7    8 1     
   12    7   13 1     
   13    7   17 1     
   14    8    9 1     
   15    8   18 1     
   16    8   19 1     
   17    9   10 2     
   18    9   11 2     
   19    9   12 1     
   20   13   20 1     
   21   13   21 1     
@<TRIPOS>SUBSTRUCTURE
      1 ****           1
@<TRIPOS>COMMENT
> <Gold.Version>
2022.2.0

> <Gold.Id.Protein>
1qkm|1qkm_protein|mol2

> <Gold.Protein.RotatedTorsions>
[  496  491  490  487 ] final   94.51 input  -89.99 | X-H torsion

> <Gold.Protein.ActiveResidues>
 MET295  LEU298  THR299  LEU301  ALA302  GLU305  TRP335  MET336  LEU339  MET340 
 GLY342  LEU343  ARG346  PHE356  ILE373  ILE376  PHE377  LEU380  LYS471  GLY472 
 MET473  HIS475  LEU476  LEU477  ASN478  MET479  VAL484  VAL487 

> <Gold.Protein.RotatedAtoms>
   36.8618   32.9949   41.9689 H   0  0  0  0  0  0  0  0  0  0  0  0  # atno 496  bound_to 491 

> <Gold.Score>
     Score     S(PLP)   S(hbond)     S(cho)   S(metal)  DE(clash)   DE(tors)     intcor
     37.83     -38.28       0.00       0.00       0.00       0.00       0.55       0.64

> <Gold.PLP.Fitness>
37.8287

> <Gold.PLP.PLP>
-38.2788

> <Gold.PLP.part.hbond>
0.0000

> <Gold.PLP.part.metal>
0.0000

> <Gold.PLP.part.buried>
-3.2470

> <Gold.PLP.part.nonpolar>
-34.9162

> <Gold.PLP.part.repulsive>
0.0148

> <Gold.PLP.ligand.clash>
0.0000

> <Gold.PLP.ligand.torsion>
0.5461

> <Gold.PLP.Chemscore.Hbond>
0.0000

> <Gold.PLP.Chemscore.CHOScore>
0.0000

> <Gold.PLP.Chemscore.Metal>
0.0000

> <Gold.PLP.Chemscore.Internal.Correction>
0.6421

