#       Name:                EN300-6730942_i002
#       Creating user name   aseyller
#       Creation time:       Fri Apr 21 19:13:30 2023


#       File generated by GOLD software.
#

@<TRIPOS>MOLECULE
EN300-6730942_i002|Sulfonylchlorides|mol2|756|dock15
    21    21     1
SMALL
USER_CHARGES


@<TRIPOS>ATOM
      1 F1          32.9613  37.0267  37.5605 F              1 <1>                0.0000
      2 C2          32.1323  36.1004  36.9186 C.3            1 <1>                0.0000
      3 F3          31.9860  36.4587  35.5742 F              1 <1>                0.0000
      4 F4          32.7043  34.8264  37.0021 F              1 <1>                0.0000
      5 C5          30.7603  36.0889  37.5956 C.3            1 <1>                0.0000
      6 C6          30.2107  37.4929  37.8980 C.3            1 <1>                0.0000
      7 C7          29.7085  36.9226  39.2350 C.3            1 <1>                0.0000
      8 C8          28.2999  36.3301  39.1580 C.3            1 <1>                0.0000
      9 S9          27.6729  36.0415  40.8356 S.o2           1 <1>                0.0000
     10 O10         27.2929  34.6821  40.9989 O.2            1 <1>                0.0000
     11 O11         28.4954  36.6926  41.7941 O.2            1 <1>                0.0000
     12 Cl12        25.9286  37.0581  40.9034 Cl             1 <1>                0.0000
     13 C13         30.8258  35.8727  39.1168 C.3            1 <1>                0.0000
     14 H14         30.0450  35.4393  37.0914 H              1 <1>                0.0000
     15 H15         30.9864  38.2506  38.0104 H              1 <1>                0.0000
     16 H16         29.4096  37.8022  37.2267 H              1 <1>                0.0000
     17 H17         29.8354  37.6046  40.0758 H              1 <1>                0.0000
     18 H18         27.6410  37.0258  38.6385 H              1 <1>                0.0000
     19 H19         28.3323  35.3857  38.6148 H              1 <1>                0.0000
     20 H20         30.5212  34.8739  39.4294 H              1 <1>                0.0000
     21 H21         31.7695  36.1873  39.5623 H              1 <1>                0.0000
@<TRIPOS>BOND
    1    1    2 1     
    2    2    3 1     
    3    2    4 1     
    4    2    5 1     
    5    5    6 1     
    6    5   13 1     
    7    5   14 1     
    8    6    7 1     
    9    6   15 1     
   10    6   16 1     
   11    7    8 1     
   12    7   13 1     
   13    7   17 1     
   14    8    9 1     
   15    8   18 1     
   16    8   19 1     
   17    9   10 2     
   18    9   11 2     
   19    9   12 1     
   20   13   20 1     
   21   13   21 1     
@<TRIPOS>SUBSTRUCTURE
      1 ****           1
@<TRIPOS>COMMENT
> <Gold.Version>
2022.2.0

> <Gold.Id.Protein>
1qkm|1qkm_protein|mol2

> <Gold.Protein.RotatedTorsions>
[  496  491  490  487 ] final   10.15 input  -89.99 | X-H torsion

> <Gold.Protein.ActiveResidues>
 MET295  LEU298  THR299  LEU301  ALA302  GLU305  TRP335  MET336  LEU339  MET340 
 GLY342  LEU343  ARG346  PHE356  ILE373  ILE376  PHE377  LEU380  LYS471  GLY472 
 MET473  HIS475  LEU476  LEU477  ASN478  MET479  VAL484  VAL487 

> <Gold.Protein.RotatedAtoms>
   36.2735   34.0639   42.3086 H   0  0  0  0  0  0  0  0  0  0  0  0  # atno 496  bound_to 491 

> <Gold.Score>
     Score     S(PLP)   S(hbond)     S(cho)   S(metal)  DE(clash)   DE(tors)     intcor
     36.67     -37.19       0.00       0.00       0.00       0.00       0.58       0.64

> <Gold.PLP.Fitness>
36.6661

> <Gold.PLP.PLP>
-37.1863

> <Gold.PLP.part.hbond>
0.0000

> <Gold.PLP.part.metal>
0.0000

> <Gold.PLP.part.buried>
-0.0160

> <Gold.PLP.part.nonpolar>
-37.9358

> <Gold.PLP.part.repulsive>
0.8827

> <Gold.PLP.ligand.clash>
0.0000

> <Gold.PLP.ligand.torsion>
0.5811

> <Gold.PLP.Chemscore.Hbond>
0.0000

> <Gold.PLP.Chemscore.CHOScore>
0.0000

> <Gold.PLP.Chemscore.Metal>
0.0000

> <Gold.PLP.Chemscore.Internal.Correction>
0.6421

