#       Name:                EN300-6730942_i002
#       Creating user name   aseyller
#       Creation time:       Fri Apr 21 19:13:23 2023


#       File generated by GOLD software.
#

@<TRIPOS>MOLECULE
EN300-6730942_i002|Sulfonylchlorides|mol2|756|dock8
    21    21     1
SMALL
USER_CHARGES


@<TRIPOS>ATOM
      1 F1          32.7066  38.1899  35.7361 F              1 <1>                0.0000
      2 C2          31.6917  37.2286  35.7920 C.3            1 <1>                0.0000
      3 F3          30.7055  37.5361  34.8485 F              1 <1>                0.0000
      4 F4          32.2282  35.9674  35.5115 F              1 <1>                0.0000
      5 C5          31.0737  37.2202  37.1915 C.3            1 <1>                0.0000
      6 C6          29.7463  36.4480  37.2742 C.3            1 <1>                0.0000
      7 C7          29.2444  37.5662  38.2030 C.3            1 <1>                0.0000
      8 C8          29.5439  37.3147  39.6822 C.3            1 <1>                0.0000
      9 S9          28.4039  36.0584  40.3248 S.o2           1 <1>                0.0000
     10 O10         28.4206  34.9013  39.5001 O.2            1 <1>                0.0000
     11 O11         28.5222  35.9534  41.7369 O.2            1 <1>                0.0000
     12 Cl12        26.5677  36.8494  40.0362 Cl             1 <1>                0.0000
     13 C13         30.2656  38.4879  37.5157 C.3            1 <1>                0.0000
     14 H14         31.7876  36.9455  37.9679 H              1 <1>                0.0000
     15 H15         29.2119  36.3956  36.3256 H              1 <1>                0.0000
     16 H16         29.8347  35.4790  37.7655 H              1 <1>                0.0000
     17 H17         28.2075  37.8503  38.0234 H              1 <1>                0.0000
     18 H18         30.5700  36.9636  39.7906 H              1 <1>                0.0000
     19 H19         29.4159  38.2415  40.2415 H              1 <1>                0.0000
     20 H20         30.7732  39.1656  38.2020 H              1 <1>                0.0000
     21 H21         29.8732  38.9931  36.6332 H              1 <1>                0.0000
@<TRIPOS>BOND
    1    1    2 1     
    2    2    3 1     
    3    2    4 1     
    4    2    5 1     
    5    5    6 1     
    6    5   13 1     
    7    5   14 1     
    8    6    7 1     
    9    6   15 1     
   10    6   16 1     
   11    7    8 1     
   12    7   13 1     
   13    7   17 1     
   14    8    9 1     
   15    8   18 1     
   16    8   19 1     
   17    9   10 2     
   18    9   11 2     
   19    9   12 1     
   20   13   20 1     
   21   13   21 1     
@<TRIPOS>SUBSTRUCTURE
      1 ****           1
@<TRIPOS>COMMENT
> <Gold.Version>
2022.2.0

> <Gold.Id.Protein>
1qkm|1qkm_protein|mol2

> <Gold.Protein.RotatedTorsions>
[  496  491  490  487 ] final  -71.74 input  -89.99 | X-H torsion

> <Gold.Protein.ActiveResidues>
 MET295  LEU298  THR299  LEU301  ALA302  GLU305  TRP335  MET336  LEU339  MET340 
 GLY342  LEU343  ARG346  PHE356  ILE373  ILE376  PHE377  LEU380  LYS471  GLY472 
 MET473  HIS475  LEU476  LEU477  ASN478  MET479  VAL484  VAL487 

> <Gold.Protein.RotatedAtoms>
   36.5931   34.7301   41.3175 H   0  0  0  0  0  0  0  0  0  0  0  0  # atno 496  bound_to 491 

> <Gold.Score>
     Score     S(PLP)   S(hbond)     S(cho)   S(metal)  DE(clash)   DE(tors)     intcor
     36.39     -36.41       0.00       0.00       0.00       0.00       0.33       0.64

> <Gold.PLP.Fitness>
36.3882

> <Gold.PLP.PLP>
-36.4136

> <Gold.PLP.part.hbond>
0.0000

> <Gold.PLP.part.metal>
0.0000

> <Gold.PLP.part.buried>
-3.5921

> <Gold.PLP.part.nonpolar>
-33.2588

> <Gold.PLP.part.repulsive>
0.2043

> <Gold.PLP.ligand.clash>
0.0000

> <Gold.PLP.ligand.torsion>
0.3346

> <Gold.PLP.Chemscore.Hbond>
0.0000

> <Gold.PLP.Chemscore.CHOScore>
0.0000

> <Gold.PLP.Chemscore.Metal>
0.0000

> <Gold.PLP.Chemscore.Internal.Correction>
0.6438

