#       Name:                EN300-6730942_i002
#       Creating user name   aseyller
#       Creation time:       Fri Apr 21 19:13:22 2023


#       File generated by GOLD software.
#

@<TRIPOS>MOLECULE
EN300-6730942_i002|Sulfonylchlorides|mol2|756|dock7
    21    21     1
SMALL
USER_CHARGES


@<TRIPOS>ATOM
      1 F1          32.6861  38.2303  36.3760 F              1 <1>                0.0000
      2 C2          31.8378  37.4969  35.5397 C.3            1 <1>                0.0000
      3 F3          31.7259  38.1448  34.3048 F              1 <1>                0.0000
      4 F4          32.3656  36.2156  35.3478 F              1 <1>                0.0000
      5 C5          30.4549  37.3874  36.1852 C.3            1 <1>                0.0000
      6 C6          29.8600  38.7432  36.6008 C.3            1 <1>                0.0000
      7 C7          29.3509  38.0417  37.8711 C.3            1 <1>                0.0000
      8 C8          27.9616  37.4206  37.7131 C.3            1 <1>                0.0000
      9 S9          27.4843  36.6052  39.2617 S.o2           1 <1>                0.0000
     10 O10         26.4073  37.2974  39.8783 O.2            1 <1>                0.0000
     11 O11         27.4472  35.1950  39.0918 O.2            1 <1>                0.0000
     12 Cl12        29.0504  36.9170  40.4989 Cl             1 <1>                0.0000
     13 C13         30.4999  37.0372  37.6820 C.3            1 <1>                0.0000
     14 H14         29.7675  36.7667  35.6107 H              1 <1>                0.0000
     15 H15         30.6114  39.5084  36.7959 H              1 <1>                0.0000
     16 H16         29.0622  39.0898  35.9438 H              1 <1>                0.0000
     17 H17         29.4434  38.6485  38.7718 H              1 <1>                0.0000
     18 H18         27.2392  38.2017  37.4761 H              1 <1>                0.0000
     19 H19         27.9810  36.6870  36.9072 H              1 <1>                0.0000
     20 H20         30.2186  36.0065  37.8979 H              1 <1>                0.0000
     21 H21         31.4262  37.3359  38.1727 H              1 <1>                0.0000
@<TRIPOS>BOND
    1    1    2 1     
    2    2    3 1     
    3    2    4 1     
    4    2    5 1     
    5    5    6 1     
    6    5   13 1     
    7    5   14 1     
    8    6    7 1     
    9    6   15 1     
   10    6   16 1     
   11    7    8 1     
   12    7   13 1     
   13    7   17 1     
   14    8    9 1     
   15    8   18 1     
   16    8   19 1     
   17    9   10 2     
   18    9   11 2     
   19    9   12 1     
   20   13   20 1     
   21   13   21 1     
@<TRIPOS>SUBSTRUCTURE
      1 ****           1
@<TRIPOS>COMMENT
> <Gold.Version>
2022.2.0

> <Gold.Id.Protein>
1qkm|1qkm_protein|mol2

> <Gold.Protein.RotatedTorsions>
[  496  491  490  487 ] final  -87.99 input  -89.99 | X-H torsion

> <Gold.Protein.ActiveResidues>
 MET295  LEU298  THR299  LEU301  ALA302  GLU305  TRP335  MET336  LEU339  MET340 
 GLY342  LEU343  ARG346  PHE356  ILE373  ILE376  PHE377  LEU380  LYS471  GLY472 
 MET473  HIS475  LEU476  LEU477  ASN478  MET479  VAL484  VAL487 

> <Gold.Protein.RotatedAtoms>
   36.7387   34.6660   41.1036 H   0  0  0  0  0  0  0  0  0  0  0  0  # atno 496  bound_to 491 

> <Gold.Score>
     Score     S(PLP)   S(hbond)     S(cho)   S(metal)  DE(clash)   DE(tors)     intcor
     38.75     -38.88       0.00       0.00       0.00       0.00       0.39       0.64

> <Gold.PLP.Fitness>
38.7504

> <Gold.PLP.PLP>
-38.8790

> <Gold.PLP.part.hbond>
0.0000

> <Gold.PLP.part.metal>
0.0000

> <Gold.PLP.part.buried>
-2.4864

> <Gold.PLP.part.nonpolar>
-35.8132

> <Gold.PLP.part.repulsive>
0.0541

> <Gold.PLP.ligand.clash>
0.0000

> <Gold.PLP.ligand.torsion>
0.3862

> <Gold.PLP.Chemscore.Hbond>
0.0000

> <Gold.PLP.Chemscore.CHOScore>
0.0000

> <Gold.PLP.Chemscore.Metal>
0.0000

> <Gold.PLP.Chemscore.Internal.Correction>
0.6438

