#       Name:                EN300-6730942_i002
#       Creating user name   aseyller
#       Creation time:       Fri Apr 21 19:13:32 2023


#       File generated by GOLD software.
#

@<TRIPOS>MOLECULE
EN300-6730942_i002|Sulfonylchlorides|mol2|756|dock17
    21    21     1
SMALL
USER_CHARGES


@<TRIPOS>ATOM
      1 F1          27.0360  35.1461  40.6401 F              1 <1>                0.0000
      2 C2          27.1946  36.4971  40.9669 C.3            1 <1>                0.0000
      3 F3          25.9923  36.9975  41.4779 F              1 <1>                0.0000
      4 F4          28.2012  36.6290  41.9295 F              1 <1>                0.0000
      5 C5          27.5822  37.2830  39.7127 C.3            1 <1>                0.0000
      6 C6          26.6746  37.0007  38.5038 C.3            1 <1>                0.0000
      7 C7          27.9470  37.0328  37.6407 C.3            1 <1>                0.0000
      8 C8          28.2982  38.4274  37.1184 C.3            1 <1>                0.0000
      9 S9          29.9973  38.4247  36.4828 S.o2           1 <1>                0.0000
     10 O10         30.8865  37.8641  37.4390 O.2            1 <1>                0.0000
     11 O11         30.0212  38.0047  35.1256 O.2            1 <1>                0.0000
     12 Cl12        30.5109  40.3769  36.4092 Cl             1 <1>                0.0000
     13 C13         28.7222  36.6364  38.9082 C.3            1 <1>                0.0000
     14 H14         27.7316  38.3449  39.9080 H              1 <1>                0.0000
     15 H15         26.1943  36.0228  38.5374 H              1 <1>                0.0000
     16 H16         25.9770  37.8087  38.2834 H              1 <1>                0.0000
     17 H17         27.9646  36.2718  36.8605 H              1 <1>                0.0000
     18 H18         27.6110  38.6991  36.3172 H              1 <1>                0.0000
     19 H19         28.2149  39.1507  37.9295 H              1 <1>                0.0000
     20 H20         29.6776  37.1502  39.0144 H              1 <1>                0.0000
     21 H21         28.8017  35.5589  39.0524 H              1 <1>                0.0000
@<TRIPOS>BOND
    1    1    2 1     
    2    2    3 1     
    3    2    4 1     
    4    2    5 1     
    5    5    6 1     
    6    5   13 1     
    7    5   14 1     
    8    6    7 1     
    9    6   15 1     
   10    6   16 1     
   11    7    8 1     
   12    7   13 1     
   13    7   17 1     
   14    8    9 1     
   15    8   18 1     
   16    8   19 1     
   17    9   10 2     
   18    9   11 2     
   19    9   12 1     
   20   13   20 1     
   21   13   21 1     
@<TRIPOS>SUBSTRUCTURE
      1 ****           1
@<TRIPOS>COMMENT
> <Gold.Version>
2022.2.0

> <Gold.Id.Protein>
1qkm|1qkm_protein|mol2

> <Gold.Protein.RotatedTorsions>
[  496  491  490  487 ] final  -87.17 input  -89.99 | X-H torsion

> <Gold.Protein.ActiveResidues>
 MET295  LEU298  THR299  LEU301  ALA302  GLU305  TRP335  MET336  LEU339  MET340 
 GLY342  LEU343  ARG346  PHE356  ILE373  ILE376  PHE377  LEU380  LYS471  GLY472 
 MET473  HIS475  LEU476  LEU477  ASN478  MET479  VAL484  VAL487 

> <Gold.Protein.RotatedAtoms>
   36.7312   34.6709   41.1136 H   0  0  0  0  0  0  0  0  0  0  0  0  # atno 496  bound_to 491 

> <Gold.Score>
     Score     S(PLP)   S(hbond)     S(cho)   S(metal)  DE(clash)   DE(tors)     intcor
     38.14     -38.70       0.00       0.00       0.00       0.00       0.60       0.64

> <Gold.PLP.Fitness>
38.1370

> <Gold.PLP.PLP>
-38.6994

> <Gold.PLP.part.hbond>
0.0000

> <Gold.PLP.part.metal>
0.0000

> <Gold.PLP.part.buried>
-2.7786

> <Gold.PLP.part.nonpolar>
-36.6807

> <Gold.PLP.part.repulsive>
0.0174

> <Gold.PLP.ligand.clash>
0.0000

> <Gold.PLP.ligand.torsion>
0.6022

> <Gold.PLP.Chemscore.Hbond>
0.0000

> <Gold.PLP.Chemscore.CHOScore>
0.0000

> <Gold.PLP.Chemscore.Metal>
0.0000

> <Gold.PLP.Chemscore.Internal.Correction>
0.6421

