#       Name:                EN300-6730942_i002
#       Creating user name   aseyller
#       Creation time:       Fri Apr 21 19:13:31 2023


#       File generated by GOLD software.
#

@<TRIPOS>MOLECULE
EN300-6730942_i002|Sulfonylchlorides|mol2|756|dock16
    21    21     1
SMALL
USER_CHARGES


@<TRIPOS>ATOM
      1 F1          32.4083  34.4704  37.3036 F              1 <1>                0.0000
      2 C2          32.3474  35.8442  37.0466 C.3            1 <1>                0.0000
      3 F3          33.1873  36.5228  37.9362 F              1 <1>                0.0000
      4 F4          32.7615  36.0918  35.7335 F              1 <1>                0.0000
      5 C5          30.9094  36.3340  37.2288 C.3            1 <1>                0.0000
      6 C6          30.7974  37.8543  37.4312 C.3            1 <1>                0.0000
      7 C7          29.7155  37.5554  38.4825 C.3            1 <1>                0.0000
      8 C8          28.3023  37.4752  37.9019 C.3            1 <1>                0.0000
      9 S9          27.1874  36.7325  39.1250 S.o2           1 <1>                0.0000
     10 O10         26.1054  37.6084  39.4102 O.2            1 <1>                0.0000
     11 O11         26.9612  35.3619  38.8261 O.2            1 <1>                0.0000
     12 Cl12        28.2645  36.6985  40.8336 Cl             1 <1>                0.0000
     13 C13         30.3848  36.1832  38.6665 C.3            1 <1>                0.0000
     14 H14         30.2300  35.9431  36.4715 H              1 <1>                0.0000
     15 H15         31.6975  38.3069  37.8473 H              1 <1>                0.0000
     16 H16         30.4213  38.3847  36.5563 H              1 <1>                0.0000
     17 H17         29.7754  38.1936  39.3641 H              1 <1>                0.0000
     18 H18         27.9538  38.4778  37.6542 H              1 <1>                0.0000
     19 H19         28.3139  36.8616  37.0011 H              1 <1>                0.0000
     20 H20         29.6756  35.3645  38.7890 H              1 <1>                0.0000
     21 H21         31.1720  36.1789  39.4204 H              1 <1>                0.0000
@<TRIPOS>BOND
    1    1    2 1     
    2    2    3 1     
    3    2    4 1     
    4    2    5 1     
    5    5    6 1     
    6    5   13 1     
    7    5   14 1     
    8    6    7 1     
    9    6   15 1     
   10    6   16 1     
   11    7    8 1     
   12    7   13 1     
   13    7   17 1     
   14    8    9 1     
   15    8   18 1     
   16    8   19 1     
   17    9   10 2     
   18    9   11 2     
   19    9   12 1     
   20   13   20 1     
   21   13   21 1     
@<TRIPOS>SUBSTRUCTURE
      1 ****           1
@<TRIPOS>COMMENT
> <Gold.Version>
2022.2.0

> <Gold.Id.Protein>
1qkm|1qkm_protein|mol2

> <Gold.Protein.RotatedTorsions>
[  496  491  490  487 ] final   15.78 input  -89.99 | X-H torsion

> <Gold.Protein.ActiveResidues>
 MET295  LEU298  THR299  LEU301  ALA302  GLU305  TRP335  MET336  LEU339  MET340 
 GLY342  LEU343  ARG346  PHE356  ILE373  ILE376  PHE377  LEU380  LYS471  GLY472 
 MET473  HIS475  LEU476  LEU477  ASN478  MET479  VAL484  VAL487 

> <Gold.Protein.RotatedAtoms>
   36.2882   33.9776   42.3387 H   0  0  0  0  0  0  0  0  0  0  0  0  # atno 496  bound_to 491 

> <Gold.Score>
     Score     S(PLP)   S(hbond)     S(cho)   S(metal)  DE(clash)   DE(tors)     intcor
     39.11     -39.52       0.00       0.00       0.00       0.00       0.53       0.64

> <Gold.PLP.Fitness>
39.1075

> <Gold.PLP.PLP>
-39.5211

> <Gold.PLP.part.hbond>
0.0000

> <Gold.PLP.part.metal>
0.0000

> <Gold.PLP.part.buried>
-2.2678

> <Gold.PLP.part.nonpolar>
-37.4034

> <Gold.PLP.part.repulsive>
0.0923

> <Gold.PLP.ligand.clash>
0.0000

> <Gold.PLP.ligand.torsion>
0.5278

> <Gold.PLP.Chemscore.Hbond>
0.0000

> <Gold.PLP.Chemscore.CHOScore>
0.0000

> <Gold.PLP.Chemscore.Metal>
0.0000

> <Gold.PLP.Chemscore.Internal.Correction>
0.6421

