#       Name:                EN300-6730942_i002
#       Creating user name   aseyller
#       Creation time:       Fri Apr 21 19:13:29 2023


#       File generated by GOLD software.
#

@<TRIPOS>MOLECULE
EN300-6730942_i002|Sulfonylchlorides|mol2|756|dock14
    21    21     1
SMALL
USER_CHARGES


@<TRIPOS>ATOM
      1 F1          26.7470  36.9763  41.1457 F              1 <1>                0.0000
      2 C2          28.0246  36.4366  40.9619 C.3            1 <1>                0.0000
      3 F3          28.8008  36.6771  42.1007 F              1 <1>                0.0000
      4 F4          27.9221  35.0575  40.7500 F              1 <1>                0.0000
      5 C5          28.6849  37.0915  39.7470 C.3            1 <1>                0.0000
      6 C6          27.9567  36.8080  38.4225 C.3            1 <1>                0.0000
      7 C7          29.3465  36.6608  37.7808 C.3            1 <1>                0.0000
      8 C8          29.9173  37.9760  37.2467 C.3            1 <1>                0.0000
      9 S9          31.3405  37.6272  36.1773 S.o2           1 <1>                0.0000
     10 O10         32.4195  38.5000  36.4827 O.2            1 <1>                0.0000
     11 O11         31.5430  36.2258  36.0580 O.2            1 <1>                0.0000
     12 Cl12        30.7403  38.2023  34.3362 Cl             1 <1>                0.0000
     13 C13         29.8658  36.2866  39.1791 C.3            1 <1>                0.0000
     14 H14         28.9095  38.1463  39.9047 H              1 <1>                0.0000
     15 H15         27.3794  35.8834  38.4309 H              1 <1>                0.0000
     16 H16         27.3895  37.6589  38.0452 H              1 <1>                0.0000
     17 H17         29.4097  35.8474  37.0580 H              1 <1>                0.0000
     18 H18         29.1515  38.4983  36.6735 H              1 <1>                0.0000
     19 H19         30.2349  38.6000  38.0820 H              1 <1>                0.0000
     20 H20         30.8398  36.7165  39.4126 H              1 <1>                0.0000
     21 H21         29.8105  35.2195  39.3943 H              1 <1>                0.0000
@<TRIPOS>BOND
    1    1    2 1     
    2    2    3 1     
    3    2    4 1     
    4    2    5 1     
    5    5    6 1     
    6    5   13 1     
    7    5   14 1     
    8    6    7 1     
    9    6   15 1     
   10    6   16 1     
   11    7    8 1     
   12    7   13 1     
   13    7   17 1     
   14    8    9 1     
   15    8   18 1     
   16    8   19 1     
   17    9   10 2     
   18    9   11 2     
   19    9   12 1     
   20   13   20 1     
   21   13   21 1     
@<TRIPOS>SUBSTRUCTURE
      1 ****           1
@<TRIPOS>COMMENT
> <Gold.Version>
2022.2.0

> <Gold.Id.Protein>
1qkm|1qkm_protein|mol2

> <Gold.Protein.RotatedTorsions>
[  496  491  490  487 ] final  -60.77 input  -89.99 | X-H torsion

> <Gold.Protein.ActiveResidues>
 MET295  LEU298  THR299  LEU301  ALA302  GLU305  TRP335  MET336  LEU339  MET340 
 GLY342  LEU343  ARG346  PHE356  ILE373  ILE376  PHE377  LEU380  LYS471  GLY472 
 MET473  HIS475  LEU476  LEU477  ASN478  MET479  VAL484  VAL487 

> <Gold.Protein.RotatedAtoms>
   36.5030   34.7330   41.4736 H   0  0  0  0  0  0  0  0  0  0  0  0  # atno 496  bound_to 491 

> <Gold.Score>
     Score     S(PLP)   S(hbond)     S(cho)   S(metal)  DE(clash)   DE(tors)     intcor
     36.60     -37.29       0.00       0.00       0.00       0.00       0.66       0.64

> <Gold.PLP.Fitness>
36.6046

> <Gold.PLP.PLP>
-37.2881

> <Gold.PLP.part.hbond>
0.0000

> <Gold.PLP.part.metal>
0.0000

> <Gold.PLP.part.buried>
-2.1554

> <Gold.PLP.part.nonpolar>
-35.1503

> <Gold.PLP.part.repulsive>
0.0480

> <Gold.PLP.ligand.clash>
0.0000

> <Gold.PLP.ligand.torsion>
0.6632

> <Gold.PLP.Chemscore.Hbond>
0.0000

> <Gold.PLP.Chemscore.CHOScore>
0.0000

> <Gold.PLP.Chemscore.Metal>
0.0000

> <Gold.PLP.Chemscore.Internal.Correction>
0.6430

