#       Name:                EN300-6730942_i002
#       Creating user name   aseyller
#       Creation time:       Fri Apr 21 19:13:24 2023


#       File generated by GOLD software.
#

@<TRIPOS>MOLECULE
EN300-6730942_i002|Sulfonylchlorides|mol2|756|dock10
    21    21     1
SMALL
USER_CHARGES


@<TRIPOS>ATOM
      1 F1          28.7369  36.7036  42.2049 F              1 <1>                0.0000
      2 C2          28.0273  36.4171  41.0338 C.3            1 <1>                0.0000
      3 F3          27.9148  35.0307  40.8840 F              1 <1>                0.0000
      4 F4          26.7502  36.9829  41.1121 F              1 <1>                0.0000
      5 C5          28.7710  37.0013  39.8311 C.3            1 <1>                0.0000
      6 C6          28.1038  36.6864  38.4818 C.3            1 <1>                0.0000
      7 C7          29.5195  36.4705  37.9214 C.3            1 <1>                0.0000
      8 C8          30.1602  37.7447  37.3673 C.3            1 <1>                0.0000
      9 S9          31.6719  37.3163  36.4606 S.o2           1 <1>                0.0000
     10 O10         31.3822  36.4025  35.4117 O.2            1 <1>                0.0000
     11 O11         32.4578  38.4765  36.2254 O.2            1 <1>                0.0000
     12 Cl12        32.7595  36.2361  37.7762 Cl             1 <1>                0.0000
     13 C13         29.9529  36.1380  39.3589 C.3            1 <1>                0.0000
     14 H14         29.0216  38.0543  39.9590 H              1 <1>                0.0000
     15 H15         27.4969  35.7810  38.4956 H              1 <1>                0.0000
     16 H16         27.5852  37.5382  38.0418 H              1 <1>                0.0000
     17 H17         29.5935  35.6267  37.2354 H              1 <1>                0.0000
     18 H18         29.4606  38.2399  36.6939 H              1 <1>                0.0000
     19 H19         30.4079  38.4145  38.1907 H              1 <1>                0.0000
     20 H20         30.9270  36.5471  39.6269 H              1 <1>                0.0000
     21 H21         29.8515  35.0828  39.6125 H              1 <1>                0.0000
@<TRIPOS>BOND
    1    1    2 1     
    2    2    3 1     
    3    2    4 1     
    4    2    5 1     
    5    5    6 1     
    6    5   13 1     
    7    5   14 1     
    8    6    7 1     
    9    6   15 1     
   10    6   16 1     
   11    7    8 1     
   12    7   13 1     
   13    7   17 1     
   14    8    9 1     
   15    8   18 1     
   16    8   19 1     
   17    9   10 2     
   18    9   11 2     
   19    9   12 1     
   20   13   20 1     
   21   13   21 1     
@<TRIPOS>SUBSTRUCTURE
      1 ****           1
@<TRIPOS>COMMENT
> <Gold.Version>
2022.2.0

> <Gold.Id.Protein>
1qkm|1qkm_protein|mol2

> <Gold.Protein.RotatedTorsions>
[  496  491  490  487 ] final  -65.03 input  -89.99 | X-H torsion

> <Gold.Protein.ActiveResidues>
 MET295  LEU298  THR299  LEU301  ALA302  GLU305  TRP335  MET336  LEU339  MET340 
 GLY342  LEU343  ARG346  PHE356  ILE373  ILE376  PHE377  LEU380  LYS471  GLY472 
 MET473  HIS475  LEU476  LEU477  ASN478  MET479  VAL484  VAL487 

> <Gold.Protein.RotatedAtoms>
   36.5369   34.7358   41.4122 H   0  0  0  0  0  0  0  0  0  0  0  0  # atno 496  bound_to 491 

> <Gold.Score>
     Score     S(PLP)   S(hbond)     S(cho)   S(metal)  DE(clash)   DE(tors)     intcor
     37.61     -38.25       0.00       0.00       0.00       0.00       0.64       0.64

> <Gold.PLP.Fitness>
37.6112

> <Gold.PLP.PLP>
-38.2511

> <Gold.PLP.part.hbond>
0.0000

> <Gold.PLP.part.metal>
0.0000

> <Gold.PLP.part.buried>
-2.7153

> <Gold.PLP.part.nonpolar>
-35.5134

> <Gold.PLP.part.repulsive>
0.0906

> <Gold.PLP.ligand.clash>
0.0000

> <Gold.PLP.ligand.torsion>
0.6418

> <Gold.PLP.Chemscore.Hbond>
0.0000

> <Gold.PLP.Chemscore.CHOScore>
0.0000

> <Gold.PLP.Chemscore.Metal>
0.0000

> <Gold.PLP.Chemscore.Internal.Correction>
0.6438

