#       Name:                EN300-6730942_i002
#       Creating user name   aseyller
#       Creation time:       Fri Apr 21 19:13:25 2023


#       File generated by GOLD software.
#

@<TRIPOS>MOLECULE
EN300-6730942_i002|Sulfonylchlorides|mol2|756|dock11
    21    21     1
SMALL
USER_CHARGES


@<TRIPOS>ATOM
      1 F1          26.4931  37.5440  39.1724 F              1 <1>                0.0000
      2 C2          26.9292  36.2231  39.3211 C.3            1 <1>                0.0000
      3 F3          26.7706  35.8267  40.6534 F              1 <1>                0.0000
      4 F4          26.1737  35.3865  38.4926 F              1 <1>                0.0000
      5 C5          28.4060  36.1268  38.9328 C.3            1 <1>                0.0000
      6 C6          29.3226  37.0390  39.7651 C.3            1 <1>                0.0000
      7 C7          30.0829  37.3329  38.4610 C.3            1 <1>                0.0000
      8 C8          31.2236  36.3520  38.1824 C.3            1 <1>                0.0000
      9 S9          32.0524  36.8123  36.6358 S.o2           1 <1>                0.0000
     10 O10         32.4286  38.1824  36.6603 O.2            1 <1>                0.0000
     11 O11         32.9766  35.8056  36.2466 O.2            1 <1>                0.0000
     12 Cl12        30.5974  36.7202  35.2375 Cl             1 <1>                0.0000
     13 C13         28.7810  36.9911  37.7173 C.3            1 <1>                0.0000
     14 H14         28.7595  35.0980  38.8644 H              1 <1>                0.0000
     15 H15         28.8131  37.9092  40.1791 H              1 <1>                0.0000
     16 H16         29.9164  36.5029  40.5054 H              1 <1>                0.0000
     17 H17         30.3857  38.3748  38.3576 H              1 <1>                0.0000
     18 H18         31.9404  36.3858  39.0027 H              1 <1>                0.0000
     19 H19         30.8213  35.3430  38.0926 H              1 <1>                0.0000
     20 H20         28.9376  36.4163  36.8045 H              1 <1>                0.0000
     21 H21         28.1235  37.8481  37.5715 H              1 <1>                0.0000
@<TRIPOS>BOND
    1    1    2 1     
    2    2    3 1     
    3    2    4 1     
    4    2    5 1     
    5    5    6 1     
    6    5   13 1     
    7    5   14 1     
    8    6    7 1     
    9    6   15 1     
   10    6   16 1     
   11    7    8 1     
   12    7   13 1     
   13    7   17 1     
   14    8    9 1     
   15    8   18 1     
   16    8   19 1     
   17    9   10 2     
   18    9   11 2     
   19    9   12 1     
   20   13   20 1     
   21   13   21 1     
@<TRIPOS>SUBSTRUCTURE
      1 ****           1
@<TRIPOS>COMMENT
> <Gold.Version>
2022.2.0

> <Gold.Id.Protein>
1qkm|1qkm_protein|mol2

> <Gold.Protein.RotatedTorsions>
[  496  491  490  487 ] final   68.12 input  -89.99 | X-H torsion

> <Gold.Protein.ActiveResidues>
 MET295  LEU298  THR299  LEU301  ALA302  GLU305  TRP335  MET336  LEU339  MET340 
 GLY342  LEU343  ARG346  PHE356  ILE373  ILE376  PHE377  LEU380  LYS471  GLY472 
 MET473  HIS475  LEU476  LEU477  ASN478  MET479  VAL484  VAL487 

> <Gold.Protein.RotatedAtoms>
   36.6208   33.2209   42.2452 H   0  0  0  0  0  0  0  0  0  0  0  0  # atno 496  bound_to 491 

> <Gold.Score>
     Score     S(PLP)   S(hbond)     S(cho)   S(metal)  DE(clash)   DE(tors)     intcor
     36.95     -37.31       0.00       0.00       0.00       0.00       0.50       0.64

> <Gold.PLP.Fitness>
36.9508

> <Gold.PLP.PLP>
-37.3084

> <Gold.PLP.part.hbond>
0.0000

> <Gold.PLP.part.metal>
0.0000

> <Gold.PLP.part.buried>
-2.3878

> <Gold.PLP.part.nonpolar>
-34.6222

> <Gold.PLP.part.repulsive>
0.0277

> <Gold.PLP.ligand.clash>
0.0000

> <Gold.PLP.ligand.torsion>
0.5007

> <Gold.PLP.Chemscore.Hbond>
0.0000

> <Gold.PLP.Chemscore.CHOScore>
0.0000

> <Gold.PLP.Chemscore.Metal>
0.0000

> <Gold.PLP.Chemscore.Internal.Correction>
0.6438

