#       Name:                EN300-6730942_i002
#       Creating user name   aseyller
#       Creation time:       Fri Apr 21 19:13:26 2023


#       File generated by GOLD software.
#

@<TRIPOS>MOLECULE
EN300-6730942_i002|Sulfonylchlorides|mol2|756|dock12
    21    21     1
SMALL
USER_CHARGES


@<TRIPOS>ATOM
      1 F1          26.1545  35.4160  38.8724 F              1 <1>                0.0000
      2 C2          26.4471  36.6319  39.4993 C.3            1 <1>                0.0000
      3 F3          25.5208  37.5995  39.0957 F              1 <1>                0.0000
      4 F4          26.3774  36.4696  40.8871 F              1 <1>                0.0000
      5 C5          27.8566  37.0810  39.1086 C.3            1 <1>                0.0000
      6 C6          28.1268  37.0159  37.5961 C.3            1 <1>                0.0000
      7 C7          29.5281  36.4894  37.9486 C.3            1 <1>                0.0000
      8 C8          30.5678  37.5953  38.1404 C.3            1 <1>                0.0000
      9 S9          30.9045  38.3917  36.5457 S.o2           1 <1>                0.0000
     10 O10         32.3046  38.4997  36.3280 O.2            1 <1>                0.0000
     11 O11         30.0441  37.8759  35.5393 O.2            1 <1>                0.0000
     12 Cl12        30.2906  40.2999  36.7958 Cl             1 <1>                0.0000
     13 C13         28.9195  35.9808  39.2661 C.3            1 <1>                0.0000
     14 H14         28.1391  38.0309  39.5621 H              1 <1>                0.0000
     15 H15         27.5061  36.2887  37.0725 H              1 <1>                0.0000
     16 H16         28.1363  37.9924  37.1118 H              1 <1>                0.0000
     17 H17         29.8738  35.6930  37.2896 H              1 <1>                0.0000
     18 H18         30.1853  38.3358  38.8428 H              1 <1>                0.0000
     19 H19         31.4888  37.1640  38.5327 H              1 <1>                0.0000
     20 H20         29.5690  36.1216  40.1301 H              1 <1>                0.0000
     21 H21         28.5156  34.9706  39.1992 H              1 <1>                0.0000
@<TRIPOS>BOND
    1    1    2 1     
    2    2    3 1     
    3    2    4 1     
    4    2    5 1     
    5    5    6 1     
    6    5   13 1     
    7    5   14 1     
    8    6    7 1     
    9    6   15 1     
   10    6   16 1     
   11    7    8 1     
   12    7   13 1     
   13    7   17 1     
   14    8    9 1     
   15    8   18 1     
   16    8   19 1     
   17    9   10 2     
   18    9   11 2     
   19    9   12 1     
   20   13   20 1     
   21   13   21 1     
@<TRIPOS>SUBSTRUCTURE
      1 ****           1
@<TRIPOS>COMMENT
> <Gold.Version>
2022.2.0

> <Gold.Id.Protein>
1qkm|1qkm_protein|mol2

> <Gold.Protein.RotatedTorsions>
[  496  491  490  487 ] final  120.04 input  -89.99 | X-H torsion

> <Gold.Protein.ActiveResidues>
 MET295  LEU298  THR299  LEU301  ALA302  GLU305  TRP335  MET336  LEU339  MET340 
 GLY342  LEU343  ARG346  PHE356  ILE373  ILE376  PHE377  LEU380  LYS471  GLY472 
 MET473  HIS475  LEU476  LEU477  ASN478  MET479  VAL484  VAL487 

> <Gold.Protein.RotatedAtoms>
   37.0809   32.9433   41.6182 H   0  0  0  0  0  0  0  0  0  0  0  0  # atno 496  bound_to 491 

> <Gold.Score>
     Score     S(PLP)   S(hbond)     S(cho)   S(metal)  DE(clash)   DE(tors)     intcor
     37.49     -37.53       0.00       0.00       0.00       0.00       0.34       0.64

> <Gold.PLP.Fitness>
37.4939

> <Gold.PLP.PLP>
-37.5258

> <Gold.PLP.part.hbond>
0.0000

> <Gold.PLP.part.metal>
0.0000

> <Gold.PLP.part.buried>
-2.8948

> <Gold.PLP.part.nonpolar>
-34.5961

> <Gold.PLP.part.repulsive>
0.0166

> <Gold.PLP.ligand.clash>
0.0000

> <Gold.PLP.ligand.torsion>
0.3378

> <Gold.PLP.Chemscore.Hbond>
0.0000

> <Gold.PLP.Chemscore.CHOScore>
0.0000

> <Gold.PLP.Chemscore.Metal>
0.0000

> <Gold.PLP.Chemscore.Internal.Correction>
0.6438

