#       Name:                EN300-6730942_i002
#       Creating user name   aseyller
#       Creation time:       Fri Apr 21 19:13:21 2023


#       File generated by GOLD software.
#

@<TRIPOS>MOLECULE
EN300-6730942_i002|Sulfonylchlorides|mol2|756|dock6
    21    21     1
SMALL
USER_CHARGES


@<TRIPOS>ATOM
      1 F1          33.7490  36.0580  37.0102 F              1 <1>                0.0000
      2 C2          32.6187  36.6058  36.3941 C.3            1 <1>                0.0000
      3 F3          32.9833  37.7599  35.6925 F              1 <1>                0.0000
      4 F4          32.0736  35.6726  35.5058 F              1 <1>                0.0000
      5 C5          31.5801  36.9632  37.4592 C.3            1 <1>                0.0000
      6 C6          30.7940  35.7504  37.9846 C.3            1 <1>                0.0000
      7 C7          29.5477  36.6511  37.9699 C.3            1 <1>                0.0000
      8 C8          29.3333  37.4219  39.2741 C.3            1 <1>                0.0000
      9 S9          28.4223  36.3817  40.4483 S.o2           1 <1>                0.0000
     10 O10         28.3970  35.0323  40.0037 O.2            1 <1>                0.0000
     11 O11         28.7810  36.7063  41.7844 O.2            1 <1>                0.0000
     12 Cl12        26.5050  36.9965  40.2840 Cl             1 <1>                0.0000
     13 C13         30.2512  37.4731  36.8771 C.3            1 <1>                0.0000
     14 H14         31.9842  37.5968  38.2486 H              1 <1>                0.0000
     15 H15         30.7432  34.9230  37.2766 H              1 <1>                0.0000
     16 H16         31.0936  35.4356  38.9842 H              1 <1>                0.0000
     17 H17         28.6466  36.1441  37.6249 H              1 <1>                0.0000
     18 H18         30.2997  37.6905  39.7005 H              1 <1>                0.0000
     19 H19         28.7613  38.3273  39.0712 H              1 <1>                0.0000
     20 H20         30.1125  38.5490  36.9826 H              1 <1>                0.0000
     21 H21         30.0519  37.1168  35.8664 H              1 <1>                0.0000
@<TRIPOS>BOND
    1    1    2 1     
    2    2    3 1     
    3    2    4 1     
    4    2    5 1     
    5    5    6 1     
    6    5   13 1     
    7    5   14 1     
    8    6    7 1     
    9    6   15 1     
   10    6   16 1     
   11    7    8 1     
   12    7   13 1     
   13    7   17 1     
   14    8    9 1     
   15    8   18 1     
   16    8   19 1     
   17    9   10 2     
   18    9   11 2     
   19    9   12 1     
   20   13   20 1     
   21   13   21 1     
@<TRIPOS>SUBSTRUCTURE
      1 ****           1
@<TRIPOS>COMMENT
> <Gold.Version>
2022.2.0

> <Gold.Id.Protein>
1qkm|1qkm_protein|mol2

> <Gold.Protein.RotatedTorsions>
[  496  491  490  487 ] final    4.01 input  -89.99 | X-H torsion

> <Gold.Protein.ActiveResidues>
 MET295  LEU298  THR299  LEU301  ALA302  GLU305  TRP335  MET336  LEU339  MET340 
 GLY342  LEU343  ARG346  PHE356  ILE373  ILE376  PHE377  LEU380  LYS471  GLY472 
 MET473  HIS475  LEU476  LEU477  ASN478  MET479  VAL484  VAL487 

> <Gold.Protein.RotatedAtoms>
   36.2632   34.1557   42.2674 H   0  0  0  0  0  0  0  0  0  0  0  0  # atno 496  bound_to 491 

> <Gold.Score>
     Score     S(PLP)   S(hbond)     S(cho)   S(metal)  DE(clash)   DE(tors)     intcor
     35.12     -36.09       0.00       0.00       0.00       0.00       0.81       0.64

> <Gold.PLP.Fitness>
35.1218

> <Gold.PLP.PLP>
-36.0930

> <Gold.PLP.part.hbond>
0.0000

> <Gold.PLP.part.metal>
0.0000

> <Gold.PLP.part.buried>
-3.5765

> <Gold.PLP.part.nonpolar>
-33.0122

> <Gold.PLP.part.repulsive>
0.2138

> <Gold.PLP.ligand.clash>
0.0000

> <Gold.PLP.ligand.torsion>
0.8075

> <Gold.PLP.Chemscore.Hbond>
0.0000

> <Gold.PLP.Chemscore.CHOScore>
0.0000

> <Gold.PLP.Chemscore.Metal>
0.0000

> <Gold.PLP.Chemscore.Internal.Correction>
0.6438

