#       Name:                EN300-6730942_i002
#       Creating user name   aseyller
#       Creation time:       Fri Apr 21 19:13:36 2023


#       File generated by GOLD software.
#

@<TRIPOS>MOLECULE
EN300-6730942_i002|Sulfonylchlorides|mol2|756|dock20
    21    21     1
SMALL
USER_CHARGES


@<TRIPOS>ATOM
      1 F1          26.7621  36.0457  40.6806 F              1 <1>                0.0000
      2 C2          26.7184  36.5436  39.3740 C.3            1 <1>                0.0000
      3 F3          26.3206  35.5259  38.5002 F              1 <1>                0.0000
      4 F4          25.8030  37.5994  39.3077 F              1 <1>                0.0000
      5 C5          28.1067  37.0462  38.9729 C.3            1 <1>                0.0000
      6 C6          28.2335  37.3772  37.4765 C.3            1 <1>                0.0000
      7 C7          29.6332  36.7430  37.5353 C.3            1 <1>                0.0000
      8 C8          30.7400  37.7336  37.9024 C.3            1 <1>                0.0000
      9 S9          31.3157  38.5792  36.4044 S.o2           1 <1>                0.0000
     10 O10         30.8648  39.9266  36.3878 O.2            1 <1>                0.0000
     11 O11         32.6748  38.2582  36.1418 O.2            1 <1>                0.0000
     12 Cl12        30.2957  37.6938  34.9023 Cl             1 <1>                0.0000
     13 C13         29.1235  35.9185  38.7292 C.3            1 <1>                0.0000
     14 H14         28.4765  37.8354  39.6275 H              1 <1>                0.0000
     15 H15         27.5320  36.8294  36.8472 H              1 <1>                0.0000
     16 H16         28.2472  38.4465  37.2655 H              1 <1>                0.0000
     17 H17         29.8770  36.1413  36.6598 H              1 <1>                0.0000
     18 H18         30.3509  38.4681  38.6075 H              1 <1>                0.0000
     19 H19         31.5715  37.1966  38.3588 H              1 <1>                0.0000
     20 H20         29.8556  35.8102  39.5294 H              1 <1>                0.0000
     21 H21         28.6653  34.9720  38.4424 H              1 <1>                0.0000
@<TRIPOS>BOND
    1    1    2 1     
    2    2    3 1     
    3    2    4 1     
    4    2    5 1     
    5    5    6 1     
    6    5   13 1     
    7    5   14 1     
    8    6    7 1     
    9    6   15 1     
   10    6   16 1     
   11    7    8 1     
   12    7   13 1     
   13    7   17 1     
   14    8    9 1     
   15    8   18 1     
   16    8   19 1     
   17    9   10 2     
   18    9   11 2     
   19    9   12 1     
   20   13   20 1     
   21   13   21 1     
@<TRIPOS>SUBSTRUCTURE
      1 ****           1
@<TRIPOS>COMMENT
> <Gold.Version>
2022.2.0

> <Gold.Id.Protein>
1qkm|1qkm_protein|mol2

> <Gold.Protein.RotatedTorsions>
[  496  491  490  487 ] final  169.58 input  -89.99 | X-H torsion

> <Gold.Protein.ActiveResidues>
 MET295  LEU298  THR299  LEU301  ALA302  GLU305  TRP335  MET336  LEU339  MET340 
 GLY342  LEU343  ARG346  PHE356  ILE373  ILE376  PHE377  LEU380  LYS471  GLY472 
 MET473  HIS475  LEU476  LEU477  ASN478  MET479  VAL484  VAL487 

> <Gold.Protein.RotatedAtoms>
   37.3148   33.3203   40.9641 H   0  0  0  0  0  0  0  0  0  0  0  0  # atno 496  bound_to 491 

> <Gold.Score>
     Score     S(PLP)   S(hbond)     S(cho)   S(metal)  DE(clash)   DE(tors)     intcor
     37.11     -37.32       0.00       0.00       0.00       0.00       0.42       0.64

> <Gold.PLP.Fitness>
37.1111

> <Gold.PLP.PLP>
-37.3178

> <Gold.PLP.part.hbond>
0.0000

> <Gold.PLP.part.metal>
0.0000

> <Gold.PLP.part.buried>
-3.1552

> <Gold.PLP.part.nonpolar>
-34.9528

> <Gold.PLP.part.repulsive>
0.0316

> <Gold.PLP.ligand.clash>
0.0000

> <Gold.PLP.ligand.torsion>
0.4243

> <Gold.PLP.Chemscore.Hbond>
0.0000

> <Gold.PLP.Chemscore.CHOScore>
0.0000

> <Gold.PLP.Chemscore.Metal>
0.0000

> <Gold.PLP.Chemscore.Internal.Correction>
0.6421

