#       Name:                EN300-6730942_i002
#       Creating user name   aseyller
#       Creation time:       Fri Apr 21 19:13:18 2023


#       File generated by GOLD software.
#

@<TRIPOS>MOLECULE
EN300-6730942_i002|Sulfonylchlorides|mol2|756|dock1
    21    21     1
SMALL
USER_CHARGES


@<TRIPOS>ATOM
      1 F1          26.5231  36.9855  40.1477 F              1 <1>                0.0000
      2 C2          27.6620  36.2163  40.4091 C.3            1 <1>                0.0000
      3 F3          28.2984  36.7004  41.5571 F              1 <1>                0.0000
      4 F4          27.2883  34.8832  40.6101 F              1 <1>                0.0000
      5 C5          28.6204  36.3035  39.2196 C.3            1 <1>                0.0000
      6 C6          30.0113  35.7128  39.5047 C.3            1 <1>                0.0000
      7 C7          30.5899  36.8967  38.7117 C.3            1 <1>                0.0000
      8 C8          30.7228  36.6234  37.2122 C.3            1 <1>                0.0000
      9 S9          32.2845  35.7580  36.8915 S.o2           1 <1>                0.0000
     10 O10         32.3878  35.4079  35.5182 O.2            1 <1>                0.0000
     11 O11         33.3577  36.3993  37.5668 O.2            1 <1>                0.0000
     12 Cl12        32.0842  33.9875  37.8432 Cl             1 <1>                0.0000
     13 C13         29.3142  37.6694  39.0864 C.3            1 <1>                0.0000
     14 H14         28.1760  35.9456  38.2910 H              1 <1>                0.0000
     15 H15         30.2812  35.7211  40.5608 H              1 <1>                0.0000
     16 H16         30.1805  34.7458  39.0311 H              1 <1>                0.0000
     17 H17         31.4980  37.3125  39.1483 H              1 <1>                0.0000
     18 H18         29.8895  36.0042  36.8805 H              1 <1>                0.0000
     19 H19         30.7126  37.5680  36.6684 H              1 <1>                0.0000
     20 H20         28.9206  38.2818  38.2752 H              1 <1>                0.0000
     21 H21         29.3935  38.2126  40.0281 H              1 <1>                0.0000
@<TRIPOS>BOND
    1    1    2 1     
    2    2    3 1     
    3    2    4 1     
    4    2    5 1     
    5    5    6 1     
    6    5   13 1     
    7    5   14 1     
    8    6    7 1     
    9    6   15 1     
   10    6   16 1     
   11    7    8 1     
   12    7   13 1     
   13    7   17 1     
   14    8    9 1     
   15    8   18 1     
   16    8   19 1     
   17    9   10 2     
   18    9   11 2     
   19    9   12 1     
   20   13   20 1     
   21   13   21 1     
@<TRIPOS>SUBSTRUCTURE
      1 ****           1
@<TRIPOS>COMMENT
> <Gold.Version>
2022.2.0

> <Gold.Id.Protein>
1qkm|1qkm_protein|mol2

> <Gold.Protein.RotatedTorsions>
[  496  491  490  487 ] final  178.31 input  -89.99 | X-H torsion

> <Gold.Protein.ActiveResidues>
 MET295  LEU298  THR299  LEU301  ALA302  GLU305  TRP335  MET336  LEU339  MET340 
 GLY342  LEU343  ARG346  PHE356  ILE373  ILE376  PHE377  LEU380  LYS471  GLY472 
 MET473  HIS475  LEU476  LEU477  ASN478  MET479  VAL484  VAL487 

> <Gold.Protein.RotatedAtoms>
   37.3186   33.4378   40.8816 H   0  0  0  0  0  0  0  0  0  0  0  0  # atno 496  bound_to 491 

> <Gold.Score>
     Score     S(PLP)   S(hbond)     S(cho)   S(metal)  DE(clash)   DE(tors)     intcor
     37.27     -37.45       0.00       0.00       0.00       0.00       0.41       0.64

> <Gold.PLP.Fitness>
37.2737

> <Gold.PLP.PLP>
-37.4544

> <Gold.PLP.part.hbond>
0.0000

> <Gold.PLP.part.metal>
0.0000

> <Gold.PLP.part.buried>
-2.4550

> <Gold.PLP.part.nonpolar>
-34.6657

> <Gold.PLP.part.repulsive>
0.0880

> <Gold.PLP.ligand.clash>
0.0000

> <Gold.PLP.ligand.torsion>
0.4122

> <Gold.PLP.Chemscore.Hbond>
0.0000

> <Gold.PLP.Chemscore.CHOScore>
0.0000

> <Gold.PLP.Chemscore.Metal>
0.0000

> <Gold.PLP.Chemscore.Internal.Correction>
0.6438

