#       Name:                EN300-6730942_i002
#       Creating user name   aseyller
#       Creation time:       Fri Apr 21 19:13:35 2023


#       File generated by GOLD software.
#

@<TRIPOS>MOLECULE
EN300-6730942_i002|Sulfonylchlorides|mol2|756|dock19
    21    21     1
SMALL
USER_CHARGES


@<TRIPOS>ATOM
      1 F1          32.7495  36.0525  35.7195 F              1 <1>                0.0000
      2 C2          32.4071  35.7918  37.0507 C.3            1 <1>                0.0000
      3 F3          32.5012  34.4176  37.2959 F              1 <1>                0.0000
      4 F4          33.2816  36.4780  37.9001 F              1 <1>                0.0000
      5 C5          30.9734  36.2590  37.3094 C.3            1 <1>                0.0000
      6 C6          30.8333  37.7866  37.4177 C.3            1 <1>                0.0000
      7 C7          29.8423  37.5355  38.5665 C.3            1 <1>                0.0000
      8 C8          28.3924  37.3823  38.1026 C.3            1 <1>                0.0000
      9 S9          27.4498  36.4703  39.3557 S.o2           1 <1>                0.0000
     10 O10         26.9480  35.2554  38.8159 O.2            1 <1>                0.0000
     11 O11         28.1284  36.4924  40.6040 O.2            1 <1>                0.0000
     12 Cl12        25.8015  37.5964  39.6650 Cl             1 <1>                0.0000
     13 C13         30.5624  36.1952  38.7900 C.3            1 <1>                0.0000
     14 H14         30.2506  35.8010  36.6342 H              1 <1>                0.0000
     15 H15         31.7487  38.2878  37.7324 H              1 <1>                0.0000
     16 H16         30.3778  38.2465  36.5407 H              1 <1>                0.0000
     17 H17         29.9497  38.2341  39.3962 H              1 <1>                0.0000
     18 H18         27.9499  38.3684  37.9614 H              1 <1>                0.0000
     19 H19         28.3683  36.8350  37.1603 H              1 <1>                0.0000
     20 H20         29.8882  35.3705  39.0209 H              1 <1>                0.0000
     21 H21         31.4037  36.2613  39.4799 H              1 <1>                0.0000
@<TRIPOS>BOND
    1    1    2 1     
    2    2    3 1     
    3    2    4 1     
    4    2    5 1     
    5    5    6 1     
    6    5   13 1     
    7    5   14 1     
    8    6    7 1     
    9    6   15 1     
   10    6   16 1     
   11    7    8 1     
   12    7   13 1     
   13    7   17 1     
   14    8    9 1     
   15    8   18 1     
   16    8   19 1     
   17    9   10 2     
   18    9   11 2     
   19    9   12 1     
   20   13   20 1     
   21   13   21 1     
@<TRIPOS>SUBSTRUCTURE
      1 ****           1
@<TRIPOS>COMMENT
> <Gold.Version>
2022.2.0

> <Gold.Id.Protein>
1qkm|1qkm_protein|mol2

> <Gold.Protein.RotatedTorsions>
[  496  491  490  487 ] final -111.96 input  -89.99 | X-H torsion

> <Gold.Protein.ActiveResidues>
 MET295  LEU298  THR299  LEU301  ALA302  GLU305  TRP335  MET336  LEU339  MET340 
 GLY342  LEU343  ARG346  PHE356  ILE373  ILE376  PHE377  LEU380  LYS471  GLY472 
 MET473  HIS475  LEU476  LEU477  ASN478  MET479  VAL484  VAL487 

> <Gold.Protein.RotatedAtoms>
   36.9575   34.4535   40.8576 H   0  0  0  0  0  0  0  0  0  0  0  0  # atno 496  bound_to 491 

> <Gold.Score>
     Score     S(PLP)   S(hbond)     S(cho)   S(metal)  DE(clash)   DE(tors)     intcor
     38.92     -39.26       0.00       0.00       0.00       0.00       0.49       0.64

> <Gold.PLP.Fitness>
38.9204

> <Gold.PLP.PLP>
-39.2632

> <Gold.PLP.part.hbond>
0.0000

> <Gold.PLP.part.metal>
0.0000

> <Gold.PLP.part.buried>
-2.4678

> <Gold.PLP.part.nonpolar>
-37.6147

> <Gold.PLP.part.repulsive>
0.1200

> <Gold.PLP.ligand.clash>
0.0000

> <Gold.PLP.ligand.torsion>
0.4924

> <Gold.PLP.Chemscore.Hbond>
0.0000

> <Gold.PLP.Chemscore.CHOScore>
0.0000

> <Gold.PLP.Chemscore.Metal>
0.0000

> <Gold.PLP.Chemscore.Internal.Correction>
0.6421

