#       Name:                EN300-6730942_i002
#       Creating user name   aseyller
#       Creation time:       Fri Apr 21 19:13:18 2023


#       File generated by GOLD software.
#

@<TRIPOS>MOLECULE
EN300-6730942_i002|Sulfonylchlorides|mol2|756|dock2
    21    21     1
SMALL
USER_CHARGES


@<TRIPOS>ATOM
      1 F1          26.7968  36.9897  40.4653 F              1 <1>                0.0000
      2 C2          28.0295  36.3440  40.6088 C.3            1 <1>                0.0000
      3 F3          28.4940  36.5112  41.9179 F              1 <1>                0.0000
      4 F4          27.8756  34.9798  40.3394 F              1 <1>                0.0000
      5 C5          29.0382  36.9467  39.6289 C.3            1 <1>                0.0000
      6 C6          28.6841  36.7025  38.1525 C.3            1 <1>                0.0000
      7 C7          30.1842  36.4611  37.9143 C.3            1 <1>                0.0000
      8 C8          30.9628  37.7330  37.5722 C.3            1 <1>                0.0000
      9 S9          30.8526  38.0480  35.7891 S.o2           1 <1>                0.0000
     10 O10         30.1267  37.0110  35.1434 O.2            1 <1>                0.0000
     11 O11         30.5539  39.4150  35.5418 O.2            1 <1>                0.0000
     12 Cl12        32.7452  37.8228  35.1197 Cl             1 <1>                0.0000
     13 C13         30.2752  36.0631  39.3969 C.3            1 <1>                0.0000
     14 H14         29.2782  37.9857  39.8542 H              1 <1>                0.0000
     15 H15         28.0685  35.8174  37.9917 H              1 <1>                0.0000
     16 H16         28.2980  37.5860  37.6441 H              1 <1>                0.0000
     17 H17         30.3906  35.6407  37.2270 H              1 <1>                0.0000
     18 H18         30.5386  38.5763  38.1170 H              1 <1>                0.0000
     19 H19         32.0078  37.6063  37.8548 H              1 <1>                0.0000
     20 H20         31.1735  36.4303  39.8932 H              1 <1>                0.0000
     21 H21         30.0946  35.0032  39.5763 H              1 <1>                0.0000
@<TRIPOS>BOND
    1    1    2 1     
    2    2    3 1     
    3    2    4 1     
    4    2    5 1     
    5    5    6 1     
    6    5   13 1     
    7    5   14 1     
    8    6    7 1     
    9    6   15 1     
   10    6   16 1     
   11    7    8 1     
   12    7   13 1     
   13    7   17 1     
   14    8    9 1     
   15    8   18 1     
   16    8   19 1     
   17    9   10 2     
   18    9   11 2     
   19    9   12 1     
   20   13   20 1     
   21   13   21 1     
@<TRIPOS>SUBSTRUCTURE
      1 ****           1
@<TRIPOS>COMMENT
> <Gold.Version>
2022.2.0

> <Gold.Id.Protein>
1qkm|1qkm_protein|mol2

> <Gold.Protein.RotatedTorsions>
[  496  491  490  487 ] final   96.94 input  -89.99 | X-H torsion

> <Gold.Protein.ActiveResidues>
 MET295  LEU298  THR299  LEU301  ALA302  GLU305  TRP335  MET336  LEU339  MET340 
 GLY342  LEU343  ARG346  PHE356  ILE373  ILE376  PHE377  LEU380  LYS471  GLY472 
 MET473  HIS475  LEU476  LEU477  ASN478  MET479  VAL484  VAL487 

> <Gold.Protein.RotatedAtoms>
   36.8839   32.9825   41.9381 H   0  0  0  0  0  0  0  0  0  0  0  0  # atno 496  bound_to 491 

> <Gold.Score>
     Score     S(PLP)   S(hbond)     S(cho)   S(metal)  DE(clash)   DE(tors)     intcor
     38.26     -38.59       0.00       0.00       0.00       0.00       0.49       0.64

> <Gold.PLP.Fitness>
38.2556

> <Gold.PLP.PLP>
-38.5877

> <Gold.PLP.part.hbond>
0.0000

> <Gold.PLP.part.metal>
0.0000

> <Gold.PLP.part.buried>
-2.8955

> <Gold.PLP.part.nonpolar>
-35.5891

> <Gold.PLP.part.repulsive>
0.0491

> <Gold.PLP.ligand.clash>
0.0000

> <Gold.PLP.ligand.torsion>
0.4879

> <Gold.PLP.Chemscore.Hbond>
0.0000

> <Gold.PLP.Chemscore.CHOScore>
0.0000

> <Gold.PLP.Chemscore.Metal>
0.0000

> <Gold.PLP.Chemscore.Internal.Correction>
0.6438

