#       Name:                EN300-6730942_i002
#       Creating user name   aseyller
#       Creation time:       Fri Apr 21 19:13:20 2023


#       File generated by GOLD software.
#

@<TRIPOS>MOLECULE
EN300-6730942_i002|Sulfonylchlorides|mol2|756|dock4
    21    21     1
SMALL
USER_CHARGES


@<TRIPOS>ATOM
      1 F1          26.3851  35.4223  38.7376 F              1 <1>                0.0000
      2 C2          26.6042  36.5542  39.5301 C.3            1 <1>                0.0000
      3 F3          25.5043  37.4130  39.4308 F              1 <1>                0.0000
      4 F4          26.7729  36.1646  40.8631 F              1 <1>                0.0000
      5 C5          27.8623  37.2789  39.0475 C.3            1 <1>                0.0000
      6 C6          28.0292  37.2718  37.5188 C.3            1 <1>                0.0000
      7 C7          29.5296  37.0383  37.7624 C.3            1 <1>                0.0000
      8 C8          30.3369  38.3309  37.8976 C.3            1 <1>                0.0000
      9 S9          30.1302  39.3323  36.3992 S.o2           1 <1>                0.0000
     10 O10         28.7514  39.5259  36.1152 O.2            1 <1>                0.0000
     11 O11         31.0383  40.4252  36.4007 O.2            1 <1>                0.0000
     12 Cl12        30.7848  38.1426  34.9037 Cl             1 <1>                0.0000
     13 C13         29.1334  36.4155  39.1115 C.3            1 <1>                0.0000
     14 H14         27.9803  38.2657  39.4950 H              1 <1>                0.0000
     15 H15         27.5310  36.4350  37.0290 H              1 <1>                0.0000
     16 H16         27.8069  38.2308  37.0508 H              1 <1>                0.0000
     17 H17         29.9795  36.3289  37.0678 H              1 <1>                0.0000
     18 H18         29.9819  38.8924  38.7617 H              1 <1>                0.0000
     19 H19         31.3913  38.0886  38.0300 H              1 <1>                0.0000
     20 H20         29.8024  36.6832  39.9293 H              1 <1>                0.0000
     21 H21         28.9370  35.3447  39.0572 H              1 <1>                0.0000
@<TRIPOS>BOND
    1    1    2 1     
    2    2    3 1     
    3    2    4 1     
    4    2    5 1     
    5    5    6 1     
    6    5   13 1     
    7    5   14 1     
    8    6    7 1     
    9    6   15 1     
   10    6   16 1     
   11    7    8 1     
   12    7   13 1     
   13    7   17 1     
   14    8    9 1     
   15    8   18 1     
   16    8   19 1     
   17    9   10 2     
   18    9   11 2     
   19    9   12 1     
   20   13   20 1     
   21   13   21 1     
@<TRIPOS>SUBSTRUCTURE
      1 ****           1
@<TRIPOS>COMMENT
> <Gold.Version>
2022.2.0

> <Gold.Id.Protein>
1qkm|1qkm_protein|mol2

> <Gold.Protein.RotatedTorsions>
[  496  491  490  487 ] final  163.57 input  -89.99 | X-H torsion

> <Gold.Protein.ActiveResidues>
 MET295  LEU298  THR299  LEU301  ALA302  GLU305  TRP335  MET336  LEU339  MET340 
 GLY342  LEU343  ARG346  PHE356  ILE373  ILE376  PHE377  LEU380  LYS471  GLY472 
 MET473  HIS475  LEU476  LEU477  ASN478  MET479  VAL484  VAL487 

> <Gold.Protein.RotatedAtoms>
   37.3051   33.2463   41.0290 H   0  0  0  0  0  0  0  0  0  0  0  0  # atno 496  bound_to 491 

> <Gold.Score>
     Score     S(PLP)   S(hbond)     S(cho)   S(metal)  DE(clash)   DE(tors)     intcor
     36.21     -36.66       0.00       0.00       0.00       0.00       0.55       0.64

> <Gold.PLP.Fitness>
36.2136

> <Gold.PLP.PLP>
-36.6602

> <Gold.PLP.part.hbond>
0.0000

> <Gold.PLP.part.metal>
0.0000

> <Gold.PLP.part.buried>
-1.0153

> <Gold.PLP.part.nonpolar>
-35.8182

> <Gold.PLP.part.repulsive>
0.0000

> <Gold.PLP.ligand.clash>
0.0000

> <Gold.PLP.ligand.torsion>
0.5452

> <Gold.PLP.Chemscore.Hbond>
0.0000

> <Gold.PLP.Chemscore.CHOScore>
0.0000

> <Gold.PLP.Chemscore.Metal>
0.0000

> <Gold.PLP.Chemscore.Internal.Correction>
0.6438

