#       Name:                EN300-6730942_i002
#       Creating user name   aseyller
#       Creation time:       Fri Apr 21 19:13:19 2023


#       File generated by GOLD software.
#

@<TRIPOS>MOLECULE
EN300-6730942_i002|Sulfonylchlorides|mol2|756|dock3
    21    21     1
SMALL
USER_CHARGES


@<TRIPOS>ATOM
      1 F1          32.3952  36.3148  35.3570 F              1 <1>                0.0000
      2 C2          31.8358  37.5891  35.4998 C.3            1 <1>                0.0000
      3 F3          32.6554  38.3687  36.3231 F              1 <1>                0.0000
      4 F4          31.7268  38.1940  34.2430 F              1 <1>                0.0000
      5 C5          30.4468  37.4686  36.1300 C.3            1 <1>                0.0000
      6 C6          29.7967  38.8246  36.4518 C.3            1 <1>                0.0000
      7 C7          29.2911  38.1840  37.7553 C.3            1 <1>                0.0000
      8 C8          27.9278  37.5038  37.6152 C.3            1 <1>                0.0000
      9 S9          27.5624  36.5655  39.1241 S.o2           1 <1>                0.0000
     10 O10         27.2669  35.2115  38.8101 O.2            1 <1>                0.0000
     11 O11         28.4869  36.8943  40.1518 O.2            1 <1>                0.0000
     12 Cl12        25.8054  37.3210  39.7743 Cl             1 <1>                0.0000
     13 C13         30.4783  37.2127  37.6461 C.3            1 <1>                0.0000
     14 H14         29.7921  36.7890  35.5847 H              1 <1>                0.0000
     15 H15         30.5168  39.6274  36.6105 H              1 <1>                0.0000
     16 H16         28.9985  39.1007  35.7627 H              1 <1>                0.0000
     17 H17         29.3462  38.8478  38.6180 H              1 <1>                0.0000
     18 H18         27.1582  38.2603  37.4624 H              1 <1>                0.0000
     19 H19         27.9459  36.8263  36.7615 H              1 <1>                0.0000
     20 H20         30.2305  36.1875  37.9211 H              1 <1>                0.0000
     21 H21         31.3848  37.5748  38.1312 H              1 <1>                0.0000
@<TRIPOS>BOND
    1    1    2 1     
    2    2    3 1     
    3    2    4 1     
    4    2    5 1     
    5    5    6 1     
    6    5   13 1     
    7    5   14 1     
    8    6    7 1     
    9    6   15 1     
   10    6   16 1     
   11    7    8 1     
   12    7   13 1     
   13    7   17 1     
   14    8    9 1     
   15    8   18 1     
   16    8   19 1     
   17    9   10 2     
   18    9   11 2     
   19    9   12 1     
   20   13   20 1     
   21   13   21 1     
@<TRIPOS>SUBSTRUCTURE
      1 ****           1
@<TRIPOS>COMMENT
> <Gold.Version>
2022.2.0

> <Gold.Id.Protein>
1qkm|1qkm_protein|mol2

> <Gold.Protein.RotatedTorsions>
[  496  491  490  487 ] final -138.88 input  -89.99 | X-H torsion

> <Gold.Protein.ActiveResidues>
 MET295  LEU298  THR299  LEU301  ALA302  GLU305  TRP335  MET336  LEU339  MET340 
 GLY342  LEU343  ARG346  PHE356  ILE373  ILE376  PHE377  LEU380  LYS471  GLY472 
 MET473  HIS475  LEU476  LEU477  ASN478  MET479  VAL484  VAL487 

> <Gold.Protein.RotatedAtoms>
   37.1666   34.0909   40.7255 H   0  0  0  0  0  0  0  0  0  0  0  0  # atno 496  bound_to 491 

> <Gold.Score>
     Score     S(PLP)   S(hbond)     S(cho)   S(metal)  DE(clash)   DE(tors)     intcor
     38.73     -38.84       0.00       0.00       0.00       0.00       0.38       0.64

> <Gold.PLP.Fitness>
38.7306

> <Gold.PLP.PLP>
-38.8414

> <Gold.PLP.part.hbond>
0.0000

> <Gold.PLP.part.metal>
0.0000

> <Gold.PLP.part.buried>
-2.4418

> <Gold.PLP.part.nonpolar>
-37.2181

> <Gold.PLP.part.repulsive>
0.0523

> <Gold.PLP.ligand.clash>
0.0000

> <Gold.PLP.ligand.torsion>
0.3773

> <Gold.PLP.Chemscore.Hbond>
0.0000

> <Gold.PLP.Chemscore.CHOScore>
0.0000

> <Gold.PLP.Chemscore.Metal>
0.0000

> <Gold.PLP.Chemscore.Internal.Correction>
0.6438

