#       Name:                EN300-6730942_i002
#       Creating user name   aseyller
#       Creation time:       Fri Apr 21 19:13:28 2023


#       File generated by GOLD software.
#

@<TRIPOS>MOLECULE
EN300-6730942_i002|Sulfonylchlorides|mol2|756|dock13
    21    21     1
SMALL
USER_CHARGES


@<TRIPOS>ATOM
      1 F1          28.3535  36.7049  40.3689 F              1 <1>                0.0000
      2 C2          27.7104  36.4738  39.1482 C.3            1 <1>                0.0000
      3 F3          27.3117  35.1346  39.0774 F              1 <1>                0.0000
      4 F4          26.5864  37.3008  39.0494 F              1 <1>                0.0000
      5 C5          28.6723  36.7810  37.9988 C.3            1 <1>                0.0000
      6 C6          30.1245  36.3618  38.2819 C.3            1 <1>                0.0000
      7 C7          30.5529  37.6707  37.5976 C.3            1 <1>                0.0000
      8 C8          30.7525  37.5354  36.0867 C.3            1 <1>                0.0000
      9 S9          32.3531  36.7482  35.7565 S.o2           1 <1>                0.0000
     10 O10         32.1669  35.4534  35.2013 O.2            1 <1>                0.0000
     11 O11         33.2528  37.6761  35.1660 O.2            1 <1>                0.0000
     12 Cl12        33.1299  36.3979  37.5881 Cl             1 <1>                0.0000
     13 C13         29.1765  38.2339  37.9891 C.3            1 <1>                0.0000
     14 H14         28.2999  36.4403  37.0327 H              1 <1>                0.0000
     15 H15         30.3689  36.3238  39.3435 H              1 <1>                0.0000
     16 H16         30.4333  35.4660  37.7431 H              1 <1>                0.0000
     17 H17         31.3867  38.1691  38.0918 H              1 <1>                0.0000
     18 H18         29.9535  36.9237  35.6679 H              1 <1>                0.0000
     19 H19         30.7322  38.5238  35.6276 H              1 <1>                0.0000
     20 H20         28.7200  38.8493  37.2140 H              1 <1>                0.0000
     21 H21         29.1617  38.7077  38.9706 H              1 <1>                0.0000
@<TRIPOS>BOND
    1    1    2 1     
    2    2    3 1     
    3    2    4 1     
    4    2    5 1     
    5    5    6 1     
    6    5   13 1     
    7    5   14 1     
    8    6    7 1     
    9    6   15 1     
   10    6   16 1     
   11    7    8 1     
   12    7   13 1     
   13    7   17 1     
   14    8    9 1     
   15    8   18 1     
   16    8   19 1     
   17    9   10 2     
   18    9   11 2     
   19    9   12 1     
   20   13   20 1     
   21   13   21 1     
@<TRIPOS>SUBSTRUCTURE
      1 ****           1
@<TRIPOS>COMMENT
> <Gold.Version>
2022.2.0

> <Gold.Id.Protein>
1qkm|1qkm_protein|mol2

> <Gold.Protein.RotatedTorsions>
[  496  491  490  487 ] final  114.61 input  -89.99 | X-H torsion

> <Gold.Protein.ActiveResidues>
 MET295  LEU298  THR299  LEU301  ALA302  GLU305  TRP335  MET336  LEU339  MET340 
 GLY342  LEU343  ARG346  PHE356  ILE373  ILE376  PHE377  LEU380  LYS471  GLY472 
 MET473  HIS475  LEU476  LEU477  ASN478  MET479  VAL484  VAL487 

> <Gold.Protein.RotatedAtoms>
   37.0377   32.9395   41.6963 H   0  0  0  0  0  0  0  0  0  0  0  0  # atno 496  bound_to 491 

> <Gold.Score>
     Score     S(PLP)   S(hbond)     S(cho)   S(metal)  DE(clash)   DE(tors)     intcor
     36.55     -36.89       0.00       0.00       0.00       0.00       0.49       0.64

> <Gold.PLP.Fitness>
36.5482

> <Gold.PLP.PLP>
-36.8869

> <Gold.PLP.part.hbond>
0.0000

> <Gold.PLP.part.metal>
0.0000

> <Gold.PLP.part.buried>
-2.4332

> <Gold.PLP.part.nonpolar>
-35.1801

> <Gold.PLP.part.repulsive>
0.2190

> <Gold.PLP.ligand.clash>
0.0000

> <Gold.PLP.ligand.torsion>
0.4913

> <Gold.PLP.Chemscore.Hbond>
0.0000

> <Gold.PLP.Chemscore.CHOScore>
0.0000

> <Gold.PLP.Chemscore.Metal>
0.0000

> <Gold.PLP.Chemscore.Internal.Correction>
0.6438

