#       Name:                EN300-6730942_i002
#       Creating user name   aseyller
#       Creation time:       Fri Apr 21 19:13:20 2023


#       File generated by GOLD software.
#

@<TRIPOS>MOLECULE
EN300-6730942_i002|Sulfonylchlorides|mol2|756|dock5
    21    21     1
SMALL
USER_CHARGES


@<TRIPOS>ATOM
      1 F1          26.6232  37.0089  40.4334 F              1 <1>                0.0000
      2 C2          27.8172  36.2997  40.6022 C.3            1 <1>                0.0000
      3 F3          28.2329  36.3967  41.9345 F              1 <1>                0.0000
      4 F4          27.6112  34.9552  40.2747 F              1 <1>                0.0000
      5 C5          28.8936  36.8881  39.6879 C.3            1 <1>                0.0000
      6 C6          28.5737  36.7480  38.1902 C.3            1 <1>                0.0000
      7 C7          30.0625  36.4231  37.9830 C.3            1 <1>                0.0000
      8 C8          30.9308  37.6585  37.7362 C.3            1 <1>                0.0000
      9 S9          30.9895  38.0105  35.9576 S.o2           1 <1>                0.0000
     10 O10         32.3355  38.0850  35.5082 O.2            1 <1>                0.0000
     11 O11         30.0272  37.2294  35.2627 O.2            1 <1>                0.0000
     12 Cl12        30.3047  39.9041  35.7958 Cl             1 <1>                0.0000
     13 C13         30.0794  35.9400  39.4429 C.3            1 <1>                0.0000
     14 H14         29.1913  37.8955  39.9784 H              1 <1>                0.0000
     15 H15         27.9091  35.9148  37.9618 H              1 <1>                0.0000
     16 H16         28.2611  37.6810  37.7214 H              1 <1>                0.0000
     17 H17         30.2393  35.6296  37.2570 H              1 <1>                0.0000
     18 H18         30.5047  38.5129  38.2619 H              1 <1>                0.0000
     19 H19         31.9401  37.4724  38.1032 H              1 <1>                0.0000
     20 H20         30.9822  36.2207  39.9853 H              1 <1>                0.0000
     21 H21         29.8264  34.8859  39.5569 H              1 <1>                0.0000
@<TRIPOS>BOND
    1    1    2 1     
    2    2    3 1     
    3    2    4 1     
    4    2    5 1     
    5    5    6 1     
    6    5   13 1     
    7    5   14 1     
    8    6    7 1     
    9    6   15 1     
   10    6   16 1     
   11    7    8 1     
   12    7   13 1     
   13    7   17 1     
   14    8    9 1     
   15    8   18 1     
   16    8   19 1     
   17    9   10 2     
   18    9   11 2     
   19    9   12 1     
   20   13   20 1     
   21   13   21 1     
@<TRIPOS>SUBSTRUCTURE
      1 ****           1
@<TRIPOS>COMMENT
> <Gold.Version>
2022.2.0

> <Gold.Id.Protein>
1qkm|1qkm_protein|mol2

> <Gold.Protein.RotatedTorsions>
[  496  491  490  487 ] final   29.73 input  -89.99 | X-H torsion

> <Gold.Protein.ActiveResidues>
 MET295  LEU298  THR299  LEU301  ALA302  GLU305  TRP335  MET336  LEU339  MET340 
 GLY342  LEU343  ARG346  PHE356  ILE373  ILE376  PHE377  LEU380  LYS471  GLY472 
 MET473  HIS475  LEU476  LEU477  ASN478  MET479  VAL484  VAL487 

> <Gold.Protein.RotatedAtoms>
   36.3450   33.7596   42.3803 H   0  0  0  0  0  0  0  0  0  0  0  0  # atno 496  bound_to 491 

> <Gold.Score>
     Score     S(PLP)   S(hbond)     S(cho)   S(metal)  DE(clash)   DE(tors)     intcor
     37.04     -37.45       0.00       0.00       0.00       0.00       0.53       0.64

> <Gold.PLP.Fitness>
37.0361

> <Gold.PLP.PLP>
-37.4529

> <Gold.PLP.part.hbond>
0.0000

> <Gold.PLP.part.metal>
0.0000

> <Gold.PLP.part.buried>
-2.4980

> <Gold.PLP.part.nonpolar>
-35.4784

> <Gold.PLP.part.repulsive>
0.0975

> <Gold.PLP.ligand.clash>
0.0000

> <Gold.PLP.ligand.torsion>
0.5303

> <Gold.PLP.Chemscore.Hbond>
0.0000

> <Gold.PLP.Chemscore.CHOScore>
0.0000

> <Gold.PLP.Chemscore.Metal>
0.0000

> <Gold.PLP.Chemscore.Internal.Correction>
0.6438

