#       Name:                plp ligand
#       Creating user name   aseyller
#       Creation time:       Fri Apr 21 19:13:17 2023


#       File generated by GOLD software.
#

@<TRIPOS>MOLECULE
plp ligand
    21    21     1
SMALL
USER_CHARGES


@<TRIPOS>ATOM
      1 F1          -3.1312  -0.7718   0.8402 NONPOLAR       1 <1>                0.0000
      2 C2          -2.8319   0.4428   0.2139 NONPOLAR       1 <1>                0.0000
      3 F3          -3.5595   0.5454  -0.9766 NONPOLAR       1 <1>                0.0000
      4 F4          -3.1738   1.5015   1.0621 NONPOLAR       1 <1>                0.0000
      5 C5          -1.3349   0.5012  -0.0967 NONPOLAR       1 <1>                0.0000
      6 C6          -0.8543  -0.6253  -1.0267 NONPOLAR       1 <1>                0.0000
      7 C7           0.4017  -0.7117  -0.1435 NONPOLAR       1 <1>                0.0000
      8 C8           1.5327   0.2149  -0.5942 NONPOLAR       1 <1>                0.0000
      9 S9           3.0016  -0.0827   0.4278 NONPOLAR       1 <1>                0.0000
     10 O10          2.7770   0.3514   1.7621 ACCEPTOR       1 <1>                0.0000
     11 O11          3.5455  -1.3672   0.1570 ACCEPTOR       1 <1>                0.0000
     12 Cl12         4.3835   1.2046  -0.2890 NONPOLAR       1 <1>                0.0000
     13 C13         -0.4543  -0.1307   0.9943 NONPOLAR       1 <1>                0.0000
     14 H14         -1.0051   1.4930  -0.4057                1 <1>                0.0000
     15 H15         -1.4774  -1.5189  -0.9883                1 <1>                0.0000
     16 H16         -0.6502  -0.2938  -2.0448                1 <1>                0.0000
     17 H17          0.7379  -1.7324   0.0387                1 <1>                0.0000
     18 H18          1.7707   0.0161  -1.6391                1 <1>                0.0000
     19 H19          1.2178   1.2526  -0.4843                1 <1>                0.0000
     20 H20          0.0727   0.6001   1.6077                1 <1>                0.0000
     21 H21         -0.9680  -0.8890   1.5852                1 <1>                0.0000
@<TRIPOS>BOND
    1    1    2 1     
    2    2    3 1     
    3    2    4 1     
    4    2    5 1     
    5    5    6 1     
    6    5   13 1     
    7    5   14 1     
    8    6    7 1     
    9    6   15 1     
   10    6   16 1     
   11    7    8 1     
   12    7   13 1     
   13    7   17 1     
   14    8    9 1     
   15    8   18 1     
   16    8   19 1     
   17    9   10 2     
   18    9   11 2     
   19    9   12 1     
   20   13   20 1     
   21   13   21 1     
@<TRIPOS>SUBSTRUCTURE
      1 ****           1
@<TRIPOS>SET
DONOR_HYDROGENS      STATIC     ATOMS    <user>   **** ""
0
ATOM$RED        STATIC     ATOMS    COLORGROUP SYSTEM
0
