#       Name:                EN300-7430310_i001
#       Creating user name   aseyller
#       Creation time:       Fri Apr 21 20:16:55 2023


#       File generated by GOLD software.
#

@<TRIPOS>MOLECULE
EN300-7430310_i001|Sulfonylchlorides|mol2|1046|dock7
    27    27     1
SMALL
USER_CHARGES


@<TRIPOS>ATOM
      1 C1          32.0947  38.2850  36.5784 C.3            1 <1>                0.0000
      2 C2          31.1608  37.1970  36.0446 C.3            1 <1>                0.0000
      3 C3          30.3185  37.7643  34.9003 C.3            1 <1>                0.0000
      4 C4          31.9912  36.0189  35.5313 C.3            1 <1>                0.0000
      5 C5          30.2389  36.7198  37.1685 C.3            1 <1>                0.0000
      6 C6          29.5367  37.8649  37.9174 C.3            1 <1>                0.0000
      7 C7          29.7870  37.0685  39.2089 C.3            1 <1>                0.0000
      8 C8          30.9763  36.4171  38.4836 C.3            1 <1>                0.0000
      9 S9          28.4565  35.9038  39.6138 S.o2           1 <1>                0.0000
     10 O10         28.7508  34.6121  39.0997 O.2            1 <1>                0.0000
     11 O11         28.0336  36.0780  40.9592 O.2            1 <1>                0.0000
     12 Cl12        26.8841  36.5320  38.5121 Cl             1 <1>                0.0000
     13 H13         31.5047  39.0719  37.0484 H              1 <1>                0.0000
     14 H14         32.7741  37.8525  37.3130 H              1 <1>                0.0000
     15 H15         32.6708  38.7058  35.7543 H              1 <1>                0.0000
     16 H16         30.9753  38.1043  34.0996 H              1 <1>                0.0000
     17 H17         29.6531  36.9892  34.5200 H              1 <1>                0.0000
     18 H18         29.7269  38.6036  35.2660 H              1 <1>                0.0000
     19 H19         32.5913  35.6148  36.3466 H              1 <1>                0.0000
     20 H20         31.3259  35.2438  35.1510 H              1 <1>                0.0000
     21 H21         32.6480  36.3589  34.7306 H              1 <1>                0.0000
     22 H22         29.5627  35.9253  36.8528 H              1 <1>                0.0000
     23 H23         30.0777  38.8102  37.8756 H              1 <1>                0.0000
     24 H24         28.4812  37.9684  37.6660 H              1 <1>                0.0000
     25 H25         30.0791  37.6899  40.0554 H              1 <1>                0.0000
     26 H26         31.0830  35.3520  38.6892 H              1 <1>                0.0000
     27 H27         31.9108  36.9667  38.5966 H              1 <1>                0.0000
@<TRIPOS>BOND
    1    1    2 1     
    2    1   13 1     
    3    1   14 1     
    4    1   15 1     
    5    2    3 1     
    6    2    4 1     
    7    2    5 1     
    8    3   16 1     
    9    3   17 1     
   10    3   18 1     
   11    4   19 1     
   12    4   20 1     
   13    4   21 1     
   14    5    6 1     
   15    5    8 1     
   16    5   22 1     
   17    6    7 1     
   18    6   23 1     
   19    6   24 1     
   20    7    8 1     
   21    7    9 1     
   22    7   25 1     
   23    8   26 1     
   24    8   27 1     
   25    9   10 2     
   26    9   11 2     
   27    9   12 1     
@<TRIPOS>SUBSTRUCTURE
      1 ****           1
@<TRIPOS>COMMENT
> <Gold.Version>
2022.2.0

> <Gold.Id.Protein>
1qkm|1qkm_protein|mol2

> <Gold.Protein.RotatedTorsions>
[  496  491  490  487 ] final   79.85 input  -89.99 | X-H torsion

> <Gold.Protein.ActiveResidues>
 MET295  LEU298  THR299  LEU301  ALA302  GLU305  TRP335  MET336  LEU339  MET340 
 GLY342  LEU343  ARG346  PHE356  ILE373  ILE376  PHE377  LEU380  LYS471  GLY472 
 MET473  HIS475  LEU476  LEU477  ASN478  MET479  VAL484  VAL487 

> <Gold.Protein.RotatedAtoms>
   36.7265   33.1010   42.1374 H   0  0  0  0  0  0  0  0  0  0  0  0  # atno 496  bound_to 491 

> <Gold.Score>
     Score     S(PLP)   S(hbond)     S(cho)   S(metal)  DE(clash)   DE(tors)     intcor
     34.46     -34.53       0.00       0.00       0.00       0.00       0.63       1.18

> <Gold.PLP.Fitness>
34.4585

> <Gold.PLP.PLP>
-34.5339

> <Gold.PLP.part.hbond>
0.0000

> <Gold.PLP.part.metal>
0.0000

> <Gold.PLP.part.buried>
-2.8853

> <Gold.PLP.part.nonpolar>
-31.8826

> <Gold.PLP.part.repulsive>
0.1482

> <Gold.PLP.ligand.clash>
0.0000

> <Gold.PLP.ligand.torsion>
0.6264

> <Gold.PLP.Chemscore.Hbond>
0.0000

> <Gold.PLP.Chemscore.CHOScore>
0.0000

> <Gold.PLP.Chemscore.Metal>
0.0000

> <Gold.PLP.Chemscore.Internal.Correction>
1.1774

