#       Name:                EN300-7430310_i001
#       Creating user name   aseyller
#       Creation time:       Fri Apr 21 20:16:53 2023


#       File generated by GOLD software.
#

@<TRIPOS>MOLECULE
EN300-7430310_i001|Sulfonylchlorides|mol2|1046|dock2
    27    27     1
SMALL
USER_CHARGES


@<TRIPOS>ATOM
      1 C1          32.0492  34.3206  37.5973 C.3            1 <1>                0.0000
      2 C2          31.6379  35.7768  37.3713 C.3            1 <1>                0.0000
      3 C3          32.6088  36.7014  38.1084 C.3            1 <1>                0.0000
      4 C4          31.6727  36.0900  35.8741 C.3            1 <1>                0.0000
      5 C5          30.2208  35.9953  37.9052 C.3            1 <1>                0.0000
      6 C6          29.8602  37.4767  38.1069 C.3            1 <1>                0.0000
      7 C7          29.1523  37.0466  39.4026 C.3            1 <1>                0.0000
      8 C8          30.1068  35.8412  39.4310 C.3            1 <1>                0.0000
      9 S9          27.4129  36.5907  39.1635 S.o2           1 <1>                0.0000
     10 O10         26.7282  37.6007  38.4351 O.2            1 <1>                0.0000
     11 O11         27.3017  35.2218  38.7991 O.2            1 <1>                0.0000
     12 Cl12        26.6094  36.6802  41.0147 Cl             1 <1>                0.0000
     13 H13         31.9139  34.0637  38.6480 H              1 <1>                0.0000
     14 H14         31.4302  33.6683  36.9812 H              1 <1>                0.0000
     15 H15         33.0965  34.1922  37.3238 H              1 <1>                0.0000
     16 H16         33.6184  36.5457  37.7280 H              1 <1>                0.0000
     17 H17         32.3158  37.7388  37.9473 H              1 <1>                0.0000
     18 H18         32.5840  36.4782  39.1751 H              1 <1>                0.0000
     19 H19         30.9809  35.4314  35.3489 H              1 <1>                0.0000
     20 H20         31.3796  37.1275  35.7130 H              1 <1>                0.0000
     21 H21         32.6822  35.9344  35.4936 H              1 <1>                0.0000
     22 H22         29.4684  35.4344  37.3509 H              1 <1>                0.0000
     23 H23         30.7256  38.1178  38.2743 H              1 <1>                0.0000
     24 H24         29.1824  37.8682  37.3484 H              1 <1>                0.0000
     25 H25         29.2993  37.7395  40.2311 H              1 <1>                0.0000
     26 H26         29.6281  34.9124  39.7415 H              1 <1>                0.0000
     27 H27         31.0396  36.0353  39.9604 H              1 <1>                0.0000
@<TRIPOS>BOND
    1    1    2 1     
    2    1   13 1     
    3    1   14 1     
    4    1   15 1     
    5    2    3 1     
    6    2    4 1     
    7    2    5 1     
    8    3   16 1     
    9    3   17 1     
   10    3   18 1     
   11    4   19 1     
   12    4   20 1     
   13    4   21 1     
   14    5    6 1     
   15    5    8 1     
   16    5   22 1     
   17    6    7 1     
   18    6   23 1     
   19    6   24 1     
   20    7    8 1     
   21    7    9 1     
   22    7   25 1     
   23    8   26 1     
   24    8   27 1     
   25    9   10 2     
   26    9   11 2     
   27    9   12 1     
@<TRIPOS>SUBSTRUCTURE
      1 ****           1
@<TRIPOS>COMMENT
> <Gold.Version>
2022.2.0

> <Gold.Id.Protein>
1qkm|1qkm_protein|mol2

> <Gold.Protein.RotatedTorsions>
[  496  491  490  487 ] final  -92.58 input  -89.99 | X-H torsion

> <Gold.Protein.ActiveResidues>
 MET295  LEU298  THR299  LEU301  ALA302  GLU305  TRP335  MET336  LEU339  MET340 
 GLY342  LEU343  ARG346  PHE356  ILE373  ILE376  PHE377  LEU380  LYS471  GLY472 
 MET473  HIS475  LEU476  LEU477  ASN478  MET479  VAL484  VAL487 

> <Gold.Protein.RotatedAtoms>
   36.7811   34.6356   41.0490 H   0  0  0  0  0  0  0  0  0  0  0  0  # atno 496  bound_to 491 

> <Gold.Score>
     Score     S(PLP)   S(hbond)     S(cho)   S(metal)  DE(clash)   DE(tors)     intcor
     34.43     -35.16       0.00       0.00       0.00       0.00       0.95       1.18

> <Gold.PLP.Fitness>
34.4342

> <Gold.PLP.PLP>
-35.1639

> <Gold.PLP.part.hbond>
0.0000

> <Gold.PLP.part.metal>
0.0000

> <Gold.PLP.part.buried>
-2.5731

> <Gold.PLP.part.nonpolar>
-33.1030

> <Gold.PLP.part.repulsive>
0.0231

> <Gold.PLP.ligand.clash>
0.0000

> <Gold.PLP.ligand.torsion>
0.9535

> <Gold.PLP.Chemscore.Hbond>
0.0000

> <Gold.PLP.Chemscore.CHOScore>
0.0000

> <Gold.PLP.Chemscore.Metal>
0.0000

> <Gold.PLP.Chemscore.Internal.Correction>
1.1774

