#       Name:                EN300-7430310_i001
#       Creating user name   aseyller
#       Creation time:       Fri Apr 21 20:16:57 2023


#       File generated by GOLD software.
#

@<TRIPOS>MOLECULE
EN300-7430310_i001|Sulfonylchlorides|mol2|1046|dock11
    27    27     1
SMALL
USER_CHARGES


@<TRIPOS>ATOM
      1 C1          30.3270  37.7445  34.7672 C.3            1 <1>                0.0000
      2 C2          30.7907  37.9399  36.2120 C.3            1 <1>                0.0000
      3 C3          32.2171  37.4082  36.3662 C.3            1 <1>                0.0000
      4 C4          30.7613  39.4295  36.5602 C.3            1 <1>                0.0000
      5 C5          29.8576  37.1774  37.1547 C.3            1 <1>                0.0000
      6 C6          28.6366  37.9954  37.6076 C.3            1 <1>                0.0000
      7 C7          28.8356  37.3742  39.0002 C.3            1 <1>                0.0000
      8 C8          30.3156  37.1956  38.6227 C.3            1 <1>                0.0000
      9 S9          27.9502  35.8077  39.2304 S.o2           1 <1>                0.0000
     10 O10         26.7072  35.8316  38.5421 O.2            1 <1>                0.0000
     11 O11         28.8401  34.7078  39.0976 O.2            1 <1>                0.0000
     12 Cl12        27.4377  35.8008  41.1843 Cl             1 <1>                0.0000
     13 H13         30.2371  36.6791  34.5553 H              1 <1>                0.0000
     14 H14         29.3587  38.2256  34.6282 H              1 <1>                0.0000
     15 H15         31.0546  38.1899  34.0887 H              1 <1>                0.0000
     16 H16         32.8819  37.9516  35.6946 H              1 <1>                0.0000
     17 H17         32.5474  37.5474  37.3955 H              1 <1>                0.0000
     18 H18         32.2381  36.3470  36.1182 H              1 <1>                0.0000
     19 H19         29.7451  39.8082  36.4503 H              1 <1>                0.0000
     20 H20         31.0916  39.5687  37.5895 H              1 <1>                0.0000
     21 H21         31.4260  39.9728  35.8886 H              1 <1>                0.0000
     22 H22         29.6049  36.1829  36.7872 H              1 <1>                0.0000
     23 H23         28.7995  39.0729  37.5829 H              1 <1>                0.0000
     24 H24         27.7067  37.6956  37.1246 H              1 <1>                0.0000
     25 H25         28.6754  38.0763  39.8184 H              1 <1>                0.0000
     26 H26         30.7411  36.2501  38.9591 H              1 <1>                0.0000
     27 H27         30.9374  38.0544  38.8754 H              1 <1>                0.0000
@<TRIPOS>BOND
    1    1    2 1     
    2    1   13 1     
    3    1   14 1     
    4    1   15 1     
    5    2    3 1     
    6    2    4 1     
    7    2    5 1     
    8    3   16 1     
    9    3   17 1     
   10    3   18 1     
   11    4   19 1     
   12    4   20 1     
   13    4   21 1     
   14    5    6 1     
   15    5    8 1     
   16    5   22 1     
   17    6    7 1     
   18    6   23 1     
   19    6   24 1     
   20    7    8 1     
   21    7    9 1     
   22    7   25 1     
   23    8   26 1     
   24    8   27 1     
   25    9   10 2     
   26    9   11 2     
   27    9   12 1     
@<TRIPOS>SUBSTRUCTURE
      1 ****           1
@<TRIPOS>COMMENT
> <Gold.Version>
2022.2.0

> <Gold.Id.Protein>
1qkm|1qkm_protein|mol2

> <Gold.Protein.RotatedTorsions>
[  496  491  490  487 ] final  144.48 input  -89.99 | X-H torsion

> <Gold.Protein.ActiveResidues>
 MET295  LEU298  THR299  LEU301  ALA302  GLU305  TRP335  MET336  LEU339  MET340 
 GLY342  LEU343  ARG346  PHE356  ILE373  ILE376  PHE377  LEU380  LYS471  GLY472 
 MET473  HIS475  LEU476  LEU477  ASN478  MET479  VAL484  VAL487 

> <Gold.Protein.RotatedAtoms>
   37.2377   33.0577   41.2692 H   0  0  0  0  0  0  0  0  0  0  0  0  # atno 496  bound_to 491 

> <Gold.Score>
     Score     S(PLP)   S(hbond)     S(cho)   S(metal)  DE(clash)   DE(tors)     intcor
     31.22     -32.27       0.00       0.00       0.00       0.00       1.11       1.18

> <Gold.PLP.Fitness>
31.2249

> <Gold.PLP.PLP>
-32.2652

> <Gold.PLP.part.hbond>
0.0000

> <Gold.PLP.part.metal>
0.0000

> <Gold.PLP.part.buried>
-1.9424

> <Gold.PLP.part.nonpolar>
-30.6445

> <Gold.PLP.part.repulsive>
0.0965

> <Gold.PLP.ligand.clash>
0.0000

> <Gold.PLP.ligand.torsion>
1.1089

> <Gold.PLP.Chemscore.Hbond>
0.0000

> <Gold.PLP.Chemscore.CHOScore>
0.0000

> <Gold.PLP.Chemscore.Metal>
0.0000

> <Gold.PLP.Chemscore.Internal.Correction>
1.1774

