#       Name:                EN300-7430310_i001
#       Creating user name   aseyller
#       Creation time:       Fri Apr 21 20:16:53 2023


#       File generated by GOLD software.
#

@<TRIPOS>MOLECULE
EN300-7430310_i001|Sulfonylchlorides|mol2|1046|dock3
    27    27     1
SMALL
USER_CHARGES


@<TRIPOS>ATOM
      1 C1          27.2209  37.0804  39.1202 C.3            1 <1>                0.0000
      2 C2          28.5293  36.3516  39.4327 C.3            1 <1>                0.0000
      3 C3          29.1942  36.9968  40.6503 C.3            1 <1>                0.0000
      4 C4          28.2347  34.8804  39.7322 C.3            1 <1>                0.0000
      5 C5          29.4675  36.4488  38.2280 C.3            1 <1>                0.0000
      6 C6          30.9514  36.2623  38.5864 C.3            1 <1>                0.0000
      7 C7          31.2539  37.3885  37.5839 C.3            1 <1>                0.0000
      8 C8          29.8241  37.8935  37.8398 C.3            1 <1>                0.0000
      9 S9          31.5242  36.7999  35.8894 S.o2           1 <1>                0.0000
     10 O10         32.0978  35.4998  35.8987 O.2            1 <1>                0.0000
     11 O11         30.4008  37.0992  35.0724 O.2            1 <1>                0.0000
     12 Cl12        32.9926  37.9871  35.1717 Cl             1 <1>                0.0000
     13 H13         27.4401  38.0973  38.7948 H              1 <1>                0.0000
     14 H14         26.6907  36.5517  38.3279 H              1 <1>                0.0000
     15 H15         26.5995  37.1112  40.0152 H              1 <1>                0.0000
     16 H16         28.5258  36.9274  41.5085 H              1 <1>                0.0000
     17 H17         30.1264  36.4775  40.8729 H              1 <1>                0.0000
     18 H18         29.4041  38.0449  40.4369 H              1 <1>                0.0000
     19 H19         27.7610  34.4208  38.8647 H              1 <1>                0.0000
     20 H20         29.1669  34.3612  39.9548 H              1 <1>                0.0000
     21 H21         27.5663  34.8111  40.5904 H              1 <1>                0.0000
     22 H22         29.1413  35.8372  37.3869 H              1 <1>                0.0000
     23 H23         31.1872  36.5215  39.6185 H              1 <1>                0.0000
     24 H24         31.3539  35.2939  38.2895 H              1 <1>                0.0000
     25 H25         32.0275  38.0780  37.9220 H              1 <1>                0.0000
     26 H26         29.3164  38.2419  36.9404 H              1 <1>                0.0000
     27 H27         29.7517  38.5986  38.6679 H              1 <1>                0.0000
@<TRIPOS>BOND
    1    1    2 1     
    2    1   13 1     
    3    1   14 1     
    4    1   15 1     
    5    2    3 1     
    6    2    4 1     
    7    2    5 1     
    8    3   16 1     
    9    3   17 1     
   10    3   18 1     
   11    4   19 1     
   12    4   20 1     
   13    4   21 1     
   14    5    6 1     
   15    5    8 1     
   16    5   22 1     
   17    6    7 1     
   18    6   23 1     
   19    6   24 1     
   20    7    8 1     
   21    7    9 1     
   22    7   25 1     
   23    8   26 1     
   24    8   27 1     
   25    9   10 2     
   26    9   11 2     
   27    9   12 1     
@<TRIPOS>SUBSTRUCTURE
      1 ****           1
@<TRIPOS>COMMENT
> <Gold.Version>
2022.2.0

> <Gold.Id.Protein>
1qkm|1qkm_protein|mol2

> <Gold.Protein.RotatedTorsions>
[  496  491  490  487 ] final   96.92 input  -89.99 | X-H torsion

> <Gold.Protein.ActiveResidues>
 MET295  LEU298  THR299  LEU301  ALA302  GLU305  TRP335  MET336  LEU339  MET340 
 GLY342  LEU343  ARG346  PHE356  ILE373  ILE376  PHE377  LEU380  LYS471  GLY472 
 MET473  HIS475  LEU476  LEU477  ASN478  MET479  VAL484  VAL487 

> <Gold.Protein.RotatedAtoms>
   36.8837   32.9826   41.9384 H   0  0  0  0  0  0  0  0  0  0  0  0  # atno 496  bound_to 491 

> <Gold.Score>
     Score     S(PLP)   S(hbond)     S(cho)   S(metal)  DE(clash)   DE(tors)     intcor
     33.03     -33.56       0.00       0.00       0.00       0.00       0.85       1.18

> <Gold.PLP.Fitness>
33.0317

> <Gold.PLP.PLP>
-33.5593

> <Gold.PLP.part.hbond>
0.0000

> <Gold.PLP.part.metal>
0.0000

> <Gold.PLP.part.buried>
-2.9118

> <Gold.PLP.part.nonpolar>
-31.0393

> <Gold.PLP.part.repulsive>
0.1118

> <Gold.PLP.ligand.clash>
0.0000

> <Gold.PLP.ligand.torsion>
0.8525

> <Gold.PLP.Chemscore.Hbond>
0.0000

> <Gold.PLP.Chemscore.CHOScore>
0.0000

> <Gold.PLP.Chemscore.Metal>
0.0000

> <Gold.PLP.Chemscore.Internal.Correction>
1.1774

