#       Name:                EN300-7430310_i001
#       Creating user name   aseyller
#       Creation time:       Fri Apr 21 20:17:04 2023


#       File generated by GOLD software.
#

@<TRIPOS>MOLECULE
EN300-7430310_i001|Sulfonylchlorides|mol2|1046|dock18
    27    27     1
SMALL
USER_CHARGES


@<TRIPOS>ATOM
      1 C1          32.0262  38.1545  36.5389 C.3            1 <1>                0.0000
      2 C2          32.0192  36.6808  36.9503 C.3            1 <1>                0.0000
      3 C3          32.0965  35.8020  35.7003 C.3            1 <1>                0.0000
      4 C4          33.2244  36.3965  37.8490 C.3            1 <1>                0.0000
      5 C5          30.7298  36.3703  37.7130 C.3            1 <1>                0.0000
      6 C6          29.4641  36.9171  37.0316 C.3            1 <1>                0.0000
      7 C7          28.9640  37.2906  38.4370 C.3            1 <1>                0.0000
      8 C8          30.4410  37.3526  38.8606 C.3            1 <1>                0.0000
      9 S9          28.0294  35.9663  39.2516 S.o2           1 <1>                0.0000
     10 O10         26.6418  36.0903  38.9715 O.2            1 <1>                0.0000
     11 O11         28.6980  34.7211  39.1048 O.2            1 <1>                0.0000
     12 Cl12        28.1789  36.3828  41.2226 Cl             1 <1>                0.0000
     13 H13         31.1095  38.3845  35.9960 H              1 <1>                0.0000
     14 H14         32.0877  38.7800  37.4295 H              1 <1>                0.0000
     15 H15         32.8864  38.3488  35.8983 H              1 <1>                0.0000
     16 H16         33.0152  36.0232  35.1569 H              1 <1>                0.0000
     17 H17         32.0916  34.7522  35.9934 H              1 <1>                0.0000
     18 H18         31.2379  36.0046  35.0600 H              1 <1>                0.0000
     19 H19         33.1693  37.0226  38.7395 H              1 <1>                0.0000
     20 H20         33.2194  35.3466  38.1421 H              1 <1>                0.0000
     21 H21         34.1431  36.6177  37.3057 H              1 <1>                0.0000
     22 H22         30.6515  35.3227  38.0033 H              1 <1>                0.0000
     23 H23         29.6508  37.7791  36.3912 H              1 <1>                0.0000
     24 H24         28.8639  36.1486  36.5446 H              1 <1>                0.0000
     25 H25         28.4572  38.2548  38.4782 H              1 <1>                0.0000
     26 H26         30.6295  36.9357  39.8499 H              1 <1>                0.0000
     27 H27         30.8948  38.3336  38.7201 H              1 <1>                0.0000
@<TRIPOS>BOND
    1    1    2 1     
    2    1   13 1     
    3    1   14 1     
    4    1   15 1     
    5    2    3 1     
    6    2    4 1     
    7    2    5 1     
    8    3   16 1     
    9    3   17 1     
   10    3   18 1     
   11    4   19 1     
   12    4   20 1     
   13    4   21 1     
   14    5    6 1     
   15    5    8 1     
   16    5   22 1     
   17    6    7 1     
   18    6   23 1     
   19    6   24 1     
   20    7    8 1     
   21    7    9 1     
   22    7   25 1     
   23    8   26 1     
   24    8   27 1     
   25    9   10 2     
   26    9   11 2     
   27    9   12 1     
@<TRIPOS>SUBSTRUCTURE
      1 ****           1
@<TRIPOS>COMMENT
> <Gold.Version>
2022.2.0

> <Gold.Id.Protein>
1qkm|1qkm_protein|mol2

> <Gold.Protein.RotatedTorsions>
[  496  491  490  487 ] final  150.93 input  -89.99 | X-H torsion

> <Gold.Protein.ActiveResidues>
 MET295  LEU298  THR299  LEU301  ALA302  GLU305  TRP335  MET336  LEU339  MET340 
 GLY342  LEU343  ARG346  PHE356  ILE373  ILE376  PHE377  LEU380  LYS471  GLY472 
 MET473  HIS475  LEU476  LEU477  ASN478  MET479  VAL484  VAL487 

> <Gold.Protein.RotatedAtoms>
   37.2665   33.1127   41.1832 H   0  0  0  0  0  0  0  0  0  0  0  0  # atno 496  bound_to 491 

> <Gold.Score>
     Score     S(PLP)   S(hbond)     S(cho)   S(metal)  DE(clash)   DE(tors)     intcor
     32.41     -32.63       0.00       0.00       0.00       0.00       0.70       1.18

> <Gold.PLP.Fitness>
32.4092

> <Gold.PLP.PLP>
-32.6336

> <Gold.PLP.part.hbond>
0.0000

> <Gold.PLP.part.metal>
0.0000

> <Gold.PLP.part.buried>
-3.0966

> <Gold.PLP.part.nonpolar>
-29.7655

> <Gold.PLP.part.repulsive>
0.0792

> <Gold.PLP.ligand.clash>
0.0000

> <Gold.PLP.ligand.torsion>
0.7009

> <Gold.PLP.Chemscore.Hbond>
0.0000

> <Gold.PLP.Chemscore.CHOScore>
0.0000

> <Gold.PLP.Chemscore.Metal>
0.0000

> <Gold.PLP.Chemscore.Internal.Correction>
1.1774

