#       Name:                EN300-7430310_i001
#       Creating user name   aseyller
#       Creation time:       Fri Apr 21 20:16:59 2023


#       File generated by GOLD software.
#

@<TRIPOS>MOLECULE
EN300-7430310_i001|Sulfonylchlorides|mol2|1046|dock13
    27    27     1
SMALL
USER_CHARGES


@<TRIPOS>ATOM
      1 C1          32.3307  34.8519  36.9629 C.3            1 <1>                0.0000
      2 C2          31.7165  36.2532  36.9624 C.3            1 <1>                0.0000
      3 C3          32.7029  37.2426  37.5860 C.3            1 <1>                0.0000
      4 C4          31.4111  36.6757  35.5240 C.3            1 <1>                0.0000
      5 C5          30.4213  36.2426  37.7767 C.3            1 <1>                0.0000
      6 C6          30.0358  37.6212  38.3389 C.3            1 <1>                0.0000
      7 C7          29.6146  36.8915  39.6253 C.3            1 <1>                0.0000
      8 C8          30.6133  35.7896  39.2337 C.3            1 <1>                0.0000
      9 S9          27.8859  36.3420  39.6163 S.o2           1 <1>                0.0000
     10 O10         27.7835  35.0263  39.0889 O.2            1 <1>                0.0000
     11 O11         27.2439  36.6952  40.8338 O.2            1 <1>                0.0000
     12 Cl12        26.9942  37.5062  38.2269 Cl             1 <1>                0.0000
     13 H13         32.4415  34.5041  37.9899 H              1 <1>                0.0000
     14 H14         31.6796  34.1696  36.4164 H              1 <1>                0.0000
     15 H15         33.3087  34.8837  36.4825 H              1 <1>                0.0000
     16 H16         33.6257  37.2502  37.0058 H              1 <1>                0.0000
     17 H17         32.2653  38.2409  37.5857 H              1 <1>                0.0000
     18 H18         32.9205  36.9416  38.6108 H              1 <1>                0.0000
     19 H19         30.7083  35.9708  35.0797 H              1 <1>                0.0000
     20 H20         30.9734  37.6740  35.5236 H              1 <1>                0.0000
     21 H21         32.3338  36.6833  34.9437 H              1 <1>                0.0000
     22 H22         29.6035  35.7357  37.2647 H              1 <1>                0.0000
     23 H23         30.8854  38.2904  38.4747 H              1 <1>                0.0000
     24 H24         29.2056  38.0911  37.8117 H              1 <1>                0.0000
     25 H25         29.8862  37.4227  40.5375 H              1 <1>                0.0000
     26 H26         30.2493  34.7809  39.4289 H              1 <1>                0.0000
     27 H27         31.6207  35.9581  39.6142 H              1 <1>                0.0000
@<TRIPOS>BOND
    1    1    2 1     
    2    1   13 1     
    3    1   14 1     
    4    1   15 1     
    5    2    3 1     
    6    2    4 1     
    7    2    5 1     
    8    3   16 1     
    9    3   17 1     
   10    3   18 1     
   11    4   19 1     
   12    4   20 1     
   13    4   21 1     
   14    5    6 1     
   15    5    8 1     
   16    5   22 1     
   17    6    7 1     
   18    6   23 1     
   19    6   24 1     
   20    7    8 1     
   21    7    9 1     
   22    7   25 1     
   23    8   26 1     
   24    8   27 1     
   25    9   10 2     
   26    9   11 2     
   27    9   12 1     
@<TRIPOS>SUBSTRUCTURE
      1 ****           1
@<TRIPOS>COMMENT
> <Gold.Version>
2022.2.0

> <Gold.Id.Protein>
1qkm|1qkm_protein|mol2

> <Gold.Protein.RotatedTorsions>
[  496  491  490  487 ] final -168.58 input  -89.99 | X-H torsion

> <Gold.Protein.ActiveResidues>
 MET295  LEU298  THR299  LEU301  ALA302  GLU305  TRP335  MET336  LEU339  MET340 
 GLY342  LEU343  ARG346  PHE356  ILE373  ILE376  PHE377  LEU380  LYS471  GLY472 
 MET473  HIS475  LEU476  LEU477  ASN478  MET479  VAL484  VAL487 

> <Gold.Protein.RotatedAtoms>
   37.3011   33.6306   40.7874 H   0  0  0  0  0  0  0  0  0  0  0  0  # atno 496  bound_to 491 

> <Gold.Score>
     Score     S(PLP)   S(hbond)     S(cho)   S(metal)  DE(clash)   DE(tors)     intcor
     32.83     -33.40       0.00       0.00       0.00       0.00       0.87       1.18

> <Gold.PLP.Fitness>
32.8290

> <Gold.PLP.PLP>
-33.3976

> <Gold.PLP.part.hbond>
0.0000

> <Gold.PLP.part.metal>
0.0000

> <Gold.PLP.part.buried>
-1.4000

> <Gold.PLP.part.nonpolar>
-31.6459

> <Gold.PLP.part.repulsive>
0.0637

> <Gold.PLP.ligand.clash>
0.0000

> <Gold.PLP.ligand.torsion>
0.8730

> <Gold.PLP.Chemscore.Hbond>
0.0000

> <Gold.PLP.Chemscore.CHOScore>
0.0000

> <Gold.PLP.Chemscore.Metal>
0.0000

> <Gold.PLP.Chemscore.Internal.Correction>
1.1774

