#       Name:                EN300-7430310_i001
#       Creating user name   aseyller
#       Creation time:       Fri Apr 21 20:16:54 2023


#       File generated by GOLD software.
#

@<TRIPOS>MOLECULE
EN300-7430310_i001|Sulfonylchlorides|mol2|1046|dock5
    27    27     1
SMALL
USER_CHARGES


@<TRIPOS>ATOM
      1 C1          32.3819  38.1719  36.6244 C.3            1 <1>                0.0000
      2 C2          31.3656  37.2047  36.0140 C.3            1 <1>                0.0000
      3 C3          30.6330  37.8949  34.8617 C.3            1 <1>                0.0000
      4 C4          32.0931  35.9662  35.4869 C.3            1 <1>                0.0000
      5 C5          30.3545  36.7857  37.0831 C.3            1 <1>                0.0000
      6 C6          29.7307  37.9708  37.8392 C.3            1 <1>                0.0000
      7 C7          29.8481  37.1179  39.1134 C.3            1 <1>                0.0000
      8 C8          31.0018  36.3772  38.4169 C.3            1 <1>                0.0000
      9 S9          28.3977  36.0742  39.4255 S.o2           1 <1>                0.0000
     10 O10         27.2162  36.7087  38.9554 O.2            1 <1>                0.0000
     11 O11         28.6796  34.7193  39.1029 O.2            1 <1>                0.0000
     12 Cl12        28.1982  36.0765  41.4357 Cl             1 <1>                0.0000
     13 H13         31.8556  38.9983  37.1020 H              1 <1>                0.0000
     14 H14         32.9831  37.6466  37.3666 H              1 <1>                0.0000
     15 H15         33.0311  38.5598  35.8395 H              1 <1>                0.0000
     16 H16         31.3534  38.1933  34.1001 H              1 <1>                0.0000
     17 H17         29.9090  37.2058  34.4269 H              1 <1>                0.0000
     18 H18         30.1147  38.7772  35.2373 H              1 <1>                0.0000
     19 H19         32.6150  35.4745  36.3078 H              1 <1>                0.0000
     20 H20         31.3691  35.2771  35.0521 H              1 <1>                0.0000
     21 H21         32.8135  36.2647  34.7252 H              1 <1>                0.0000
     22 H22         29.6213  36.0684  36.7143 H              1 <1>                0.0000
     23 H23         30.3593  38.8611  37.8502 H              1 <1>                0.0000
     24 H24         28.7017  38.1814  37.5481 H              1 <1>                0.0000
     25 H25         30.1598  37.6846  39.9909 H              1 <1>                0.0000
     26 H26         30.9989  35.3013  38.5922 H              1 <1>                0.0000
     27 H27         31.9778  36.8319  38.5859 H              1 <1>                0.0000
@<TRIPOS>BOND
    1    1    2 1     
    2    1   13 1     
    3    1   14 1     
    4    1   15 1     
    5    2    3 1     
    6    2    4 1     
    7    2    5 1     
    8    3   16 1     
    9    3   17 1     
   10    3   18 1     
   11    4   19 1     
   12    4   20 1     
   13    4   21 1     
   14    5    6 1     
   15    5    8 1     
   16    5   22 1     
   17    6    7 1     
   18    6   23 1     
   19    6   24 1     
   20    7    8 1     
   21    7    9 1     
   22    7   25 1     
   23    8   26 1     
   24    8   27 1     
   25    9   10 2     
   26    9   11 2     
   27    9   12 1     
@<TRIPOS>SUBSTRUCTURE
      1 ****           1
@<TRIPOS>COMMENT
> <Gold.Version>
2022.2.0

> <Gold.Id.Protein>
1qkm|1qkm_protein|mol2

> <Gold.Protein.RotatedTorsions>
[  496  491  490  487 ] final -176.20 input  -89.99 | X-H torsion

> <Gold.Protein.ActiveResidues>
 MET295  LEU298  THR299  LEU301  ALA302  GLU305  TRP335  MET336  LEU339  MET340 
 GLY342  LEU343  ARG346  PHE356  ILE373  ILE376  PHE377  LEU380  LYS471  GLY472 
 MET473  HIS475  LEU476  LEU477  ASN478  MET479  VAL484  VAL487 

> <Gold.Protein.RotatedAtoms>
   37.3146   33.5166   40.8376 H   0  0  0  0  0  0  0  0  0  0  0  0  # atno 496  bound_to 491 

> <Gold.Score>
     Score     S(PLP)   S(hbond)     S(cho)   S(metal)  DE(clash)   DE(tors)     intcor
     34.97     -35.23       0.00       0.00       0.00       0.00       0.72       1.18

> <Gold.PLP.Fitness>
34.9713

> <Gold.PLP.PLP>
-35.2300

> <Gold.PLP.part.hbond>
0.0000

> <Gold.PLP.part.metal>
0.0000

> <Gold.PLP.part.buried>
-2.9581

> <Gold.PLP.part.nonpolar>
-32.3533

> <Gold.PLP.part.repulsive>
0.0394

> <Gold.PLP.ligand.clash>
0.0000

> <Gold.PLP.ligand.torsion>
0.7180

> <Gold.PLP.Chemscore.Hbond>
0.0000

> <Gold.PLP.Chemscore.CHOScore>
0.0000

> <Gold.PLP.Chemscore.Metal>
0.0000

> <Gold.PLP.Chemscore.Internal.Correction>
1.1774

