#       Name:                EN300-7430310_i001
#       Creating user name   aseyller
#       Creation time:       Fri Apr 21 20:17:06 2023


#       File generated by GOLD software.
#

@<TRIPOS>MOLECULE
EN300-7430310_i001|Sulfonylchlorides|mol2|1046|dock20
    27    27     1
SMALL
USER_CHARGES


@<TRIPOS>ATOM
      1 C1          28.4379  36.6964  40.4155 C.3            1 <1>                0.0000
      2 C2          28.2435  36.0339  39.0502 C.3            1 <1>                0.0000
      3 C3          28.7754  34.6002  39.0987 C.3            1 <1>                0.0000
      4 C4          26.7542  36.0139  38.7004 C.3            1 <1>                0.0000
      5 C5          29.0066  36.8253  37.9861 C.3            1 <1>                0.0000
      6 C6          30.2662  37.5248  38.5239 C.3            1 <1>                0.0000
      7 C7          29.8853  38.7212  37.6359 C.3            1 <1>                0.0000
      8 C8          28.4316  38.2287  37.7315 C.3            1 <1>                0.0000
      9 S9          30.5743  38.6311  35.9603 S.o2           1 <1>                0.0000
     10 O10         30.0474  37.5099  35.2641 O.2            1 <1>                0.0000
     11 O11         30.5997  39.9195  35.3616 O.2            1 <1>                0.0000
     12 Cl12        32.5219  38.1734  36.2402 Cl             1 <1>                0.0000
     13 H13         29.5031  36.8154  40.6134 H              1 <1>                0.0000
     14 H14         27.9567  37.6746  40.4166 H              1 <1>                0.0000
     15 H15         27.9922  36.0715  41.1894 H              1 <1>                0.0000
     16 H16         28.2317  34.0364  39.8568 H              1 <1>                0.0000
     17 H17         28.6369  34.1282  38.1259 H              1 <1>                0.0000
     18 H18         29.8365  34.6145  39.3478 H              1 <1>                0.0000
     19 H19         26.3753  37.0353  38.6659 H              1 <1>                0.0000
     20 H20         26.6157  35.5419  37.7277 H              1 <1>                0.0000
     21 H21         26.2105  35.4501  39.4585 H              1 <1>                0.0000
     22 H22         29.1808  36.2517  37.0758 H              1 <1>                0.0000
     23 H23         30.2230  37.7419  39.5911 H              1 <1>                0.0000
     24 H24         31.1957  37.0392  38.2269 H              1 <1>                0.0000
     25 H25         30.0508  39.6880  38.1114 H              1 <1>                0.0000
     26 H26         27.8800  38.3113  36.7950 H              1 <1>                0.0000
     27 H27         27.8869  38.6382  38.5822 H              1 <1>                0.0000
@<TRIPOS>BOND
    1    1    2 1     
    2    1   13 1     
    3    1   14 1     
    4    1   15 1     
    5    2    3 1     
    6    2    4 1     
    7    2    5 1     
    8    3   16 1     
    9    3   17 1     
   10    3   18 1     
   11    4   19 1     
   12    4   20 1     
   13    4   21 1     
   14    5    6 1     
   15    5    8 1     
   16    5   22 1     
   17    6    7 1     
   18    6   23 1     
   19    6   24 1     
   20    7    8 1     
   21    7    9 1     
   22    7   25 1     
   23    8   26 1     
   24    8   27 1     
   25    9   10 2     
   26    9   11 2     
   27    9   12 1     
@<TRIPOS>SUBSTRUCTURE
      1 ****           1
@<TRIPOS>COMMENT
> <Gold.Version>
2022.2.0

> <Gold.Id.Protein>
1qkm|1qkm_protein|mol2

> <Gold.Protein.RotatedTorsions>
[  496  491  490  487 ] final -151.65 input  -89.99 | X-H torsion

> <Gold.Protein.ActiveResidues>
 MET295  LEU298  THR299  LEU301  ALA302  GLU305  TRP335  MET336  LEU339  MET340 
 GLY342  LEU343  ARG346  PHE356  ILE373  ILE376  PHE377  LEU380  LYS471  GLY472 
 MET473  HIS475  LEU476  LEU477  ASN478  MET479  VAL484  VAL487 

> <Gold.Protein.RotatedAtoms>
   37.2395   33.8941   40.7251 H   0  0  0  0  0  0  0  0  0  0  0  0  # atno 496  bound_to 491 

> <Gold.Score>
     Score     S(PLP)   S(hbond)     S(cho)   S(metal)  DE(clash)   DE(tors)     intcor
     31.03     -32.42       0.00       0.00       0.00       0.00       1.28       1.18

> <Gold.PLP.Fitness>
31.0317

> <Gold.PLP.PLP>
-32.4177

> <Gold.PLP.part.hbond>
0.0000

> <Gold.PLP.part.metal>
0.0000

> <Gold.PLP.part.buried>
-1.7353

> <Gold.PLP.part.nonpolar>
-31.0014

> <Gold.PLP.part.repulsive>
0.0283

> <Gold.PLP.ligand.clash>
0.0000

> <Gold.PLP.ligand.torsion>
1.2817

> <Gold.PLP.Chemscore.Hbond>
0.0000

> <Gold.PLP.Chemscore.CHOScore>
0.0000

> <Gold.PLP.Chemscore.Metal>
0.0000

> <Gold.PLP.Chemscore.Internal.Correction>
1.1774

