#       Name:                EN300-7430310_i001
#       Creating user name   aseyller
#       Creation time:       Fri Apr 21 20:16:57 2023


#       File generated by GOLD software.
#

@<TRIPOS>MOLECULE
EN300-7430310_i001|Sulfonylchlorides|mol2|1046|dock10
    27    27     1
SMALL
USER_CHARGES


@<TRIPOS>ATOM
      1 C1          26.8283  37.0182  39.1987 C.3            1 <1>                0.0000
      2 C2          28.1652  36.2919  39.3596 C.3            1 <1>                0.0000
      3 C3          28.8069  36.6934  40.6893 C.3            1 <1>                0.0000
      4 C4          27.9297  34.7803  39.3428 C.3            1 <1>                0.0000
      5 C5          29.0961  36.6758  38.2077 C.3            1 <1>                0.0000
      6 C6          30.5466  36.2040  38.4044 C.3            1 <1>                0.0000
      7 C7          30.9831  37.5571  37.8184 C.3            1 <1>                0.0000
      8 C8          29.6339  38.1134  38.3030 C.3            1 <1>                0.0000
      9 S9          31.1577  37.5447  36.0128 S.o2           1 <1>                0.0000
     10 O10         32.4982  37.2515  35.6434 O.2            1 <1>                0.0000
     11 O11         30.0660  36.8626  35.4110 O.2            1 <1>                0.0000
     12 Cl12        30.9014  39.4731  35.4684 Cl             1 <1>                0.0000
     13 H13         27.0064  38.0885  39.0946 H              1 <1>                0.0000
     14 H14         26.3177  36.6468  38.3101 H              1 <1>                0.0000
     15 H15         26.2082  36.8367  40.0765 H              1 <1>                0.0000
     16 H16         28.1437  36.4198  41.5099 H              1 <1>                0.0000
     17 H17         29.7594  36.1759  40.8039 H              1 <1>                0.0000
     18 H18         28.9748  37.7703  40.7012 H              1 <1>                0.0000
     19 H19         27.4725  34.4943  38.3955 H              1 <1>                0.0000
     20 H20         28.8822  34.2628  39.4574 H              1 <1>                0.0000
     21 H21         27.2665  34.5067  40.1635 H              1 <1>                0.0000
     22 H22         28.6847  36.4262  37.2297 H              1 <1>                0.0000
     23 H23         30.8244  36.0710  39.4499 H              1 <1>                0.0000
     24 H24         30.8165  35.3511  37.7818 H              1 <1>                0.0000
     25 H25         31.8433  37.9951  38.3248 H              1 <1>                0.0000
     26 H26         29.1670  38.8019  37.5986 H              1 <1>                0.0000
     27 H27         29.6622  38.5023  39.3209 H              1 <1>                0.0000
@<TRIPOS>BOND
    1    1    2 1     
    2    1   13 1     
    3    1   14 1     
    4    1   15 1     
    5    2    3 1     
    6    2    4 1     
    7    2    5 1     
    8    3   16 1     
    9    3   17 1     
   10    3   18 1     
   11    4   19 1     
   12    4   20 1     
   13    4   21 1     
   14    5    6 1     
   15    5    8 1     
   16    5   22 1     
   17    6    7 1     
   18    6   23 1     
   19    6   24 1     
   20    7    8 1     
   21    7    9 1     
   22    7   25 1     
   23    8   26 1     
   24    8   27 1     
   25    9   10 2     
   26    9   11 2     
   27    9   12 1     
@<TRIPOS>SUBSTRUCTURE
      1 ****           1
@<TRIPOS>COMMENT
> <Gold.Version>
2022.2.0

> <Gold.Id.Protein>
1qkm|1qkm_protein|mol2

> <Gold.Protein.RotatedTorsions>
[  496  491  490  487 ] final  -75.43 input  -89.99 | X-H torsion

> <Gold.Protein.ActiveResidues>
 MET295  LEU298  THR299  LEU301  ALA302  GLU305  TRP335  MET336  LEU339  MET340 
 GLY342  LEU343  ARG346  PHE356  ILE373  ILE376  PHE377  LEU380  LYS471  GLY472 
 MET473  HIS475  LEU476  LEU477  ASN478  MET479  VAL484  VAL487 

> <Gold.Protein.RotatedAtoms>
   36.6252   34.7217   41.2666 H   0  0  0  0  0  0  0  0  0  0  0  0  # atno 496  bound_to 491 

> <Gold.Score>
     Score     S(PLP)   S(hbond)     S(cho)   S(metal)  DE(clash)   DE(tors)     intcor
     32.58     -32.86       0.00       0.00       0.00       0.00       0.73       1.18

> <Gold.PLP.Fitness>
32.5837

> <Gold.PLP.PLP>
-32.8575

> <Gold.PLP.part.hbond>
0.0000

> <Gold.PLP.part.metal>
0.0000

> <Gold.PLP.part.buried>
-2.4022

> <Gold.PLP.part.nonpolar>
-30.6770

> <Gold.PLP.part.repulsive>
0.1124

> <Gold.PLP.ligand.clash>
0.0000

> <Gold.PLP.ligand.torsion>
0.7256

> <Gold.PLP.Chemscore.Hbond>
0.0000

> <Gold.PLP.Chemscore.CHOScore>
0.0000

> <Gold.PLP.Chemscore.Metal>
0.0000

> <Gold.PLP.Chemscore.Internal.Correction>
1.1774

