#       Name:                EN300-7430310_i001
#       Creating user name   aseyller
#       Creation time:       Fri Apr 21 20:17:00 2023


#       File generated by GOLD software.
#

@<TRIPOS>MOLECULE
EN300-7430310_i001|Sulfonylchlorides|mol2|1046|dock14
    27    27     1
SMALL
USER_CHARGES


@<TRIPOS>ATOM
      1 C1          27.4997  35.5043  40.6154 C.3            1 <1>                0.0000
      2 C2          27.1105  36.1855  39.3019 C.3            1 <1>                0.0000
      3 C3          26.2069  35.2534  38.4921 C.3            1 <1>                0.0000
      4 C4          26.3625  37.4856  39.6037 C.3            1 <1>                0.0000
      5 C5          28.3728  36.4987  38.4962 C.3            1 <1>                0.0000
      6 C6          29.4379  37.2690  39.2946 C.3            1 <1>                0.0000
      7 C7          29.6879  38.0898  38.0185 C.3            1 <1>                0.0000
      8 C8          28.2444  37.7500  37.6115 C.3            1 <1>                0.0000
      9 S9          30.9408  37.3674  36.9235 S.o2           1 <1>                0.0000
     10 O10         30.3236  36.7026  35.8297 O.2            1 <1>                0.0000
     11 O11         32.0092  38.2812  36.7171 O.2            1 <1>                0.0000
     12 Cl12        31.7629  35.8776  38.0122 Cl             1 <1>                0.0000
     13 H13         28.1307  34.6411  40.4039 H              1 <1>                0.0000
     14 H14         28.0462  36.2090  41.2422 H              1 <1>                0.0000
     15 H15         26.5994  35.1776  41.1359 H              1 <1>                0.0000
     16 H16         25.3075  35.0304  39.0661 H              1 <1>                0.0000
     17 H17         25.9296  35.7388  37.5564 H              1 <1>                0.0000
     18 H18         26.7398  34.3272  38.2771 H              1 <1>                0.0000
     19 H19         27.0063  38.1496  40.1806 H              1 <1>                0.0000
     20 H20         26.0852  37.9710  38.6679 H              1 <1>                0.0000
     21 H21         25.4631  37.2626  40.1777 H              1 <1>                0.0000
     22 H22         28.7659  35.6289  37.9700 H              1 <1>                0.0000
     23 H23         29.0279  37.8548  40.1173 H              1 <1>                0.0000
     24 H24         30.2882  36.6557  39.5928 H              1 <1>                0.0000
     25 H25         29.8501  39.1511  38.2068 H              1 <1>                0.0000
     26 H26         28.1311  37.5252  36.5509 H              1 <1>                0.0000
     27 H27         27.5081  38.4674  37.9740 H              1 <1>                0.0000
@<TRIPOS>BOND
    1    1    2 1     
    2    1   13 1     
    3    1   14 1     
    4    1   15 1     
    5    2    3 1     
    6    2    4 1     
    7    2    5 1     
    8    3   16 1     
    9    3   17 1     
   10    3   18 1     
   11    4   19 1     
   12    4   20 1     
   13    4   21 1     
   14    5    6 1     
   15    5    8 1     
   16    5   22 1     
   17    6    7 1     
   18    6   23 1     
   19    6   24 1     
   20    7    8 1     
   21    7    9 1     
   22    7   25 1     
   23    8   26 1     
   24    8   27 1     
   25    9   10 2     
   26    9   11 2     
   27    9   12 1     
@<TRIPOS>SUBSTRUCTURE
      1 ****           1
@<TRIPOS>COMMENT
> <Gold.Version>
2022.2.0

> <Gold.Id.Protein>
1qkm|1qkm_protein|mol2

> <Gold.Protein.RotatedTorsions>
[  496  491  490  487 ] final   75.82 input  -89.99 | X-H torsion

> <Gold.Protein.ActiveResidues>
 MET295  LEU298  THR299  LEU301  ALA302  GLU305  TRP335  MET336  LEU339  MET340 
 GLY342  LEU343  ARG346  PHE356  ILE373  ILE376  PHE377  LEU380  LYS471  GLY472 
 MET473  HIS475  LEU476  LEU477  ASN478  MET479  VAL484  VAL487 

> <Gold.Protein.RotatedAtoms>
   36.6897   33.1389   42.1774 H   0  0  0  0  0  0  0  0  0  0  0  0  # atno 496  bound_to 491 

> <Gold.Score>
     Score     S(PLP)   S(hbond)     S(cho)   S(metal)  DE(clash)   DE(tors)     intcor
     31.92     -32.80       0.00       0.00       0.00       0.00       1.03       1.18

> <Gold.PLP.Fitness>
31.9183

> <Gold.PLP.PLP>
-32.8016

> <Gold.PLP.part.hbond>
0.0000

> <Gold.PLP.part.metal>
0.0000

> <Gold.PLP.part.buried>
-1.3985

> <Gold.PLP.part.nonpolar>
-31.2122

> <Gold.PLP.part.repulsive>
0.0286

> <Gold.PLP.ligand.clash>
0.0000

> <Gold.PLP.ligand.torsion>
1.0303

> <Gold.PLP.Chemscore.Hbond>
0.0000

> <Gold.PLP.Chemscore.CHOScore>
0.0000

> <Gold.PLP.Chemscore.Metal>
0.0000

> <Gold.PLP.Chemscore.Internal.Correction>
1.1774

