#       Name:                EN300-7430310_i001
#       Creating user name   aseyller
#       Creation time:       Fri Apr 21 20:16:54 2023


#       File generated by GOLD software.
#

@<TRIPOS>MOLECULE
EN300-7430310_i001|Sulfonylchlorides|mol2|1046|dock4
    27    27     1
SMALL
USER_CHARGES


@<TRIPOS>ATOM
      1 C1          27.5771  36.9083  38.4367 C.3            1 <1>                0.0000
      2 C2          28.9277  36.3158  38.8438 C.3            1 <1>                0.0000
      3 C3          29.4225  37.0026  40.1183 C.3            1 <1>                0.0000
      4 C4          28.7699  34.8158  39.1010 C.3            1 <1>                0.0000
      5 C5          29.9412  36.5365  37.7191 C.3            1 <1>                0.0000
      6 C6          31.3689  36.0936  38.0808 C.3            1 <1>                0.0000
      7 C7          31.8608  37.3528  37.3479 C.3            1 <1>                0.0000
      8 C8          30.4875  37.9726  37.6551 C.3            1 <1>                0.0000
      9 S9          32.1612  37.0927  35.5779 S.o2           1 <1>                0.0000
     10 O10         33.2535  37.8867  35.1355 O.2            1 <1>                0.0000
     11 O11         32.0824  35.7108  35.2565 O.2            1 <1>                0.0000
     12 Cl12        30.5521  37.9081  34.6686 Cl             1 <1>                0.0000
     13 H13         27.7108  37.9491  38.1422 H              1 <1>                0.0000
     14 H14         27.1701  36.3428  37.5983 H              1 <1>                0.0000
     15 H15         26.8880  36.8548  39.2796 H              1 <1>                0.0000
     16 H16         28.7004  36.8453  40.9196 H              1 <1>                0.0000
     17 H17         30.3847  36.5804  40.4083 H              1 <1>                0.0000
     18 H18         29.5349  38.0712  39.9350 H              1 <1>                0.0000
     19 H19         28.4174  34.3266  38.1930 H              1 <1>                0.0000
     20 H20         29.7321  34.3937  39.3910 H              1 <1>                0.0000
     21 H21         28.0478  34.6585  39.9023 H              1 <1>                0.0000
     22 H22         29.5964  36.1559  36.7578 H              1 <1>                0.0000
     23 H23         31.5713  36.1046  39.1518 H              1 <1>                0.0000
     24 H24         31.6719  35.1629  37.6013 H              1 <1>                0.0000
     25 H25         32.6884  37.8546  37.8494 H              1 <1>                0.0000
     26 H26         30.0789  38.5589  36.8320 H              1 <1>                0.0000
     27 H27         30.4490  38.4973  38.6097 H              1 <1>                0.0000
@<TRIPOS>BOND
    1    1    2 1     
    2    1   13 1     
    3    1   14 1     
    4    1   15 1     
    5    2    3 1     
    6    2    4 1     
    7    2    5 1     
    8    3   16 1     
    9    3   17 1     
   10    3   18 1     
   11    4   19 1     
   12    4   20 1     
   13    4   21 1     
   14    5    6 1     
   15    5    8 1     
   16    5   22 1     
   17    6    7 1     
   18    6   23 1     
   19    6   24 1     
   20    7    8 1     
   21    7    9 1     
   22    7   25 1     
   23    8   26 1     
   24    8   27 1     
   25    9   10 2     
   26    9   11 2     
   27    9   12 1     
@<TRIPOS>SUBSTRUCTURE
      1 ****           1
@<TRIPOS>COMMENT
> <Gold.Version>
2022.2.0

> <Gold.Id.Protein>
1qkm|1qkm_protein|mol2

> <Gold.Protein.RotatedTorsions>
[  496  491  490  487 ] final  131.07 input  -89.99 | X-H torsion

> <Gold.Protein.ActiveResidues>
 MET295  LEU298  THR299  LEU301  ALA302  GLU305  TRP335  MET336  LEU339  MET340 
 GLY342  LEU343  ARG346  PHE356  ILE373  ILE376  PHE377  LEU380  LYS471  GLY472 
 MET473  HIS475  LEU476  LEU477  ASN478  MET479  VAL484  VAL487 

> <Gold.Protein.RotatedAtoms>
   37.1601   32.9757   41.4584 H   0  0  0  0  0  0  0  0  0  0  0  0  # atno 496  bound_to 491 

> <Gold.Score>
     Score     S(PLP)   S(hbond)     S(cho)   S(metal)  DE(clash)   DE(tors)     intcor
     32.82     -32.98       0.00       0.00       0.00       0.00       0.67       1.18

> <Gold.PLP.Fitness>
32.8207

> <Gold.PLP.PLP>
-32.9804

> <Gold.PLP.part.hbond>
0.0000

> <Gold.PLP.part.metal>
0.0000

> <Gold.PLP.part.buried>
-2.1757

> <Gold.PLP.part.nonpolar>
-31.4113

> <Gold.PLP.part.repulsive>
0.2122

> <Gold.PLP.ligand.clash>
0.0000

> <Gold.PLP.ligand.torsion>
0.6685

> <Gold.PLP.Chemscore.Hbond>
0.0000

> <Gold.PLP.Chemscore.CHOScore>
0.0000

> <Gold.PLP.Chemscore.Metal>
0.0000

> <Gold.PLP.Chemscore.Internal.Correction>
1.1774

