#       Name:                EN300-7430310_i001
#       Creating user name   aseyller
#       Creation time:       Fri Apr 21 20:17:02 2023


#       File generated by GOLD software.
#

@<TRIPOS>MOLECULE
EN300-7430310_i001|Sulfonylchlorides|mol2|1046|dock16
    27    27     1
SMALL
USER_CHARGES


@<TRIPOS>ATOM
      1 C1          32.1240  35.9651  35.5026 C.3            1 <1>                0.0000
      2 C2          31.3824  37.2086  35.9971 C.3            1 <1>                0.0000
      3 C3          32.3856  38.1959  36.5968 C.3            1 <1>                0.0000
      4 C4          30.6556  37.8692  34.8240 C.3            1 <1>                0.0000
      5 C5          30.3643  36.8041  37.0652 C.3            1 <1>                0.0000
      6 C6          29.6910  38.0003  37.7587 C.3            1 <1>                0.0000
      7 C7          29.8099  37.2061  39.0702 C.3            1 <1>                0.0000
      8 C8          30.9983  36.4725  38.4265 C.3            1 <1>                0.0000
      9 S9          28.3859  36.1322  39.4012 S.o2           1 <1>                0.0000
     10 O10         28.1819  35.9916  40.8004 O.2            1 <1>                0.0000
     11 O11         27.3079  36.4515  38.5321 O.2            1 <1>                0.0000
     12 Cl12        28.9857  34.2998  38.7986 Cl             1 <1>                0.0000
     13 H13         32.5454  35.4307  36.3540 H              1 <1>                0.0000
     14 H14         31.4286  35.3139  34.9729 H              1 <1>                0.0000
     15 H15         32.9264  36.2647  34.8284 H              1 <1>                0.0000
     16 H16         33.1109  38.4841  35.8358 H              1 <1>                0.0000
     17 H17         31.8572  39.0818  36.9491 H              1 <1>                0.0000
     18 H18         32.9034  37.7253  37.4325 H              1 <1>                0.0000
     19 H19         29.9409  37.1657  34.3968 H              1 <1>                0.0000
     20 H20         30.1272  38.7550  35.1763 H              1 <1>                0.0000
     21 H21         31.3809  38.1573  34.0630 H              1 <1>                0.0000
     22 H22         29.6601  36.0497  36.7147 H              1 <1>                0.0000
     23 H23         30.2922  38.9093  37.7427 H              1 <1>                0.0000
     24 H24         28.6618  38.1666  37.4408 H              1 <1>                0.0000
     25 H25         30.0878  37.8187  39.9279 H              1 <1>                0.0000
     26 H26         31.0245  35.4055  38.6476 H              1 <1>                0.0000
     27 H27         31.9569  36.9639  38.5930 H              1 <1>                0.0000
@<TRIPOS>BOND
    1    1    2 1     
    2    1   13 1     
    3    1   14 1     
    4    1   15 1     
    5    2    3 1     
    6    2    4 1     
    7    2    5 1     
    8    3   16 1     
    9    3   17 1     
   10    3   18 1     
   11    4   19 1     
   12    4   20 1     
   13    4   21 1     
   14    5    6 1     
   15    5    8 1     
   16    5   22 1     
   17    6    7 1     
   18    6   23 1     
   19    6   24 1     
   20    7    8 1     
   21    7    9 1     
   22    7   25 1     
   23    8   26 1     
   24    8   27 1     
   25    9   10 2     
   26    9   11 2     
   27    9   12 1     
@<TRIPOS>SUBSTRUCTURE
      1 ****           1
@<TRIPOS>COMMENT
> <Gold.Version>
2022.2.0

> <Gold.Id.Protein>
1qkm|1qkm_protein|mol2

> <Gold.Protein.RotatedTorsions>
[  496  491  490  487 ] final  -84.17 input  -89.99 | X-H torsion

> <Gold.Protein.ActiveResidues>
 MET295  LEU298  THR299  LEU301  ALA302  GLU305  TRP335  MET336  LEU339  MET340 
 GLY342  LEU343  ARG346  PHE356  ILE373  ILE376  PHE377  LEU380  LYS471  GLY472 
 MET473  HIS475  LEU476  LEU477  ASN478  MET479  VAL484  VAL487 

> <Gold.Protein.RotatedAtoms>
   36.7037   34.6873   41.1512 H   0  0  0  0  0  0  0  0  0  0  0  0  # atno 496  bound_to 491 

> <Gold.Score>
     Score     S(PLP)   S(hbond)     S(cho)   S(metal)  DE(clash)   DE(tors)     intcor
     31.46     -31.66       0.00       0.00       0.00       0.00       0.69       1.18

> <Gold.PLP.Fitness>
31.4619

> <Gold.PLP.PLP>
-31.6591

> <Gold.PLP.part.hbond>
0.0000

> <Gold.PLP.part.metal>
0.0000

> <Gold.PLP.part.buried>
-3.2814

> <Gold.PLP.part.nonpolar>
-28.6227

> <Gold.PLP.part.repulsive>
0.1105

> <Gold.PLP.ligand.clash>
0.0000

> <Gold.PLP.ligand.torsion>
0.6873

> <Gold.PLP.Chemscore.Hbond>
0.0000

> <Gold.PLP.Chemscore.CHOScore>
0.0000

> <Gold.PLP.Chemscore.Metal>
0.0000

> <Gold.PLP.Chemscore.Internal.Correction>
1.1774

