#       Name:                EN300-7430310_i001
#       Creating user name   aseyller
#       Creation time:       Fri Apr 21 20:16:56 2023


#       File generated by GOLD software.
#

@<TRIPOS>MOLECULE
EN300-7430310_i001|Sulfonylchlorides|mol2|1046|dock8
    27    27     1
SMALL
USER_CHARGES


@<TRIPOS>ATOM
      1 C1          28.2083  34.9575  39.5079 C.3            1 <1>                0.0000
      2 C2          28.2371  36.4599  39.7960 C.3            1 <1>                0.0000
      3 C3          26.8163  37.0218  39.7161 C.3            1 <1>                0.0000
      4 C4          28.8025  36.6997  41.1973 C.3            1 <1>                0.0000
      5 C5          29.1215  37.1605  38.7626 C.3            1 <1>                0.0000
      6 C6          28.7698  36.8046  37.3083 C.3            1 <1>                0.0000
      7 C7          30.2825  36.7740  37.0329 C.3            1 <1>                0.0000
      8 C8          30.4684  36.4570  38.5261 C.3            1 <1>                0.0000
      9 S9          30.9642  38.3814  36.5408 S.o2           1 <1>                0.0000
     10 O10         30.1913  39.4400  37.0898 O.2            1 <1>                0.0000
     11 O11         32.3810  38.3763  36.6490 O.2            1 <1>                0.0000
     12 Cl12        30.6166  38.4893  34.5538 Cl             1 <1>                0.0000
     13 H13         27.9156  34.7919  38.4711 H              1 <1>                0.0000
     14 H14         29.1992  34.5360  39.6774 H              1 <1>                0.0000
     15 H15         27.4898  34.4743  40.1699 H              1 <1>                0.0000
     16 H16         26.1863  36.5227  40.4524 H              1 <1>                0.0000
     17 H17         26.8369  38.0921  39.9214 H              1 <1>                0.0000
     18 H18         26.4136  36.8510  38.7178 H              1 <1>                0.0000
     19 H19         29.8147  36.2993  41.2542 H              1 <1>                0.0000
     20 H20         28.8231  37.7700  41.4026 H              1 <1>                0.0000
     21 H21         28.1725  36.2005  41.9336 H              1 <1>                0.0000
     22 H22         29.2124  38.2320  38.9401 H              1 <1>                0.0000
     23 H23         28.2867  35.8335  37.2011 H              1 <1>                0.0000
     24 H24         28.2457  37.6001  36.7787 H              1 <1>                0.0000
     25 H25         30.5897  35.9628  36.3728 H              1 <1>                0.0000
     26 H26         31.3154  36.9718  38.9797 H              1 <1>                0.0000
     27 H27         30.4496  35.3908  38.7518 H              1 <1>                0.0000
@<TRIPOS>BOND
    1    1    2 1     
    2    1   13 1     
    3    1   14 1     
    4    1   15 1     
    5    2    3 1     
    6    2    4 1     
    7    2    5 1     
    8    3   16 1     
    9    3   17 1     
   10    3   18 1     
   11    4   19 1     
   12    4   20 1     
   13    4   21 1     
   14    5    6 1     
   15    5    8 1     
   16    5   22 1     
   17    6    7 1     
   18    6   23 1     
   19    6   24 1     
   20    7    8 1     
   21    7    9 1     
   22    7   25 1     
   23    8   26 1     
   24    8   27 1     
   25    9   10 2     
   26    9   11 2     
   27    9   12 1     
@<TRIPOS>SUBSTRUCTURE
      1 ****           1
@<TRIPOS>COMMENT
> <Gold.Version>
2022.2.0

> <Gold.Id.Protein>
1qkm|1qkm_protein|mol2

> <Gold.Protein.RotatedTorsions>
[  496  491  490  487 ] final  -21.63 input  -89.99 | X-H torsion

> <Gold.Protein.ActiveResidues>
 MET295  LEU298  THR299  LEU301  ALA302  GLU305  TRP335  MET336  LEU339  MET340 
 GLY342  LEU343  ARG346  PHE356  ILE373  ILE376  PHE377  LEU380  LYS471  GLY472 
 MET473  HIS475  LEU476  LEU477  ASN478  MET479  VAL484  VAL487 

> <Gold.Protein.RotatedAtoms>
   36.2854   34.4878   42.0137 H   0  0  0  0  0  0  0  0  0  0  0  0  # atno 496  bound_to 491 

> <Gold.Score>
     Score     S(PLP)   S(hbond)     S(cho)   S(metal)  DE(clash)   DE(tors)     intcor
     32.69     -32.95       0.00       0.00       0.00       0.00       0.72       1.18

> <Gold.PLP.Fitness>
32.6891

> <Gold.PLP.PLP>
-32.9511

> <Gold.PLP.part.hbond>
0.0000

> <Gold.PLP.part.metal>
0.0000

> <Gold.PLP.part.buried>
-1.4265

> <Gold.PLP.part.nonpolar>
-32.2619

> <Gold.PLP.part.repulsive>
0.0000

> <Gold.PLP.ligand.clash>
0.0000

> <Gold.PLP.ligand.torsion>
0.7197

> <Gold.PLP.Chemscore.Hbond>
0.0000

> <Gold.PLP.Chemscore.CHOScore>
0.0000

> <Gold.PLP.Chemscore.Metal>
0.0000

> <Gold.PLP.Chemscore.Internal.Correction>
1.1774

