#       Name:                EN300-7430310_i001
#       Creating user name   aseyller
#       Creation time:       Fri Apr 21 20:17:03 2023


#       File generated by GOLD software.
#

@<TRIPOS>MOLECULE
EN300-7430310_i001|Sulfonylchlorides|mol2|1046|dock17
    27    27     1
SMALL
USER_CHARGES


@<TRIPOS>ATOM
      1 C1          26.2881  35.2348  38.5139 C.3            1 <1>                0.0000
      2 C2          27.0223  36.3648  39.2385 C.3            1 <1>                0.0000
      3 C3          26.0976  37.5775  39.3613 C.3            1 <1>                0.0000
      4 C4          27.4331  35.8931  40.6348 C.3            1 <1>                0.0000
      5 C5          28.2706  36.7537  38.4439 C.3            1 <1>                0.0000
      6 C6          29.3597  35.6678  38.4371 C.3            1 <1>                0.0000
      7 C7          30.3838  36.8050  38.5880 C.3            1 <1>                0.0000
      8 C8          29.2576  37.6276  39.2358 C.3            1 <1>                0.0000
      9 S9          30.9587  37.4799  37.0054 S.o2           1 <1>                0.0000
     10 O10         32.3749  37.5972  36.9982 O.2            1 <1>                0.0000
     11 O11         30.2686  36.8703  35.9232 O.2            1 <1>                0.0000
     12 Cl12        30.3007  39.3898  37.0033 Cl             1 <1>                0.0000
     13 H13         26.0975  35.5285  37.4817 H              1 <1>                0.0000
     14 H14         26.9025  34.3345  38.5280 H              1 <1>                0.0000
     15 H15         25.3411  35.0363  39.0160 H              1 <1>                0.0000
     16 H16         25.2083  37.3004  39.9274 H              1 <1>                0.0000
     17 H17         26.6208  38.3825  39.8774 H              1 <1>                0.0000
     18 H18         25.8050  37.9135  38.3665 H              1 <1>                0.0000
     19 H19         28.0919  35.0291  40.5472 H              1 <1>                0.0000
     20 H20         27.9563  36.6981  41.1509 H              1 <1>                0.0000
     21 H21         26.5438  35.6160  41.2009 H              1 <1>                0.0000
     22 H22         28.0373  37.1442  37.4534 H              1 <1>                0.0000
     23 H23         29.3170  35.0014  39.2986 H              1 <1>                0.0000
     24 H24         29.4372  35.1332  37.4905 H              1 <1>                0.0000
     25 H25         31.2004  36.5694  39.2705 H              1 <1>                0.0000
     26 H26         29.2527  38.6750  38.9340 H              1 <1>                0.0000
     27 H27         29.1871  37.4969  40.3157 H              1 <1>                0.0000
@<TRIPOS>BOND
    1    1    2 1     
    2    1   13 1     
    3    1   14 1     
    4    1   15 1     
    5    2    3 1     
    6    2    4 1     
    7    2    5 1     
    8    3   16 1     
    9    3   17 1     
   10    3   18 1     
   11    4   19 1     
   12    4   20 1     
   13    4   21 1     
   14    5    6 1     
   15    5    8 1     
   16    5   22 1     
   17    6    7 1     
   18    6   23 1     
   19    6   24 1     
   20    7    8 1     
   21    7    9 1     
   22    7   25 1     
   23    8   26 1     
   24    8   27 1     
   25    9   10 2     
   26    9   11 2     
   27    9   12 1     
@<TRIPOS>SUBSTRUCTURE
      1 ****           1
@<TRIPOS>COMMENT
> <Gold.Version>
2022.2.0

> <Gold.Id.Protein>
1qkm|1qkm_protein|mol2

> <Gold.Protein.RotatedTorsions>
[  496  491  490  487 ] final  -84.11 input  -89.99 | X-H torsion

> <Gold.Protein.ActiveResidues>
 MET295  LEU298  THR299  LEU301  ALA302  GLU305  TRP335  MET336  LEU339  MET340 
 GLY342  LEU343  ARG346  PHE356  ILE373  ILE376  PHE377  LEU380  LYS471  GLY472 
 MET473  HIS475  LEU476  LEU477  ASN478  MET479  VAL484  VAL487 

> <Gold.Protein.RotatedAtoms>
   36.7032   34.6876   41.1520 H   0  0  0  0  0  0  0  0  0  0  0  0  # atno 496  bound_to 491 

> <Gold.Score>
     Score     S(PLP)   S(hbond)     S(cho)   S(metal)  DE(clash)   DE(tors)     intcor
     32.19     -32.29       0.00       0.00       0.00       0.00       0.64       1.18

> <Gold.PLP.Fitness>
32.1901

> <Gold.PLP.PLP>
-32.2885

> <Gold.PLP.part.hbond>
0.0000

> <Gold.PLP.part.metal>
0.0000

> <Gold.PLP.part.buried>
-2.5216

> <Gold.PLP.part.nonpolar>
-29.7148

> <Gold.PLP.part.repulsive>
0.0197

> <Gold.PLP.ligand.clash>
0.0000

> <Gold.PLP.ligand.torsion>
0.6379

> <Gold.PLP.Chemscore.Hbond>
0.0000

> <Gold.PLP.Chemscore.CHOScore>
0.0000

> <Gold.PLP.Chemscore.Metal>
0.0000

> <Gold.PLP.Chemscore.Internal.Correction>
1.1774

