#       Name:                EN300-7430310_i001
#       Creating user name   aseyller
#       Creation time:       Fri Apr 21 20:16:58 2023


#       File generated by GOLD software.
#

@<TRIPOS>MOLECULE
EN300-7430310_i001|Sulfonylchlorides|mol2|1046|dock12
    27    27     1
SMALL
USER_CHARGES


@<TRIPOS>ATOM
      1 C1          28.6964  36.6994  41.7823 C.3            1 <1>                0.0000
      2 C2          27.8175  36.4769  40.5499 C.3            1 <1>                0.0000
      3 C3          27.7573  34.9821  40.2294 C.3            1 <1>                0.0000
      4 C4          26.4057  36.9958  40.8299 C.3            1 <1>                0.0000
      5 C5          28.4106  37.2306  39.3577 C.3            1 <1>                0.0000
      6 C6          27.7606  36.8650  38.0127 C.3            1 <1>                0.0000
      7 C7          29.1725  36.9178  37.4056 C.3            1 <1>                0.0000
      8 C8          29.7045  36.6023  38.8135 C.3            1 <1>                0.0000
      9 S9          29.6432  38.5626  36.8026 S.o2           1 <1>                0.0000
     10 O10         28.4950  39.3865  36.6534 O.2            1 <1>                0.0000
     11 O11         30.7981  39.0321  37.4846 O.2            1 <1>                0.0000
     12 Cl12        30.2767  38.2437  34.9111 Cl             1 <1>                0.0000
     13 H13         29.7276  36.4373  41.5453 H              1 <1>                0.0000
     14 H14         28.6469  37.7469  42.0796 H              1 <1>                0.0000
     15 H15         28.3409  36.0724  42.6000 H              1 <1>                0.0000
     16 H16         27.3347  34.4452  41.0787 H              1 <1>                0.0000
     17 H17         27.1311  34.8237  39.3514 H              1 <1>                0.0000
     18 H18         28.7631  34.6125  40.0299 H              1 <1>                0.0000
     19 H19         26.4486  38.0607  41.0582 H              1 <1>                0.0000
     20 H20         25.7795  36.8373  39.9519 H              1 <1>                0.0000
     21 H21         25.9831  36.4589  41.6792 H              1 <1>                0.0000
     22 H22         28.4838  38.3043  39.5297 H              1 <1>                0.0000
     23 H23         27.3162  35.8698  37.9987 H              1 <1>                0.0000
     24 H24         27.0909  37.6342  37.6281 H              1 <1>                0.0000
     25 H25         29.3652  36.1284  36.6791 H              1 <1>                0.0000
     26 H26         30.6040  37.1594  39.0755 H              1 <1>                0.0000
     27 H27         29.7915  35.5353  39.0185 H              1 <1>                0.0000
@<TRIPOS>BOND
    1    1    2 1     
    2    1   13 1     
    3    1   14 1     
    4    1   15 1     
    5    2    3 1     
    6    2    4 1     
    7    2    5 1     
    8    3   16 1     
    9    3   17 1     
   10    3   18 1     
   11    4   19 1     
   12    4   20 1     
   13    4   21 1     
   14    5    6 1     
   15    5    8 1     
   16    5   22 1     
   17    6    7 1     
   18    6   23 1     
   19    6   24 1     
   20    7    8 1     
   21    7    9 1     
   22    7   25 1     
   23    8   26 1     
   24    8   27 1     
   25    9   10 2     
   26    9   11 2     
   27    9   12 1     
@<TRIPOS>SUBSTRUCTURE
      1 ****           1
@<TRIPOS>COMMENT
> <Gold.Version>
2022.2.0

> <Gold.Id.Protein>
1qkm|1qkm_protein|mol2

> <Gold.Protein.RotatedTorsions>
[  496  491  490  487 ] final   66.48 input  -89.99 | X-H torsion

> <Gold.Protein.ActiveResidues>
 MET295  LEU298  THR299  LEU301  ALA302  GLU305  TRP335  MET336  LEU339  MET340 
 GLY342  LEU343  ARG346  PHE356  ILE373  ILE376  PHE377  LEU380  LYS471  GLY472 
 MET473  HIS475  LEU476  LEU477  ASN478  MET479  VAL484  VAL487 

> <Gold.Protein.RotatedAtoms>
   36.6065   33.2398   42.2581 H   0  0  0  0  0  0  0  0  0  0  0  0  # atno 496  bound_to 491 

> <Gold.Score>
     Score     S(PLP)   S(hbond)     S(cho)   S(metal)  DE(clash)   DE(tors)     intcor
     32.05     -32.06       0.00       0.00       0.00       0.00       0.60       1.18

> <Gold.PLP.Fitness>
32.0467

> <Gold.PLP.PLP>
-32.0604

> <Gold.PLP.part.hbond>
0.0000

> <Gold.PLP.part.metal>
0.0000

> <Gold.PLP.part.buried>
0.2408

> <Gold.PLP.part.nonpolar>
-32.1582

> <Gold.PLP.part.repulsive>
0.0000

> <Gold.PLP.ligand.clash>
0.0000

> <Gold.PLP.ligand.torsion>
0.5955

> <Gold.PLP.Chemscore.Hbond>
0.0000

> <Gold.PLP.Chemscore.CHOScore>
0.0000

> <Gold.PLP.Chemscore.Metal>
0.0000

> <Gold.PLP.Chemscore.Internal.Correction>
1.1774

