#       Name:                EN300-7430310_i001
#       Creating user name   aseyller
#       Creation time:       Fri Apr 21 20:16:56 2023


#       File generated by GOLD software.
#

@<TRIPOS>MOLECULE
EN300-7430310_i001|Sulfonylchlorides|mol2|1046|dock9
    27    27     1
SMALL
USER_CHARGES


@<TRIPOS>ATOM
      1 C1          30.6704  37.3981  34.8011 C.3            1 <1>                0.0000
      2 C2          30.7492  38.1872  36.1095 C.3            1 <1>                0.0000
      3 C3          32.2112  38.3107  36.5434 C.3            1 <1>                0.0000
      4 C4          30.1598  39.5833  35.8994 C.3            1 <1>                0.0000
      5 C5          29.9553  37.4565  37.1943 C.3            1 <1>                0.0000
      6 C6          29.9905  38.1589  38.5620 C.3            1 <1>                0.0000
      7 C7          30.1177  36.7605  39.1889 C.3            1 <1>                0.0000
      8 C8          30.7307  36.3041  37.8544 C.3            1 <1>                0.0000
      9 S9          28.5216  35.9822  39.5593 S.o2           1 <1>                0.0000
     10 O10         27.4530  36.8717  39.2656 O.2            1 <1>                0.0000
     11 O11         28.5034  34.6380  39.0990 O.2            1 <1>                0.0000
     12 Cl12        28.4953  35.8198  41.5727 Cl             1 <1>                0.0000
     13 H13         30.9823  36.3688  34.9782 H              1 <1>                0.0000
     14 H14         29.6449  37.4085  34.4316 H              1 <1>                0.0000
     15 H15         31.3278  37.8548  34.0613 H              1 <1>                0.0000
     16 H16         32.7767  38.8313  35.7705 H              1 <1>                0.0000
     17 H17         32.2672  38.8729  37.4756 H              1 <1>                0.0000
     18 H18         32.6311  37.3161  36.6931 H              1 <1>                0.0000
     19 H19         29.1182  39.4953  35.5903 H              1 <1>                0.0000
     20 H20         30.2158  40.1455  36.8316 H              1 <1>                0.0000
     21 H21         30.7253  40.1039  35.1265 H              1 <1>                0.0000
     22 H22         28.9517  37.1804  36.8710 H              1 <1>                0.0000
     23 H23         30.8707  38.7849  38.7088 H              1 <1>                0.0000
     24 H24         29.0607  38.6680  38.8154 H              1 <1>                0.0000
     25 H25         30.8144  36.7190  40.0262 H              1 <1>                0.0000
     26 H26         30.3984  35.3158  37.5365 H              1 <1>                0.0000
     27 H27         31.8131  36.4230  37.8078 H              1 <1>                0.0000
@<TRIPOS>BOND
    1    1    2 1     
    2    1   13 1     
    3    1   14 1     
    4    1   15 1     
    5    2    3 1     
    6    2    4 1     
    7    2    5 1     
    8    3   16 1     
    9    3   17 1     
   10    3   18 1     
   11    4   19 1     
   12    4   20 1     
   13    4   21 1     
   14    5    6 1     
   15    5    8 1     
   16    5   22 1     
   17    6    7 1     
   18    6   23 1     
   19    6   24 1     
   20    7    8 1     
   21    7    9 1     
   22    7   25 1     
   23    8   26 1     
   24    8   27 1     
   25    9   10 2     
   26    9   11 2     
   27    9   12 1     
@<TRIPOS>SUBSTRUCTURE
      1 ****           1
@<TRIPOS>COMMENT
> <Gold.Version>
2022.2.0

> <Gold.Id.Protein>
1qkm|1qkm_protein|mol2

> <Gold.Protein.RotatedTorsions>
[  496  491  490  487 ] final  120.08 input  -89.99 | X-H torsion

> <Gold.Protein.ActiveResidues>
 MET295  LEU298  THR299  LEU301  ALA302  GLU305  TRP335  MET336  LEU339  MET340 
 GLY342  LEU343  ARG346  PHE356  ILE373  ILE376  PHE377  LEU380  LYS471  GLY472 
 MET473  HIS475  LEU476  LEU477  ASN478  MET479  VAL484  VAL487 

> <Gold.Protein.RotatedAtoms>
   37.0812   32.9434   41.6176 H   0  0  0  0  0  0  0  0  0  0  0  0  # atno 496  bound_to 491 

> <Gold.Score>
     Score     S(PLP)   S(hbond)     S(cho)   S(metal)  DE(clash)   DE(tors)     intcor
     32.18     -32.81       0.00       0.00       0.00       0.00       0.90       1.18

> <Gold.PLP.Fitness>
32.1845

> <Gold.PLP.PLP>
-32.8103

> <Gold.PLP.part.hbond>
0.0000

> <Gold.PLP.part.metal>
0.0000

> <Gold.PLP.part.buried>
-2.4344

> <Gold.PLP.part.nonpolar>
-30.8339

> <Gold.PLP.part.repulsive>
0.0248

> <Gold.PLP.ligand.clash>
0.0000

> <Gold.PLP.ligand.torsion>
0.9016

> <Gold.PLP.Chemscore.Hbond>
0.0000

> <Gold.PLP.Chemscore.CHOScore>
0.0000

> <Gold.PLP.Chemscore.Metal>
0.0000

> <Gold.PLP.Chemscore.Internal.Correction>
1.1774

