#       Name:                EN300-7430310_i001
#       Creating user name   aseyller
#       Creation time:       Fri Apr 21 20:17:05 2023


#       File generated by GOLD software.
#

@<TRIPOS>MOLECULE
EN300-7430310_i001|Sulfonylchlorides|mol2|1046|dock19
    27    27     1
SMALL
USER_CHARGES


@<TRIPOS>ATOM
      1 C1          26.1757  35.4492  38.5009 C.3            1 <1>                0.0000
      2 C2          27.1200  36.5594  38.9662 C.3            1 <1>                0.0000
      3 C3          26.6358  37.9036  38.4190 C.3            1 <1>                0.0000
      4 C4          27.1365  36.6073  40.4954 C.3            1 <1>                0.0000
      5 C5          28.5323  36.2774  38.4497 C.3            1 <1>                0.0000
      6 C6          29.3041  35.2508  39.2956 C.3            1 <1>                0.0000
      7 C7          30.5438  36.1396  39.1007 C.3            1 <1>                0.0000
      8 C8          29.5727  37.3154  38.9026 C.3            1 <1>                0.0000
      9 S9          31.5040  35.7323  37.6166 S.o2           1 <1>                0.0000
     10 O10         31.8042  34.3437  37.5824 O.2            1 <1>                0.0000
     11 O11         30.9686  36.3943  36.4790 O.2            1 <1>                0.0000
     12 Cl12        33.2933  36.6215  37.9142 Cl             1 <1>                0.0000
     13 H13         26.2510  35.3377  37.4192 H              1 <1>                0.0000
     14 H14         26.4520  34.5113  38.9829 H              1 <1>                0.0000
     15 H15         25.1512  35.7075  38.7691 H              1 <1>                0.0000
     16 H16         25.6296  38.1045  38.7871 H              1 <1>                0.0000
     17 H17         27.3086  38.6945  38.7505 H              1 <1>                0.0000
     18 H18         26.6241  37.8694  37.3296 H              1 <1>                0.0000
     19 H19         27.4815  35.6496  40.8852 H              1 <1>                0.0000
     20 H20         27.8093  37.3982  40.8269 H              1 <1>                0.0000
     21 H21         26.1303  36.8082  40.8635 H              1 <1>                0.0000
     22 H22         28.5582  36.0695  37.3800 H              1 <1>                0.0000
     23 H23         28.9654  35.1946  40.3301 H              1 <1>                0.0000
     24 H24         29.3899  34.2722  38.8234 H              1 <1>                0.0000
     25 H25         31.1615  36.2294  39.9943 H              1 <1>                0.0000
     26 H26         29.8752  38.0035  38.1133 H              1 <1>                0.0000
     27 H27         29.3074  37.8235  39.8297 H              1 <1>                0.0000
@<TRIPOS>BOND
    1    1    2 1     
    2    1   13 1     
    3    1   14 1     
    4    1   15 1     
    5    2    3 1     
    6    2    4 1     
    7    2    5 1     
    8    3   16 1     
    9    3   17 1     
   10    3   18 1     
   11    4   19 1     
   12    4   20 1     
   13    4   21 1     
   14    5    6 1     
   15    5    8 1     
   16    5   22 1     
   17    6    7 1     
   18    6   23 1     
   19    6   24 1     
   20    7    8 1     
   21    7    9 1     
   22    7   25 1     
   23    8   26 1     
   24    8   27 1     
   25    9   10 2     
   26    9   11 2     
   27    9   12 1     
@<TRIPOS>SUBSTRUCTURE
      1 ****           1
@<TRIPOS>COMMENT
> <Gold.Version>
2022.2.0

> <Gold.Id.Protein>
1qkm|1qkm_protein|mol2

> <Gold.Protein.RotatedTorsions>
[  496  491  490  487 ] final -169.43 input  -89.99 | X-H torsion

> <Gold.Protein.ActiveResidues>
 MET295  LEU298  THR299  LEU301  ALA302  GLU305  TRP335  MET336  LEU339  MET340 
 GLY342  LEU343  ARG346  PHE356  ILE373  ILE376  PHE377  LEU380  LYS471  GLY472 
 MET473  HIS475  LEU476  LEU477  ASN478  MET479  VAL484  VAL487 

> <Gold.Protein.RotatedAtoms>
   37.3031   33.6177   40.7923 H   0  0  0  0  0  0  0  0  0  0  0  0  # atno 496  bound_to 491 

> <Gold.Score>
     Score     S(PLP)   S(hbond)     S(cho)   S(metal)  DE(clash)   DE(tors)     intcor
     33.76     -34.62       0.00       0.00       0.00       0.00       1.02       1.18

> <Gold.PLP.Fitness>
33.7569

> <Gold.PLP.PLP>
-34.6193

> <Gold.PLP.part.hbond>
0.0000

> <Gold.PLP.part.metal>
0.0000

> <Gold.PLP.part.buried>
-3.3718

> <Gold.PLP.part.nonpolar>
-31.2991

> <Gold.PLP.part.repulsive>
0.0325

> <Gold.PLP.ligand.clash>
0.0000

> <Gold.PLP.ligand.torsion>
1.0199

> <Gold.PLP.Chemscore.Hbond>
0.0000

> <Gold.PLP.Chemscore.CHOScore>
0.0000

> <Gold.PLP.Chemscore.Metal>
0.0000

> <Gold.PLP.Chemscore.Internal.Correction>
1.1774

