#       Name:                EN300-7430310_i001
#       Creating user name   aseyller
#       Creation time:       Fri Apr 21 20:16:53 2023


#       File generated by GOLD software.
#

@<TRIPOS>MOLECULE
EN300-7430310_i001|Sulfonylchlorides|mol2|1046|dock1
    27    27     1
SMALL
USER_CHARGES


@<TRIPOS>ATOM
      1 C1          26.8517  36.9949  39.3205 C.3            1 <1>                0.0000
      2 C2          28.1867  36.2581  39.4462 C.3            1 <1>                0.0000
      3 C3          28.8494  36.6266  40.7751 C.3            1 <1>                0.0000
      4 C4          27.9425  34.7485  39.3993 C.3            1 <1>                0.0000
      5 C5          29.1033  36.6625  38.2898 C.3            1 <1>                0.0000
      6 C6          30.4581  35.9348  38.2941 C.3            1 <1>                0.0000
      7 C7          31.0898  37.2739  37.8788 C.3            1 <1>                0.0000
      8 C8          29.8879  37.9592  38.5501 C.3            1 <1>                0.0000
      9 S9          31.1566  37.5198  36.0827 S.o2           1 <1>                0.0000
     10 O10         30.0070  36.9631  35.4601 O.2            1 <1>                0.0000
     11 O11         31.5903  38.8377  35.7757 O.2            1 <1>                0.0000
     12 Cl12        32.6766  36.3394  35.4686 Cl             1 <1>                0.0000
     13 H13         27.0343  38.0663  39.2376 H              1 <1>                0.0000
     14 H14         26.3264  36.6460  38.4313 H              1 <1>                0.0000
     15 H15         26.2431  36.7972  40.2030 H              1 <1>                0.0000
     16 H16         28.1964  36.3384  41.5989 H              1 <1>                0.0000
     17 H17         29.8005  36.1017  40.8645 H              1 <1>                0.0000
     18 H18         29.0235  37.7021  40.8084 H              1 <1>                0.0000
     19 H19         27.4703  34.4860  38.4526 H              1 <1>                0.0000
     20 H20         28.8935  34.2236  39.4888 H              1 <1>                0.0000
     21 H21         27.2895  34.4603  40.2232 H              1 <1>                0.0000
     22 H22         28.5997  36.6419  37.3234 H              1 <1>                0.0000
     23 H23         30.7674  35.5939  39.2821 H              1 <1>                0.0000
     24 H24         30.5393  35.1590  37.5329 H              1 <1>                0.0000
     25 H25         32.0405  37.4795  38.3708 H              1 <1>                0.0000
     26 H26         29.5089  38.8177  37.9955 H              1 <1>                0.0000
     27 H27         30.0414  38.1718  39.6081 H              1 <1>                0.0000
@<TRIPOS>BOND
    1    1    2 1     
    2    1   13 1     
    3    1   14 1     
    4    1   15 1     
    5    2    3 1     
    6    2    4 1     
    7    2    5 1     
    8    3   16 1     
    9    3   17 1     
   10    3   18 1     
   11    4   19 1     
   12    4   20 1     
   13    4   21 1     
   14    5    6 1     
   15    5    8 1     
   16    5   22 1     
   17    6    7 1     
   18    6   23 1     
   19    6   24 1     
   20    7    8 1     
   21    7    9 1     
   22    7   25 1     
   23    8   26 1     
   24    8   27 1     
   25    9   10 2     
   26    9   11 2     
   27    9   12 1     
@<TRIPOS>SUBSTRUCTURE
      1 ****           1
@<TRIPOS>COMMENT
> <Gold.Version>
2022.2.0

> <Gold.Id.Protein>
1qkm|1qkm_protein|mol2

> <Gold.Protein.RotatedTorsions>
[  496  491  490  487 ] final  -82.16 input  -89.99 | X-H torsion

> <Gold.Protein.ActiveResidues>
 MET295  LEU298  THR299  LEU301  ALA302  GLU305  TRP335  MET336  LEU339  MET340 
 GLY342  LEU343  ARG346  PHE356  ILE373  ILE376  PHE377  LEU380  LYS471  GLY472 
 MET473  HIS475  LEU476  LEU477  ASN478  MET479  VAL484  VAL487 

> <Gold.Protein.RotatedAtoms>
   36.6855   34.6970   41.1770 H   0  0  0  0  0  0  0  0  0  0  0  0  # atno 496  bound_to 491 

> <Gold.Score>
     Score     S(PLP)   S(hbond)     S(cho)   S(metal)  DE(clash)   DE(tors)     intcor
     33.66     -34.14       0.00       0.00       0.00       0.00       0.83       1.18

> <Gold.PLP.Fitness>
33.6609

> <Gold.PLP.PLP>
-34.1409

> <Gold.PLP.part.hbond>
0.0000

> <Gold.PLP.part.metal>
0.0000

> <Gold.PLP.part.buried>
-2.4847

> <Gold.PLP.part.nonpolar>
-31.9403

> <Gold.PLP.part.repulsive>
0.0360

> <Gold.PLP.ligand.clash>
0.0000

> <Gold.PLP.ligand.torsion>
0.8290

> <Gold.PLP.Chemscore.Hbond>
0.0000

> <Gold.PLP.Chemscore.CHOScore>
0.0000

> <Gold.PLP.Chemscore.Metal>
0.0000

> <Gold.PLP.Chemscore.Internal.Correction>
1.1780

