#       Name:                EN300-7430310_i001
#       Creating user name   aseyller
#       Creation time:       Fri Apr 21 20:16:55 2023


#       File generated by GOLD software.
#

@<TRIPOS>MOLECULE
EN300-7430310_i001|Sulfonylchlorides|mol2|1046|dock6
    27    27     1
SMALL
USER_CHARGES


@<TRIPOS>ATOM
      1 C1          28.9686  34.7880  39.1157 C.3            1 <1>                0.0000
      2 C2          28.8186  36.3027  38.9607 C.3            1 <1>                0.0000
      3 C3          27.3373  36.6561  38.8129 C.3            1 <1>                0.0000
      4 C4          29.3887  37.0008  40.1970 C.3            1 <1>                0.0000
      5 C5          29.5799  36.7659  37.7170 C.3            1 <1>                0.0000
      6 C6          31.0980  36.8842  37.9325 C.3            1 <1>                0.0000
      7 C7          31.0388  38.1673  37.0870 C.3            1 <1>                0.0000
      8 C8          29.5685  38.2911  37.5201 C.3            1 <1>                0.0000
      9 S9          31.2505  37.8763  35.3090 S.o2           1 <1>                0.0000
     10 O10         30.4849  36.7539  34.8927 O.2            1 <1>                0.0000
     11 O11         31.2008  39.1030  34.5936 O.2            1 <1>                0.0000
     12 Cl12        33.1678  37.2682  35.1226 Cl             1 <1>                0.0000
     13 H13         28.6698  34.2966  38.1898 H              1 <1>                0.0000
     14 H14         30.0084  34.5464  39.3361 H              1 <1>                0.0000
     15 H15         28.3343  34.4417  39.9318 H              1 <1>                0.0000
     16 H16         26.7950  36.3261  39.6990 H              1 <1>                0.0000
     17 H17         27.2306  37.7352  38.7025 H              1 <1>                0.0000
     18 H18         26.9312  36.1588  37.9321 H              1 <1>                0.0000
     19 H19         30.4440  36.7490  40.3022 H              1 <1>                0.0000
     20 H20         29.2820  38.0799  40.0865 H              1 <1>                0.0000
     21 H21         28.8464  36.6708  41.0831 H              1 <1>                0.0000
     22 H22         29.3083  36.2068  36.8217 H              1 <1>                0.0000
     23 H23         31.3793  37.0583  38.9711 H              1 <1>                0.0000
     24 H24         31.6690  36.0807  37.4673 H              1 <1>                0.0000
     25 H25         31.6740  38.9686  37.4644 H              1 <1>                0.0000
     26 H26         28.9045  38.6233  36.7220 H              1 <1>                0.0000
     27 H27         29.4316  38.8498  38.4460 H              1 <1>                0.0000
@<TRIPOS>BOND
    1    1    2 1     
    2    1   13 1     
    3    1   14 1     
    4    1   15 1     
    5    2    3 1     
    6    2    4 1     
    7    2    5 1     
    8    3   16 1     
    9    3   17 1     
   10    3   18 1     
   11    4   19 1     
   12    4   20 1     
   13    4   21 1     
   14    5    6 1     
   15    5    8 1     
   16    5   22 1     
   17    6    7 1     
   18    6   23 1     
   19    6   24 1     
   20    7    8 1     
   21    7    9 1     
   22    7   25 1     
   23    8   26 1     
   24    8   27 1     
   25    9   10 2     
   26    9   11 2     
   27    9   12 1     
@<TRIPOS>SUBSTRUCTURE
      1 ****           1
@<TRIPOS>COMMENT
> <Gold.Version>
2022.2.0

> <Gold.Id.Protein>
1qkm|1qkm_protein|mol2

> <Gold.Protein.RotatedTorsions>
[  496  491  490  487 ] final  -77.49 input  -89.99 | X-H torsion

> <Gold.Protein.ActiveResidues>
 MET295  LEU298  THR299  LEU301  ALA302  GLU305  TRP335  MET336  LEU339  MET340 
 GLY342  LEU343  ARG346  PHE356  ILE373  ILE376  PHE377  LEU380  LYS471  GLY472 
 MET473  HIS475  LEU476  LEU477  ASN478  MET479  VAL484  VAL487 

> <Gold.Protein.RotatedAtoms>
   36.6435   34.7154   41.2387 H   0  0  0  0  0  0  0  0  0  0  0  0  # atno 496  bound_to 491 

> <Gold.Score>
     Score     S(PLP)   S(hbond)     S(cho)   S(metal)  DE(clash)   DE(tors)     intcor
     34.56     -34.72       0.00       0.00       0.00       0.00       0.67       1.18

> <Gold.PLP.Fitness>
34.5577

> <Gold.PLP.PLP>
-34.7209

> <Gold.PLP.part.hbond>
0.0000

> <Gold.PLP.part.metal>
0.0000

> <Gold.PLP.part.buried>
-2.3999

> <Gold.PLP.part.nonpolar>
-32.6344

> <Gold.PLP.part.repulsive>
0.1001

> <Gold.PLP.ligand.clash>
0.0000

> <Gold.PLP.ligand.torsion>
0.6703

> <Gold.PLP.Chemscore.Hbond>
0.0000

> <Gold.PLP.Chemscore.CHOScore>
0.0000

> <Gold.PLP.Chemscore.Metal>
0.0000

> <Gold.PLP.Chemscore.Internal.Correction>
1.1774

