#       Name:                EN300-7430310_i001
#       Creating user name   aseyller
#       Creation time:       Fri Apr 21 20:17:01 2023


#       File generated by GOLD software.
#

@<TRIPOS>MOLECULE
EN300-7430310_i001|Sulfonylchlorides|mol2|1046|dock15
    27    27     1
SMALL
USER_CHARGES


@<TRIPOS>ATOM
      1 C1          27.6999  36.6805  40.2660 C.3            1 <1>                0.0000
      2 C2          27.3320  36.7110  38.7812 C.3            1 <1>                0.0000
      3 C3          26.6179  35.4109  38.4060 C.3            1 <1>                0.0000
      4 C4          26.4061  37.8983  38.5095 C.3            1 <1>                0.0000
      5 C5          28.6042  36.8542  37.9434 C.3            1 <1>                0.0000
      6 C6          29.7313  35.8972  38.3664 C.3            1 <1>                0.0000
      7 C7          30.7039  37.0651  38.1322 C.3            1 <1>                0.0000
      8 C8          29.5165  38.0048  38.4004 C.3            1 <1>                0.0000
      9 S9          31.3338  37.1568  36.4335 S.o2           1 <1>                0.0000
     10 O10         30.2744  36.9993  35.4996 O.2            1 <1>                0.0000
     11 O11         32.2714  38.2169  36.3059 O.2            1 <1>                0.0000
     12 Cl12        32.4426  35.4822  36.2161 Cl             1 <1>                0.0000
     13 H13         28.4485  35.9074  40.4391 H              1 <1>                0.0000
     14 H14         28.1035  37.6494  40.5603 H              1 <1>                0.0000
     15 H15         26.8098  36.4632  40.8565 H              1 <1>                0.0000
     16 H16         25.7116  35.3089  39.0028 H              1 <1>                0.0000
     17 H17         26.3559  35.4327  37.3481 H              1 <1>                0.0000
     18 H18         27.2776  34.5651  38.5996 H              1 <1>                0.0000
     19 H19         26.9148  38.8244  38.7768 H              1 <1>                0.0000
     20 H20         26.1440  37.9200  37.4516 H              1 <1>                0.0000
     21 H21         25.4997  37.7963  39.1063 H              1 <1>                0.0000
     22 H22         28.4077  36.8506  36.8714 H              1 <1>                0.0000
     23 H23         29.6692  35.5830  39.4082 H              1 <1>                0.0000
     24 H24         29.8768  35.0635  37.6796 H              1 <1>                0.0000
     25 H25         31.4927  37.1335  38.8814 H              1 <1>                0.0000
     26 H26         29.4886  38.8724  37.7412 H              1 <1>                0.0000
     27 H27         29.3957  38.2666  39.4516 H              1 <1>                0.0000
@<TRIPOS>BOND
    1    1    2 1     
    2    1   13 1     
    3    1   14 1     
    4    1   15 1     
    5    2    3 1     
    6    2    4 1     
    7    2    5 1     
    8    3   16 1     
    9    3   17 1     
   10    3   18 1     
   11    4   19 1     
   12    4   20 1     
   13    4   21 1     
   14    5    6 1     
   15    5    8 1     
   16    5   22 1     
   17    6    7 1     
   18    6   23 1     
   19    6   24 1     
   20    7    8 1     
   21    7    9 1     
   22    7   25 1     
   23    8   26 1     
   24    8   27 1     
   25    9   10 2     
   26    9   11 2     
   27    9   12 1     
@<TRIPOS>SUBSTRUCTURE
      1 ****           1
@<TRIPOS>COMMENT
> <Gold.Version>
2022.2.0

> <Gold.Id.Protein>
1qkm|1qkm_protein|mol2

> <Gold.Protein.RotatedTorsions>
[  496  491  490  487 ] final   21.78 input  -89.99 | X-H torsion

> <Gold.Protein.ActiveResidues>
 MET295  LEU298  THR299  LEU301  ALA302  GLU305  TRP335  MET336  LEU339  MET340 
 GLY342  LEU343  ARG346  PHE356  ILE373  ILE376  PHE377  LEU380  LYS471  GLY472 
 MET473  HIS475  LEU476  LEU477  ASN478  MET479  VAL484  VAL487 

> <Gold.Protein.RotatedAtoms>
   36.3091   33.8842   42.3625 H   0  0  0  0  0  0  0  0  0  0  0  0  # atno 496  bound_to 491 

> <Gold.Score>
     Score     S(PLP)   S(hbond)     S(cho)   S(metal)  DE(clash)   DE(tors)     intcor
     32.21     -32.27       0.00       0.00       0.00       0.00       0.62       1.18

> <Gold.PLP.Fitness>
32.2074

> <Gold.PLP.PLP>
-32.2678

> <Gold.PLP.part.hbond>
0.0000

> <Gold.PLP.part.metal>
0.0000

> <Gold.PLP.part.buried>
-2.4966

> <Gold.PLP.part.nonpolar>
-29.3893

> <Gold.PLP.part.repulsive>
0.0467

> <Gold.PLP.ligand.clash>
0.0000

> <Gold.PLP.ligand.torsion>
0.6189

> <Gold.PLP.Chemscore.Hbond>
0.0000

> <Gold.PLP.Chemscore.CHOScore>
0.0000

> <Gold.PLP.Chemscore.Metal>
0.0000

> <Gold.PLP.Chemscore.Internal.Correction>
1.1774

