#       Name:                EN300-7430310_i001
#       Creating user name   aseyller
#       Creation time:       Fri Apr 21 20:16:52 2023


#       File generated by GOLD software.
#

@<TRIPOS>MOLECULE
EN300-7430310_i001
    27    27     1
SMALL
USER_CHARGES


@<TRIPOS>ATOM
      1 C1           1.8290   0.8889   0.6136 C.3            1 <1>                0.0000
      2 C2           1.2683  -0.3387  -0.1071 C.3            1 <1>                0.0000
      3 C3           1.7976  -0.3736  -1.5422 C.3            1 <1>                0.0000
      4 C4           1.7062  -1.6065   0.6290 C.3            1 <1>                0.0000
      5 C5          -0.2597  -0.2637  -0.1288 C.3            1 <1>                0.0000
      6 C6          -0.8042   1.0242  -0.7691 C.3            1 <1>                0.0000
      7 C7          -1.8672   1.0337   0.3421 C.3            1 <1>                0.0000
      8 C8          -0.8712   0.2288   1.1935 C.3            1 <1>                0.0000
      9 S9          -3.3708   0.1121  -0.0827 S.o2           1 <1>                0.0000
     10 O10         -4.3058   0.1633   0.9862 O.2            1 <1>                0.0000
     11 O11         -3.7680   0.3939  -1.4176 O.2            1 <1>                0.0000
     12 Cl12        -2.7802  -1.8190  -0.1358 Cl             1 <1>                0.0000
     13 H13          1.4240   1.7933   0.1596 H              1 <1>                0.0000
     14 H14          1.5468   0.8529   1.6659 H              1 <1>                0.0000
     15 H15          2.9157   0.8951   0.5289 H              1 <1>                0.0000
     16 H16          2.8862  -0.4271  -1.5267 H              1 <1>                0.0000
     17 H17          1.3981  -1.2482  -2.0556 H              1 <1>                0.0000
     18 H18          1.4856   0.5296  -2.0666 H              1 <1>                0.0000
     19 H19          1.3291  -1.5816   1.6514 H              1 <1>                0.0000
     20 H20          1.3067  -2.4811   0.1156 H              1 <1>                0.0000
     21 H21          2.7948  -1.6600   0.6445 H              1 <1>                0.0000
     22 H22         -0.7227  -1.1722  -0.5138 H              1 <1>                0.0000
     23 H23         -0.1113   1.8640  -0.7177 H              1 <1>                0.0000
     24 H24         -1.2169   0.8750  -1.7668 H              1 <1>                0.0000
     25 H25         -2.0763   2.0276   0.7378 H              1 <1>                0.0000
     26 H26         -1.3379  -0.5625   1.7802 H              1 <1>                0.0000
     27 H27         -0.1966   0.8512   1.7814 H              1 <1>                0.0000
@<TRIPOS>BOND
    1    1    2 1     
    2    1   13 1     
    3    1   14 1     
    4    1   15 1     
    5    2    3 1     
    6    2    4 1     
    7    2    5 1     
    8    3   16 1     
    9    3   17 1     
   10    3   18 1     
   11    4   19 1     
   12    4   20 1     
   13    4   21 1     
   14    5    6 1     
   15    5    8 1     
   16    5   22 1     
   17    6    7 1     
   18    6   23 1     
   19    6   24 1     
   20    7    8 1     
   21    7    9 1     
   22    7   25 1     
   23    8   26 1     
   24    8   27 1     
   25    9   10 2     
   26    9   11 2     
   27    9   12 1     
@<TRIPOS>SUBSTRUCTURE
      1 ****           1
