#       Name:                EN300-210720_i001
#       Creating user name   aseyller
#       Creation time:       Fri Apr 21 16:48:23 2023


#       File generated by GOLD software.
#

@<TRIPOS>MOLECULE
EN300-210720_i001|aminophenols|mol2|130|dock16
    16    16     1
SMALL
USER_CHARGES


@<TRIPOS>ATOM
      1 N1          28.4198  35.0628  39.7682 N.pl3          1 <1>                0.0000
      2 C2          28.7967  36.0830  38.8865 C.ar           1 <1>                0.0000
      3 C3          30.0639  36.0726  38.3069 C.ar           1 <1>                0.0000
      4 O4          30.9376  35.0713  38.5965 O.co2          1 <1>               -1.0000
      5 C5          30.4314  37.0838  37.4353 C.ar           1 <1>                0.0000
      6 C6          29.5414  38.1020  37.1417 C.ar           1 <1>                0.0000
      7 Br7         30.0460  39.4817  35.9508 Br             1 <1>                0.0000
      8 C8          28.2837  38.1128  37.7165 C.ar           1 <1>                0.0000
      9 C9          27.9077  37.1033  38.5834 C.ar           1 <1>                0.0000
     10 N10         26.5605  37.1178  39.1965 N.pl3          1 <1>                0.0000
     11 O11         26.2954  36.3481  40.1024 O.2            1 <1>                0.0000
     12 O12         25.7171  37.8995  38.7951 O.2            1 <1>                0.0000
     13 H13         31.4130  37.0779  36.9848 H              1 <1>                0.0000
     14 H14         27.5922  38.9092  37.4847 H              1 <1>                0.0000
     15 H15         29.0411  34.3476  39.9762 H              1 <1>                0.0000
     16 H16         27.5388  35.0733  40.1740 H              1 <1>                0.0000
@<TRIPOS>BOND
    1    1    2 1     
    2    1   15 1     
    3    1   16 1     
    4    2    3 ar    
    5    2    9 ar    
    6    3    4 ar    
    7    3    5 ar    
    8    5    6 ar    
    9    5   13 1     
   10    6    7 1     
   11    6    8 ar    
   12    8    9 ar    
   13    8   14 1     
   14    9   10 1     
   15   10   11 2     
   16   10   12 2     
@<TRIPOS>SUBSTRUCTURE
      1 ****           1
@<TRIPOS>SET
DONOR_HYDROGENS      STATIC     ATOMS    <user>   **** ""
2 15 16
ATOM$RED        STATIC     ATOMS    COLORGROUP SYSTEM
2 15 16
@<TRIPOS>COMMENT
> <Gold.Version>
2022.2.0

> <Gold.Id.Protein>
1qkm|1qkm_protein|mol2

> <Gold.Protein.RotatedTorsions>
[  496  491  490  487 ] final  135.41 input  -89.99 | X-H torsion

> <Gold.Protein.ActiveResidues>
 MET295  LEU298  THR299  LEU301  ALA302  GLU305  TRP335  MET336  LEU339  MET340 
 GLY342  LEU343  ARG346  PHE356  ILE373  ILE376  PHE377  LEU380  LYS471  GLY472 
 MET473  HIS475  LEU476  LEU477  ASN478  MET479  VAL484  VAL487 

> <Gold.Protein.RotatedAtoms>
   37.1876   32.9972   41.3961 H   0  0  0  0  0  0  0  0  0  0  0  0  # atno 496  bound_to 491 

> <Gold.Score>
     Score     S(PLP)   S(hbond)     S(cho)   S(metal)  DE(clash)   DE(tors)     intcor
     28.08     -28.11       0.00       0.00       0.00       0.00       0.05       0.06

> <Gold.PLP.Fitness>
28.0772

> <Gold.PLP.PLP>
-28.1119

> <Gold.PLP.part.hbond>
0.0000

> <Gold.PLP.part.metal>
0.0000

> <Gold.PLP.part.buried>
-2.4282

> <Gold.PLP.part.nonpolar>
-25.9689

> <Gold.PLP.part.repulsive>
0.2709

> <Gold.PLP.ligand.clash>
0.0000

> <Gold.PLP.ligand.torsion>
0.0496

> <Gold.PLP.Chemscore.Hbond>
0.0000

> <Gold.PLP.Chemscore.CHOScore>
0.0000

> <Gold.PLP.Chemscore.Metal>
0.0000

> <Gold.PLP.Chemscore.Internal.Correction>
0.0645

