#       Name:                EN300-210720_i001
#       Creating user name   aseyller
#       Creation time:       Fri Apr 21 16:48:20 2023


#       File generated by GOLD software.
#

@<TRIPOS>MOLECULE
EN300-210720_i001|aminophenols|mol2|130|dock6
    16    16     1
SMALL
USER_CHARGES


@<TRIPOS>ATOM
      1 N1          32.8935  38.3528  34.3594 N.pl3          1 <1>                0.0000
      2 C2          32.6428  37.3952  35.3496 C.ar           1 <1>                0.0000
      3 C3          33.5563  36.3672  35.5745 C.ar           1 <1>                0.0000
      4 O4          34.6937  36.2917  34.8325 O.co2          1 <1>               -1.0000
      5 C5          33.3036  35.4230  36.5553 C.ar           1 <1>                0.0000
      6 C6          32.1459  35.5011  37.3093 C.ar           1 <1>                0.0000
      7 Br7         31.8034  34.2103  38.6483 Br             1 <1>                0.0000
      8 C8          31.2390  36.5211  37.0866 C.ar           1 <1>                0.0000
      9 C9          31.4873  37.4708  36.1128 C.ar           1 <1>                0.0000
     10 N10         30.5147  38.5614  35.8774 N.pl3          1 <1>                0.0000
     11 O11         29.4127  38.5167  36.3941 O.2            1 <1>                0.0000
     12 O12         30.8164  39.5036  35.1669 O.2            1 <1>                0.0000
     13 H13         34.0101  34.6254  36.7315 H              1 <1>                0.0000
     14 H14         30.3367  36.5784  37.6773 H              1 <1>                0.0000
     15 H15         33.7039  38.3010  33.8290 H              1 <1>                0.0000
     16 H16         32.2550  39.0656  34.2012 H              1 <1>                0.0000
@<TRIPOS>BOND
    1    1    2 1     
    2    1   15 1     
    3    1   16 1     
    4    2    3 ar    
    5    2    9 ar    
    6    3    4 ar    
    7    3    5 ar    
    8    5    6 ar    
    9    5   13 1     
   10    6    7 1     
   11    6    8 ar    
   12    8    9 ar    
   13    8   14 1     
   14    9   10 1     
   15   10   11 2     
   16   10   12 2     
@<TRIPOS>SUBSTRUCTURE
      1 ****           1
@<TRIPOS>SET
DONOR_HYDROGENS      STATIC     ATOMS    <user>   **** ""
2 15 16
ATOM$RED        STATIC     ATOMS    COLORGROUP SYSTEM
2 15 16
@<TRIPOS>COMMENT
> <Gold.Version>
2022.2.0

> <Gold.Id.Protein>
1qkm|1qkm_protein|mol2

> <Gold.Protein.RotatedTorsions>
[  496  491  490  487 ] final  -82.73 input  -89.99 | X-H torsion

> <Gold.Protein.ActiveResidues>
 MET295  LEU298  THR299  LEU301  ALA302  GLU305  TRP335  MET336  LEU339  MET340 
 GLY342  LEU343  ARG346  PHE356  ILE373  ILE376  PHE377  LEU380  LYS471  GLY472 
 MET473  HIS475  LEU476  LEU477  ASN478  MET479  VAL484  VAL487 

> <Gold.Protein.RotatedAtoms>
   36.6906   34.6943   41.1697 H   0  0  0  0  0  0  0  0  0  0  0  0  # atno 496  bound_to 491 

> <Gold.Score>
     Score     S(PLP)   S(hbond)     S(cho)   S(metal)  DE(clash)   DE(tors)     intcor
     30.26     -27.31       1.00       0.00       0.00       0.00       0.06       0.06

> <Gold.PLP.Fitness>
30.2610

> <Gold.PLP.PLP>
-27.3083

> <Gold.PLP.part.hbond>
-1.2247

> <Gold.PLP.part.metal>
0.0000

> <Gold.PLP.part.buried>
0.1892

> <Gold.PLP.part.nonpolar>
-27.3965

> <Gold.PLP.part.repulsive>
0.4510

> <Gold.PLP.ligand.clash>
0.0000

> <Gold.PLP.ligand.torsion>
0.0559

> <Gold.PLP.Chemscore.Hbond>
1.0000

> <Gold.PLP.Chemscore.CHOScore>
0.0000

> <Gold.PLP.Chemscore.Metal>
0.0000

> <Gold.Chemscore.Hbonds>
donor molecule, donor type, donor heavy atom, donor atom, acceptor molecule, acceptor atom, score
      L1  H     1    15       P1  3229  1.00

> <Gold.PLP.Chemscore.Internal.Correction>
0.0645

