#       Name:                EN300-210720_i001
#       Creating user name   aseyller
#       Creation time:       Fri Apr 21 16:48:20 2023


#       File generated by GOLD software.
#

@<TRIPOS>MOLECULE
EN300-210720_i001|aminophenols|mol2|130|dock5
    16    16     1
SMALL
USER_CHARGES


@<TRIPOS>ATOM
      1 N1          32.3426  36.3364  37.0054 N.pl3          1 <1>                0.0000
      2 C2          31.2035  36.2991  37.8187 C.ar           1 <1>                0.0000
      3 C3          30.9479  35.1823  38.6120 C.ar           1 <1>                0.0000
      4 O4          31.8046  34.1259  38.5981 O.co2          1 <1>               -1.0000
      5 C5          29.8202  35.1507  39.4148 C.ar           1 <1>                0.0000
      6 C6          28.9495  36.2262  39.4278 C.ar           1 <1>                0.0000
      7 Br7         27.4101  36.1804  40.5252 Br             1 <1>                0.0000
      8 C8          29.2027  37.3348  38.6408 C.ar           1 <1>                0.0000
      9 C9          30.3298  37.3758  37.8409 C.ar           1 <1>                0.0000
     10 N10         30.5979  38.5641  37.0001 N.pl3          1 <1>                0.0000
     11 O11         31.4678  38.5240  36.1486 O.2            1 <1>                0.0000
     12 O12         29.9485  39.5822  37.1598 O.2            1 <1>                0.0000
     13 H13         29.6200  34.2863  40.0305 H              1 <1>                0.0000
     14 H14         28.5206  38.1720  38.6539 H              1 <1>                0.0000
     15 H15         32.9549  35.5843  36.9938 H              1 <1>                0.0000
     16 H16         32.5173  37.1127  36.4507 H              1 <1>                0.0000
@<TRIPOS>BOND
    1    1    2 1     
    2    1   15 1     
    3    1   16 1     
    4    2    3 ar    
    5    2    9 ar    
    6    3    4 ar    
    7    3    5 ar    
    8    5    6 ar    
    9    5   13 1     
   10    6    7 1     
   11    6    8 ar    
   12    8    9 ar    
   13    8   14 1     
   14    9   10 1     
   15   10   11 2     
   16   10   12 2     
@<TRIPOS>SUBSTRUCTURE
      1 ****           1
@<TRIPOS>SET
DONOR_HYDROGENS      STATIC     ATOMS    <user>   **** ""
2 15 16
ATOM$RED        STATIC     ATOMS    COLORGROUP SYSTEM
2 15 16
@<TRIPOS>COMMENT
> <Gold.Version>
2022.2.0

> <Gold.Id.Protein>
1qkm|1qkm_protein|mol2

> <Gold.Protein.RotatedTorsions>
[  496  491  490  487 ] final   -4.19 input  -89.99 | X-H torsion

> <Gold.Protein.ActiveResidues>
 MET295  LEU298  THR299  LEU301  ALA302  GLU305  TRP335  MET336  LEU339  MET340 
 GLY342  LEU343  ARG346  PHE356  ILE373  ILE376  PHE377  LEU380  LYS471  GLY472 
 MET473  HIS475  LEU476  LEU477  ASN478  MET479  VAL484  VAL487 

> <Gold.Protein.RotatedAtoms>
   36.2588   34.2723   42.1996 H   0  0  0  0  0  0  0  0  0  0  0  0  # atno 496  bound_to 491 

> <Gold.Score>
     Score     S(PLP)   S(hbond)     S(cho)   S(metal)  DE(clash)   DE(tors)     intcor
     31.28     -31.32       0.00       0.00       0.00       0.00       0.05       0.06

> <Gold.PLP.Fitness>
31.2787

> <Gold.PLP.PLP>
-31.3210

> <Gold.PLP.part.hbond>
0.0000

> <Gold.PLP.part.metal>
0.0000

> <Gold.PLP.part.buried>
-4.8521

> <Gold.PLP.part.nonpolar>
-27.2263

> <Gold.PLP.part.repulsive>
0.0744

> <Gold.PLP.ligand.clash>
0.0000

> <Gold.PLP.ligand.torsion>
0.0534

> <Gold.PLP.Chemscore.Hbond>
0.0000

> <Gold.PLP.Chemscore.CHOScore>
0.0000

> <Gold.PLP.Chemscore.Metal>
0.0000

> <Gold.PLP.Chemscore.Internal.Correction>
0.0645

