#       Name:                EN300-210720_i001
#       Creating user name   aseyller
#       Creation time:       Fri Apr 21 16:48:21 2023


#       File generated by GOLD software.
#

@<TRIPOS>MOLECULE
EN300-210720_i001|aminophenols|mol2|130|dock11
    16    16     1
SMALL
USER_CHARGES


@<TRIPOS>ATOM
      1 N1          30.5986  38.0933  35.9784 N.pl3          1 <1>                0.0000
      2 C2          30.1125  37.5160  37.1576 C.ar           1 <1>                0.0000
      3 C3          28.8790  37.9109  37.6718 C.ar           1 <1>                0.0000
      4 O4          28.1444  38.8583  37.0293 O.co2          1 <1>               -1.0000
      5 C5          28.4027  37.3365  38.8382 C.ar           1 <1>                0.0000
      6 C6          29.1512  36.3728  39.4909 C.ar           1 <1>                0.0000
      7 Br7         28.4982  35.5898  41.0836 Br             1 <1>                0.0000
      8 C8          30.3754  35.9804  38.9810 C.ar           1 <1>                0.0000
      9 C9          30.8548  36.5456  37.8137 C.ar           1 <1>                0.0000
     10 N10         32.1652  36.1229  37.2705 N.pl3          1 <1>                0.0000
     11 O11         32.6683  35.0766  37.6388 O.2            1 <1>                0.0000
     12 O12         32.7404  36.8214  36.4552 O.2            1 <1>                0.0000
     13 H13         27.4470  37.6409  39.2387 H              1 <1>                0.0000
     14 H14         30.9563  35.2280  39.4935 H              1 <1>                0.0000
     15 H15         30.0766  38.7691  35.5183 H              1 <1>                0.0000
     16 H16         31.4591  37.8204  35.6236 H              1 <1>                0.0000
@<TRIPOS>BOND
    1    1    2 1     
    2    1   15 1     
    3    1   16 1     
    4    2    3 ar    
    5    2    9 ar    
    6    3    4 ar    
    7    3    5 ar    
    8    5    6 ar    
    9    5   13 1     
   10    6    7 1     
   11    6    8 ar    
   12    8    9 ar    
   13    8   14 1     
   14    9   10 1     
   15   10   11 2     
   16   10   12 2     
@<TRIPOS>SUBSTRUCTURE
      1 ****           1
@<TRIPOS>SET
DONOR_HYDROGENS      STATIC     ATOMS    <user>   **** ""
2 15 16
ATOM$RED        STATIC     ATOMS    COLORGROUP SYSTEM
2 15 16
@<TRIPOS>COMMENT
> <Gold.Version>
2022.2.0

> <Gold.Id.Protein>
1qkm|1qkm_protein|mol2

> <Gold.Protein.RotatedTorsions>
[  496  491  490  487 ] final  148.51 input  -89.99 | X-H torsion

> <Gold.Protein.ActiveResidues>
 MET295  LEU298  THR299  LEU301  ALA302  GLU305  TRP335  MET336  LEU339  MET340 
 GLY342  LEU343  ARG346  PHE356  ILE373  ILE376  PHE377  LEU380  LYS471  GLY472 
 MET473  HIS475  LEU476  LEU477  ASN478  MET479  VAL484  VAL487 

> <Gold.Protein.RotatedAtoms>
   37.2564   33.0910   41.2149 H   0  0  0  0  0  0  0  0  0  0  0  0  # atno 496  bound_to 491 

> <Gold.Score>
     Score     S(PLP)   S(hbond)     S(cho)   S(metal)  DE(clash)   DE(tors)     intcor
     30.38     -30.59       0.00       0.00       0.00       0.00       0.14       0.06

> <Gold.PLP.Fitness>
30.3824

> <Gold.PLP.PLP>
-30.5945

> <Gold.PLP.part.hbond>
0.0000

> <Gold.PLP.part.metal>
0.0000

> <Gold.PLP.part.buried>
-3.5810

> <Gold.PLP.part.nonpolar>
-27.6323

> <Gold.PLP.part.repulsive>
0.0336

> <Gold.PLP.ligand.clash>
0.0000

> <Gold.PLP.ligand.torsion>
0.1383

> <Gold.PLP.Chemscore.Hbond>
0.0000

> <Gold.PLP.Chemscore.CHOScore>
0.0000

> <Gold.PLP.Chemscore.Metal>
0.0000

> <Gold.PLP.Chemscore.Internal.Correction>
0.0645

