#       Name:                EN300-210720_i001
#       Creating user name   aseyller
#       Creation time:       Fri Apr 21 16:48:20 2023


#       File generated by GOLD software.
#

@<TRIPOS>MOLECULE
EN300-210720_i001|aminophenols|mol2|130|dock7
    16    16     1
SMALL
USER_CHARGES


@<TRIPOS>ATOM
      1 N1          31.1132  34.9050  39.2971 N.pl3          1 <1>                0.0000
      2 C2          30.8977  36.0740  38.5573 C.ar           1 <1>                0.0000
      3 C3          31.8551  36.5084  37.6427 C.ar           1 <1>                0.0000
      4 O4          33.0013  35.7976  37.4665 O.co2          1 <1>               -1.0000
      5 C5          31.6368  37.6649  36.9133 C.ar           1 <1>                0.0000
      6 C6          30.4701  38.3871  37.0937 C.ar           1 <1>                0.0000
      7 Br7         30.1745  39.9663  36.0962 Br             1 <1>                0.0000
      8 C8          29.5196  37.9565  38.0013 C.ar           1 <1>                0.0000
      9 C9          29.7283  36.7994  38.7289 C.ar           1 <1>                0.0000
     10 N10         28.7086  36.3412  39.6991 N.pl3          1 <1>                0.0000
     11 O11         27.5640  36.7496  39.6182 O.2            1 <1>                0.0000
     12 O12         29.0141  35.5555  40.5784 O.2            1 <1>                0.0000
     13 H13         32.3772  38.0036  36.2038 H              1 <1>                0.0000
     14 H14         28.6106  38.5230  38.1390 H              1 <1>                0.0000
     15 H15         31.9299  34.3964  39.1732 H              1 <1>                0.0000
     16 H16         30.4478  34.6058  39.9363 H              1 <1>                0.0000
@<TRIPOS>BOND
    1    1    2 1     
    2    1   15 1     
    3    1   16 1     
    4    2    3 ar    
    5    2    9 ar    
    6    3    4 ar    
    7    3    5 ar    
    8    5    6 ar    
    9    5   13 1     
   10    6    7 1     
   11    6    8 ar    
   12    8    9 ar    
   13    8   14 1     
   14    9   10 1     
   15   10   11 2     
   16   10   12 2     
@<TRIPOS>SUBSTRUCTURE
      1 ****           1
@<TRIPOS>SET
DONOR_HYDROGENS      STATIC     ATOMS    <user>   **** ""
2 15 16
ATOM$RED        STATIC     ATOMS    COLORGROUP SYSTEM
2 15 16
@<TRIPOS>COMMENT
> <Gold.Version>
2022.2.0

> <Gold.Id.Protein>
1qkm|1qkm_protein|mol2

> <Gold.Protein.RotatedTorsions>
[  496  491  490  487 ] final  173.35 input  -89.99 | X-H torsion

> <Gold.Protein.ActiveResidues>
 MET295  LEU298  THR299  LEU301  ALA302  GLU305  TRP335  MET336  LEU339  MET340 
 GLY342  LEU343  ARG346  PHE356  ILE373  ILE376  PHE377  LEU380  LYS471  GLY472 
 MET473  HIS475  LEU476  LEU477  ASN478  MET479  VAL484  VAL487 

> <Gold.Protein.RotatedAtoms>
   37.3179   33.3698   40.9267 H   0  0  0  0  0  0  0  0  0  0  0  0  # atno 496  bound_to 491 

> <Gold.Score>
     Score     S(PLP)   S(hbond)     S(cho)   S(metal)  DE(clash)   DE(tors)     intcor
     31.74     -32.00       0.00       0.00       0.00       0.00       0.16       0.06

> <Gold.PLP.Fitness>
31.7436

> <Gold.PLP.PLP>
-31.9995

> <Gold.PLP.part.hbond>
-1.0000

> <Gold.PLP.part.metal>
0.0000

> <Gold.PLP.part.buried>
-4.1821

> <Gold.PLP.part.nonpolar>
-27.7186

> <Gold.PLP.part.repulsive>
0.2115

> <Gold.PLP.ligand.clash>
0.0000

> <Gold.PLP.ligand.torsion>
0.1602

> <Gold.PLP.Chemscore.Hbond>
0.0000

> <Gold.PLP.Chemscore.CHOScore>
0.0000

> <Gold.PLP.Chemscore.Metal>
0.0000

> <Gold.PLP.Chemscore.Internal.Correction>
0.0645

