#       Name:                EN300-210720_i001
#       Creating user name   aseyller
#       Creation time:       Fri Apr 21 16:48:23 2023


#       File generated by GOLD software.
#

@<TRIPOS>MOLECULE
EN300-210720_i001|aminophenols|mol2|130|dock15
    16    16     1
SMALL
USER_CHARGES


@<TRIPOS>ATOM
      1 N1          26.7676  37.2646  39.1894 N.pl3          1 <1>                0.0000
      2 C2          28.1004  36.9186  38.9361 C.ar           1 <1>                0.0000
      3 C3          28.7037  35.8890  39.6557 C.ar           1 <1>                0.0000
      4 O4          27.9991  35.2178  40.6060 O.co2          1 <1>               -1.0000
      5 C5          30.0219  35.5506  39.4009 C.ar           1 <1>                0.0000
      6 C6          30.7376  36.2344  38.4338 C.ar           1 <1>                0.0000
      7 Br7         32.5378  35.7700  38.0879 Br             1 <1>                0.0000
      8 C8          30.1394  37.2562  37.7193 C.ar           1 <1>                0.0000
      9 C9          28.8216  37.5959  37.9644 C.ar           1 <1>                0.0000
     10 N10         28.1843  38.6898  37.1974 N.pl3          1 <1>                0.0000
     11 O11         26.9871  38.8885  37.3002 O.2            1 <1>                0.0000
     12 O12         28.8573  39.3913  36.4635 O.2            1 <1>                0.0000
     13 H13         30.4917  34.7530  39.9573 H              1 <1>                0.0000
     14 H14         30.7014  37.7874  36.9655 H              1 <1>                0.0000
     15 H15         26.2630  36.7874  39.8666 H              1 <1>                0.0000
     16 H16         26.3500  37.9840  38.6906 H              1 <1>                0.0000
@<TRIPOS>BOND
    1    1    2 1     
    2    1   15 1     
    3    1   16 1     
    4    2    3 ar    
    5    2    9 ar    
    6    3    4 ar    
    7    3    5 ar    
    8    5    6 ar    
    9    5   13 1     
   10    6    7 1     
   11    6    8 ar    
   12    8    9 ar    
   13    8   14 1     
   14    9   10 1     
   15   10   11 2     
   16   10   12 2     
@<TRIPOS>SUBSTRUCTURE
      1 ****           1
@<TRIPOS>SET
DONOR_HYDROGENS      STATIC     ATOMS    <user>   **** ""
2 15 16
ATOM$RED        STATIC     ATOMS    COLORGROUP SYSTEM
2 15 16
@<TRIPOS>COMMENT
> <Gold.Version>
2022.2.0

> <Gold.Id.Protein>
1qkm|1qkm_protein|mol2

> <Gold.Protein.RotatedTorsions>
[  496  491  490  487 ] final  -94.97 input  -89.99 | X-H torsion

> <Gold.Protein.ActiveResidues>
 MET295  LEU298  THR299  LEU301  ALA302  GLU305  TRP335  MET336  LEU339  MET340 
 GLY342  LEU343  ARG346  PHE356  ILE373  ILE376  PHE377  LEU380  LYS471  GLY472 
 MET473  HIS475  LEU476  LEU477  ASN478  MET479  VAL484  VAL487 

> <Gold.Protein.RotatedAtoms>
   36.8033   34.6176   41.0217 H   0  0  0  0  0  0  0  0  0  0  0  0  # atno 496  bound_to 491 

> <Gold.Score>
     Score     S(PLP)   S(hbond)     S(cho)   S(metal)  DE(clash)   DE(tors)     intcor
     31.28     -31.28       0.00       0.00       0.00       0.00       0.03       0.06

> <Gold.PLP.Fitness>
31.2767

> <Gold.PLP.PLP>
-31.2813

> <Gold.PLP.part.hbond>
0.0000

> <Gold.PLP.part.metal>
0.0000

> <Gold.PLP.part.buried>
-3.3682

> <Gold.PLP.part.nonpolar>
-28.0816

> <Gold.PLP.part.repulsive>
0.1273

> <Gold.PLP.ligand.clash>
0.0000

> <Gold.PLP.ligand.torsion>
0.0346

> <Gold.PLP.Chemscore.Hbond>
0.0000

> <Gold.PLP.Chemscore.CHOScore>
0.0000

> <Gold.PLP.Chemscore.Metal>
0.0000

> <Gold.PLP.Chemscore.Internal.Correction>
0.0645

