#       Name:                EN300-210720_i001
#       Creating user name   aseyller
#       Creation time:       Fri Apr 21 16:48:24 2023


#       File generated by GOLD software.
#

@<TRIPOS>MOLECULE
EN300-210720_i001|aminophenols|mol2|130|dock19
    16    16     1
SMALL
USER_CHARGES


@<TRIPOS>ATOM
      1 N1          32.3979  36.8344  35.1002 N.pl3          1 <1>                0.0000
      2 C2          31.7023  36.7854  36.3143 C.ar           1 <1>                0.0000
      3 C3          32.0142  35.8099  37.2592 C.ar           1 <1>                0.0000
      4 O4          32.9952  34.9030  37.0042 O.co2          1 <1>               -1.0000
      5 C5          31.3235  35.7662  38.4585 C.ar           1 <1>                0.0000
      6 C6          30.3256  36.6896  38.7165 C.ar           1 <1>                0.0000
      7 Br7         29.3839  36.6277  40.3553 Br             1 <1>                0.0000
      8 C8          30.0157  37.6580  37.7792 C.ar           1 <1>                0.0000
      9 C9          30.7051  37.7113  36.5818 C.ar           1 <1>                0.0000
     10 N10         30.3710  38.7494  35.5809 N.pl3          1 <1>                0.0000
     11 O11         31.0694  38.8901  34.5930 O.2            1 <1>                0.0000
     12 O12         29.3977  39.4629  35.7453 O.2            1 <1>                0.0000
     13 H13         31.5635  35.0112  39.1925 H              1 <1>                0.0000
     14 H14         29.2362  38.3767  37.9845 H              1 <1>                0.0000
     15 H15         33.0979  36.1887  34.9161 H              1 <1>                0.0000
     16 H16         32.1772  37.5115  34.4417 H              1 <1>                0.0000
@<TRIPOS>BOND
    1    1    2 1     
    2    1   15 1     
    3    1   16 1     
    4    2    3 ar    
    5    2    9 ar    
    6    3    4 ar    
    7    3    5 ar    
    8    5    6 ar    
    9    5   13 1     
   10    6    7 1     
   11    6    8 ar    
   12    8    9 ar    
   13    8   14 1     
   14    9   10 1     
   15   10   11 2     
   16   10   12 2     
@<TRIPOS>SUBSTRUCTURE
      1 ****           1
@<TRIPOS>SET
DONOR_HYDROGENS      STATIC     ATOMS    <user>   **** ""
2 15 16
ATOM$RED        STATIC     ATOMS    COLORGROUP SYSTEM
2 15 16
@<TRIPOS>COMMENT
> <Gold.Version>
2022.2.0

> <Gold.Id.Protein>
1qkm|1qkm_protein|mol2

> <Gold.Protein.RotatedTorsions>
[  496  491  490  487 ] final   52.92 input  -89.99 | X-H torsion

> <Gold.Protein.ActiveResidues>
 MET295  LEU298  THR299  LEU301  ALA302  GLU305  TRP335  MET336  LEU339  MET340 
 GLY342  LEU343  ARG346  PHE356  ILE373  ILE376  PHE377  LEU380  LYS471  GLY472 
 MET473  HIS475  LEU476  LEU477  ASN478  MET479  VAL484  VAL487 

> <Gold.Protein.RotatedAtoms>
   36.4949   33.4136   42.3413 H   0  0  0  0  0  0  0  0  0  0  0  0  # atno 496  bound_to 491 

> <Gold.Score>
     Score     S(PLP)   S(hbond)     S(cho)   S(metal)  DE(clash)   DE(tors)     intcor
     30.46     -30.48       0.00       0.00       0.00       0.02       0.03       0.06

> <Gold.PLP.Fitness>
30.4601

> <Gold.PLP.PLP>
-30.4754

> <Gold.PLP.part.hbond>
0.0000

> <Gold.PLP.part.metal>
0.0000

> <Gold.PLP.part.buried>
-3.9499

> <Gold.PLP.part.nonpolar>
-27.2227

> <Gold.PLP.part.repulsive>
0.0555

> <Gold.PLP.ligand.clash>
0.0168

> <Gold.PLP.ligand.torsion>
0.0315

> <Gold.PLP.Chemscore.Hbond>
0.0000

> <Gold.PLP.Chemscore.CHOScore>
0.0000

> <Gold.PLP.Chemscore.Metal>
0.0000

> <Gold.PLP.Chemscore.Internal.Correction>
0.0645

