#       Name:                EN300-210720_i001
#       Creating user name   aseyller
#       Creation time:       Fri Apr 21 16:48:22 2023


#       File generated by GOLD software.
#

@<TRIPOS>MOLECULE
EN300-210720_i001|aminophenols|mol2|130|dock12
    16    16     1
SMALL
USER_CHARGES


@<TRIPOS>ATOM
      1 N1          30.9237  35.1302  39.3268 N.pl3          1 <1>                0.0000
      2 C2          31.1219  35.8962  38.1718 C.ar           1 <1>                0.0000
      3 C3          32.2290  35.6608  37.3589 C.ar           1 <1>                0.0000
      4 O4          33.1197  34.6861  37.6858 O.co2          1 <1>               -1.0000
      5 C5          32.4202  36.4210  36.2175 C.ar           1 <1>                0.0000
      6 C6          31.5132  37.4123  35.8863 C.ar           1 <1>                0.0000
      7 Br7         31.7766  38.4490  34.3268 Br             1 <1>                0.0000
      8 C8          30.4143  37.6464  36.6926 C.ar           1 <1>                0.0000
      9 C9          30.2139  36.8874  37.8308 C.ar           1 <1>                0.0000
     10 N10         29.0364  37.1403  38.6913 N.pl3          1 <1>                0.0000
     11 O11         28.0182  37.6035  38.2094 O.2            1 <1>                0.0000
     12 O12         29.0856  36.8852  39.8813 O.2            1 <1>                0.0000
     13 H13         33.2774  36.2404  35.5859 H              1 <1>                0.0000
     14 H14         29.7089  38.4210  36.4305 H              1 <1>                0.0000
     15 H15         31.5574  34.4346  39.5620 H              1 <1>                0.0000
     16 H16         30.1548  35.2976  39.8939 H              1 <1>                0.0000
@<TRIPOS>BOND
    1    1    2 1     
    2    1   15 1     
    3    1   16 1     
    4    2    3 ar    
    5    2    9 ar    
    6    3    4 ar    
    7    3    5 ar    
    8    5    6 ar    
    9    5   13 1     
   10    6    7 1     
   11    6    8 ar    
   12    8    9 ar    
   13    8   14 1     
   14    9   10 1     
   15   10   11 2     
   16   10   12 2     
@<TRIPOS>SUBSTRUCTURE
      1 ****           1
@<TRIPOS>SET
DONOR_HYDROGENS      STATIC     ATOMS    <user>   **** ""
2 15 16
ATOM$RED        STATIC     ATOMS    COLORGROUP SYSTEM
2 15 16
@<TRIPOS>COMMENT
> <Gold.Version>
2022.2.0

> <Gold.Id.Protein>
1qkm|1qkm_protein|mol2

> <Gold.Protein.RotatedTorsions>
[  496  491  490  487 ] final  -29.17 input  -89.99 | X-H torsion

> <Gold.Protein.ActiveResidues>
 MET295  LEU298  THR299  LEU301  ALA302  GLU305  TRP335  MET336  LEU339  MET340 
 GLY342  LEU343  ARG346  PHE356  ILE373  ILE376  PHE377  LEU380  LYS471  GLY472 
 MET473  HIS475  LEU476  LEU477  ASN478  MET479  VAL484  VAL487 

> <Gold.Protein.RotatedAtoms>
   36.3115   34.5635   41.9189 H   0  0  0  0  0  0  0  0  0  0  0  0  # atno 496  bound_to 491 

> <Gold.Score>
     Score     S(PLP)   S(hbond)     S(cho)   S(metal)  DE(clash)   DE(tors)     intcor
     28.10     -28.68       0.00       0.00       0.00       0.00       0.32       0.06

> <Gold.PLP.Fitness>
28.1047

> <Gold.PLP.PLP>
-28.6788

> <Gold.PLP.part.hbond>
-1.0000

> <Gold.PLP.part.metal>
0.0000

> <Gold.PLP.part.buried>
-0.2986

> <Gold.PLP.part.nonpolar>
-27.3651

> <Gold.PLP.part.repulsive>
0.1488

> <Gold.PLP.ligand.clash>
0.0000

> <Gold.PLP.ligand.torsion>
0.3193

> <Gold.PLP.Chemscore.Hbond>
0.0000

> <Gold.PLP.Chemscore.CHOScore>
0.0000

> <Gold.PLP.Chemscore.Metal>
0.0000

> <Gold.PLP.Chemscore.Internal.Correction>
0.0645

