#       Name:                EN300-210720_i001
#       Creating user name   aseyller
#       Creation time:       Fri Apr 21 16:48:21 2023


#       File generated by GOLD software.
#

@<TRIPOS>MOLECULE
EN300-210720_i001|aminophenols|mol2|130|dock10
    16    16     1
SMALL
USER_CHARGES


@<TRIPOS>ATOM
      1 N1          31.6419  37.1144  37.4229 N.pl3          1 <1>                0.0000
      2 C2          30.2970  37.0864  37.8111 C.ar           1 <1>                0.0000
      3 C3          29.8387  36.0899  38.6706 C.ar           1 <1>                0.0000
      4 O4          30.6968  35.1420  39.1344 O.co2          1 <1>               -1.0000
      5 C5          28.5077  36.0670  39.0517 C.ar           1 <1>                0.0000
      6 C6          27.6357  37.0320  38.5789 C.ar           1 <1>                0.0000
      7 Br7         25.8184  36.9984  39.1011 Br             1 <1>                0.0000
      8 C8          28.0900  38.0212  37.7260 C.ar           1 <1>                0.0000
      9 C9          29.4190  38.0537  37.3457 C.ar           1 <1>                0.0000
     10 N10         29.9020  39.1141  36.4329 N.pl3          1 <1>                0.0000
     11 O11         29.3868  40.2175  36.4547 O.2            1 <1>                0.0000
     12 O12         30.8148  38.8833  35.6601 O.2            1 <1>                0.0000
     13 H13         28.1500  35.2958  39.7178 H              1 <1>                0.0000
     14 H14         27.4062  38.7724  37.3593 H              1 <1>                0.0000
     15 H15         32.2559  36.4395  37.7524 H              1 <1>                0.0000
     16 H16         31.9589  37.8062  36.8215 H              1 <1>                0.0000
@<TRIPOS>BOND
    1    1    2 1     
    2    1   15 1     
    3    1   16 1     
    4    2    3 ar    
    5    2    9 ar    
    6    3    4 ar    
    7    3    5 ar    
    8    5    6 ar    
    9    5   13 1     
   10    6    7 1     
   11    6    8 ar    
   12    8    9 ar    
   13    8   14 1     
   14    9   10 1     
   15   10   11 2     
   16   10   12 2     
@<TRIPOS>SUBSTRUCTURE
      1 ****           1
@<TRIPOS>SET
DONOR_HYDROGENS      STATIC     ATOMS    <user>   **** ""
2 15 16
ATOM$RED        STATIC     ATOMS    COLORGROUP SYSTEM
2 15 16
@<TRIPOS>COMMENT
> <Gold.Version>
2022.2.0

> <Gold.Id.Protein>
1qkm|1qkm_protein|mol2

> <Gold.Protein.RotatedTorsions>
[  496  491  490  487 ] final   12.06 input  -89.99 | X-H torsion

> <Gold.Protein.ActiveResidues>
 MET295  LEU298  THR299  LEU301  ALA302  GLU305  TRP335  MET336  LEU339  MET340 
 GLY342  LEU343  ARG346  PHE356  ILE373  ILE376  PHE377  LEU380  LYS471  GLY472 
 MET473  HIS475  LEU476  LEU477  ASN478  MET479  VAL484  VAL487 

> <Gold.Protein.RotatedAtoms>
   36.2780   34.0348   42.3197 H   0  0  0  0  0  0  0  0  0  0  0  0  # atno 496  bound_to 491 

> <Gold.Score>
     Score     S(PLP)   S(hbond)     S(cho)   S(metal)  DE(clash)   DE(tors)     intcor
     31.32     -32.05       0.00       0.00       0.00       0.00       0.40       0.06

> <Gold.PLP.Fitness>
31.3200

> <Gold.PLP.PLP>
-32.0548

> <Gold.PLP.part.hbond>
0.0000

> <Gold.PLP.part.metal>
0.0000

> <Gold.PLP.part.buried>
-4.2627

> <Gold.PLP.part.nonpolar>
-28.3694

> <Gold.PLP.part.repulsive>
0.0993

> <Gold.PLP.ligand.clash>
0.0000

> <Gold.PLP.ligand.torsion>
0.3996

> <Gold.PLP.Chemscore.Hbond>
0.0000

> <Gold.PLP.Chemscore.CHOScore>
0.0000

> <Gold.PLP.Chemscore.Metal>
0.0000

> <Gold.PLP.Chemscore.Internal.Correction>
0.0645

