#       Name:                EN300-210720_i001
#       Creating user name   aseyller
#       Creation time:       Fri Apr 21 16:48:19 2023


#       File generated by GOLD software.
#

@<TRIPOS>MOLECULE
EN300-210720_i001|aminophenols|mol2|130|dock4
    16    16     1
SMALL
USER_CHARGES


@<TRIPOS>ATOM
      1 N1          32.6988  35.7445  36.1295 N.pl3          1 <1>                0.0000
      2 C2          31.7967  35.9521  37.1799 C.ar           1 <1>                0.0000
      3 C3          31.5054  34.9165  38.0655 C.ar           1 <1>                0.0000
      4 O4          32.0969  33.7014  37.9116 O.co2          1 <1>               -1.0000
      5 C5          30.6128  35.1272  39.1028 C.ar           1 <1>                0.0000
      6 C6          30.0117  36.3640  39.2582 C.ar           1 <1>                0.0000
      7 Br7         28.7930  36.6492  40.6758 Br             1 <1>                0.0000
      8 C8          30.3005  37.3922  38.3796 C.ar           1 <1>                0.0000
      9 C9          31.1952  37.1907  37.3448 C.ar           1 <1>                0.0000
     10 N10         31.5022  38.2936  36.4065 N.pl3          1 <1>                0.0000
     11 O11         32.4169  38.1791  35.6105 O.2            1 <1>                0.0000
     12 O12         30.8401  39.3156  36.4304 O.2            1 <1>                0.0000
     13 H13         30.3854  34.3262  39.7906 H              1 <1>                0.0000
     14 H14         29.8292  38.3559  38.5043 H              1 <1>                0.0000
     15 H15         33.1219  34.8788  36.0177 H              1 <1>                0.0000
     16 H16         32.8978  36.4650  35.5114 H              1 <1>                0.0000
@<TRIPOS>BOND
    1    1    2 1     
    2    1   15 1     
    3    1   16 1     
    4    2    3 ar    
    5    2    9 ar    
    6    3    4 ar    
    7    3    5 ar    
    8    5    6 ar    
    9    5   13 1     
   10    6    7 1     
   11    6    8 ar    
   12    8    9 ar    
   13    8   14 1     
   14    9   10 1     
   15   10   11 2     
   16   10   12 2     
@<TRIPOS>SUBSTRUCTURE
      1 ****           1
@<TRIPOS>SET
DONOR_HYDROGENS      STATIC     ATOMS    <user>   **** ""
2 15 16
ATOM$RED        STATIC     ATOMS    COLORGROUP SYSTEM
2 15 16
@<TRIPOS>COMMENT
> <Gold.Version>
2022.2.0

> <Gold.Id.Protein>
1qkm|1qkm_protein|mol2

> <Gold.Protein.RotatedTorsions>
[  496  491  490  487 ] final   37.87 input  -89.99 | X-H torsion

> <Gold.Protein.ActiveResidues>
 MET295  LEU298  THR299  LEU301  ALA302  GLU305  TRP335  MET336  LEU339  MET340 
 GLY342  LEU343  ARG346  PHE356  ILE373  ILE376  PHE377  LEU380  LYS471  GLY472 
 MET473  HIS475  LEU476  LEU477  ASN478  MET479  VAL484  VAL487 

> <Gold.Protein.RotatedAtoms>
   36.3904   33.6337   42.3820 H   0  0  0  0  0  0  0  0  0  0  0  0  # atno 496  bound_to 491 

> <Gold.Score>
     Score     S(PLP)   S(hbond)     S(cho)   S(metal)  DE(clash)   DE(tors)     intcor
     32.58     -32.61       0.00       0.00       0.00       0.00       0.05       0.06

> <Gold.PLP.Fitness>
32.5774

> <Gold.PLP.PLP>
-32.6075

> <Gold.PLP.part.hbond>
0.0000

> <Gold.PLP.part.metal>
0.0000

> <Gold.PLP.part.buried>
-4.0961

> <Gold.PLP.part.nonpolar>
-28.6134

> <Gold.PLP.part.repulsive>
0.0907

> <Gold.PLP.ligand.clash>
0.0000

> <Gold.PLP.ligand.torsion>
0.0473

> <Gold.PLP.Chemscore.Hbond>
0.0000

> <Gold.PLP.Chemscore.CHOScore>
0.0000

> <Gold.PLP.Chemscore.Metal>
0.0000

> <Gold.PLP.Chemscore.Internal.Correction>
0.0645

