#       Name:                EN300-210720_i001
#       Creating user name   aseyller
#       Creation time:       Fri Apr 21 16:48:18 2023


#       File generated by GOLD software.
#

@<TRIPOS>MOLECULE
EN300-210720_i001|aminophenols|mol2|130|dock1
    16    16     1
SMALL
USER_CHARGES


@<TRIPOS>ATOM
      1 N1          27.1709  38.8004  37.2993 N.pl3          1 <1>                0.0000
      2 C2          28.2424  37.9683  37.6455 C.ar           1 <1>                0.0000
      3 C3          29.4735  38.1133  37.0090 C.ar           1 <1>                0.0000
      4 O4          29.6371  39.0637  36.0498 O.co2          1 <1>               -1.0000
      5 C5          30.5299  37.2880  37.3554 C.ar           1 <1>                0.0000
      6 C6          30.3619  36.3214  38.3315 C.ar           1 <1>                0.0000
      7 Br7         31.8065  35.1957  38.8027 Br             1 <1>                0.0000
      8 C8          29.1404  36.1771  38.9635 C.ar           1 <1>                0.0000
      9 C9          28.0826  37.0015  38.6267 C.ar           1 <1>                0.0000
     10 N10         26.7766  36.8445  39.3056 N.pl3          1 <1>                0.0000
     11 O11         26.6757  36.1055  40.2684 O.2            1 <1>                0.0000
     12 O12         25.8029  37.4545  38.9013 O.2            1 <1>                0.0000
     13 H13         31.4851  37.3985  36.8636 H              1 <1>                0.0000
     14 H14         29.0135  35.4216  39.7246 H              1 <1>                0.0000
     15 H15         27.2852  39.4789  36.6155 H              1 <1>                0.0000
     16 H16         26.3134  38.6959  37.7403 H              1 <1>                0.0000
@<TRIPOS>BOND
    1    1    2 1     
    2    1   15 1     
    3    1   16 1     
    4    2    3 ar    
    5    2    9 ar    
    6    3    4 ar    
    7    3    5 ar    
    8    5    6 ar    
    9    5   13 1     
   10    6    7 1     
   11    6    8 ar    
   12    8    9 ar    
   13    8   14 1     
   14    9   10 1     
   15   10   11 2     
   16   10   12 2     
@<TRIPOS>SUBSTRUCTURE
      1 ****           1
@<TRIPOS>SET
DONOR_HYDROGENS      STATIC     ATOMS    <user>   **** ""
2 15 16
ATOM$RED        STATIC     ATOMS    COLORGROUP SYSTEM
2 15 16
@<TRIPOS>COMMENT
> <Gold.Version>
2022.2.0

> <Gold.Id.Protein>
1qkm|1qkm_protein|mol2

> <Gold.Protein.RotatedTorsions>
[  496  491  490  487 ] final   31.76 input  -89.99 | X-H torsion

> <Gold.Protein.ActiveResidues>
 MET295  LEU298  THR299  LEU301  ALA302  GLU305  TRP335  MET336  LEU339  MET340 
 GLY342  LEU343  ARG346  PHE356  ILE373  ILE376  PHE377  LEU380  LYS471  GLY472 
 MET473  HIS475  LEU476  LEU477  ASN478  MET479  VAL484  VAL487 

> <Gold.Protein.RotatedAtoms>
   36.3555   33.7279   42.3823 H   0  0  0  0  0  0  0  0  0  0  0  0  # atno 496  bound_to 491 

> <Gold.Score>
     Score     S(PLP)   S(hbond)     S(cho)   S(metal)  DE(clash)   DE(tors)     intcor
     31.63     -31.63       0.00       0.00       0.00       0.00       0.03       0.07

> <Gold.PLP.Fitness>
31.6269

> <Gold.PLP.PLP>
-31.6287

> <Gold.PLP.part.hbond>
0.0000

> <Gold.PLP.part.metal>
0.0000

> <Gold.PLP.part.buried>
-3.9812

> <Gold.PLP.part.nonpolar>
-27.4415

> <Gold.PLP.part.repulsive>
0.1682

> <Gold.PLP.ligand.clash>
0.0026

> <Gold.PLP.ligand.torsion>
0.0334

> <Gold.PLP.Chemscore.Hbond>
0.0000

> <Gold.PLP.Chemscore.CHOScore>
0.0000

> <Gold.PLP.Chemscore.Metal>
0.0000

> <Gold.PLP.Chemscore.Internal.Correction>
0.0675

