#       Name:                EN300-210720_i001
#       Creating user name   aseyller
#       Creation time:       Fri Apr 21 16:48:24 2023


#       File generated by GOLD software.
#

@<TRIPOS>MOLECULE
EN300-210720_i001|aminophenols|mol2|130|dock18
    16    16     1
SMALL
USER_CHARGES


@<TRIPOS>ATOM
      1 N1          32.5838  36.2075  36.9474 N.pl3          1 <1>                0.0000
      2 C2          31.2971  36.7378  37.1008 C.ar           1 <1>                0.0000
      3 C3          30.5113  36.3605  38.1880 C.ar           1 <1>                0.0000
      4 O4          30.9924  35.4763  39.1026 O.co2          1 <1>               -1.0000
      5 C5          29.2396  36.8882  38.3352 C.ar           1 <1>                0.0000
      6 C6          28.7514  37.7878  37.4038 C.ar           1 <1>                0.0000
      7 Br7         27.0143  38.5069  37.6074 Br             1 <1>                0.0000
      8 C8          29.5309  38.1625  36.3247 C.ar           1 <1>                0.0000
      9 C9          30.8039  37.6440  36.1743 C.ar           1 <1>                0.0000
     10 N10         31.6356  38.0477  35.0184 N.pl3          1 <1>                0.0000
     11 O11         31.4530  39.1268  34.4840 O.2            1 <1>                0.0000
     12 O12         32.5028  37.3007  34.6016 O.2            1 <1>                0.0000
     13 H13         28.6286  36.5975  39.1770 H              1 <1>                0.0000
     14 H14         29.1461  38.8648  35.6001 H              1 <1>                0.0000
     15 H15         32.9292  35.5768  37.5983 H              1 <1>                0.0000
     16 H16         33.1284  36.4679  36.1881 H              1 <1>                0.0000
@<TRIPOS>BOND
    1    1    2 1     
    2    1   15 1     
    3    1   16 1     
    4    2    3 ar    
    5    2    9 ar    
    6    3    4 ar    
    7    3    5 ar    
    8    5    6 ar    
    9    5   13 1     
   10    6    7 1     
   11    6    8 ar    
   12    8    9 ar    
   13    8   14 1     
   14    9   10 1     
   15   10   11 2     
   16   10   12 2     
@<TRIPOS>SUBSTRUCTURE
      1 ****           1
@<TRIPOS>SET
DONOR_HYDROGENS      STATIC     ATOMS    <user>   **** ""
2 15 16
ATOM$RED        STATIC     ATOMS    COLORGROUP SYSTEM
2 15 16
@<TRIPOS>COMMENT
> <Gold.Version>
2022.2.0

> <Gold.Id.Protein>
1qkm|1qkm_protein|mol2

> <Gold.Protein.RotatedTorsions>
[  496  491  490  487 ] final -176.30 input  -89.99 | X-H torsion

> <Gold.Protein.ActiveResidues>
 MET295  LEU298  THR299  LEU301  ALA302  GLU305  TRP335  MET336  LEU339  MET340 
 GLY342  LEU343  ARG346  PHE356  ILE373  ILE376  PHE377  LEU380  LYS471  GLY472 
 MET473  HIS475  LEU476  LEU477  ASN478  MET479  VAL484  VAL487 

> <Gold.Protein.RotatedAtoms>
   37.3147   33.5151   40.8384 H   0  0  0  0  0  0  0  0  0  0  0  0  # atno 496  bound_to 491 

> <Gold.Score>
     Score     S(PLP)   S(hbond)     S(cho)   S(metal)  DE(clash)   DE(tors)     intcor
     27.48     -27.99       0.00       0.00       0.00       0.00       0.29       0.06

> <Gold.PLP.Fitness>
27.4836

> <Gold.PLP.PLP>
-27.9945

> <Gold.PLP.part.hbond>
0.0000

> <Gold.PLP.part.metal>
0.0000

> <Gold.PLP.part.buried>
-3.2381

> <Gold.PLP.part.nonpolar>
-25.3695

> <Gold.PLP.part.repulsive>
0.5026

> <Gold.PLP.ligand.clash>
0.0000

> <Gold.PLP.ligand.torsion>
0.2877

> <Gold.PLP.Chemscore.Hbond>
0.0000

> <Gold.PLP.Chemscore.CHOScore>
0.0000

> <Gold.PLP.Chemscore.Metal>
0.0000

> <Gold.PLP.Chemscore.Internal.Correction>
0.0645

