#       Name:                EN300-210720_i001
#       Creating user name   aseyller
#       Creation time:       Fri Apr 21 16:48:22 2023


#       File generated by GOLD software.
#

@<TRIPOS>MOLECULE
EN300-210720_i001|aminophenols|mol2|130|dock14
    16    16     1
SMALL
USER_CHARGES


@<TRIPOS>ATOM
      1 N1          29.1363  37.0658  38.9433 N.pl3          1 <1>                0.0000
      2 C2          30.1728  36.9785  38.0061 C.ar           1 <1>                0.0000
      3 C3          31.1137  35.9547  38.0985 C.ar           1 <1>                0.0000
      4 O4          31.0273  35.0379  39.0994 O.co2          1 <1>               -1.0000
      5 C5          32.1365  35.8728  37.1688 C.ar           1 <1>                0.0000
      6 C6          32.2232  36.8064  36.1510 C.ar           1 <1>                0.0000
      7 Br7         33.6211  36.6920  34.8825 Br             1 <1>                0.0000
      8 C8          31.2896  37.8225  36.0588 C.ar           1 <1>                0.0000
      9 C9          30.2622  37.9073  36.9803 C.ar           1 <1>                0.0000
     10 N10         29.2646  38.9960  36.8783 N.pl3          1 <1>                0.0000
     11 O11         29.5715  40.0573  36.3657 O.2            1 <1>                0.0000
     12 O12         28.1366  38.8304  37.3071 O.2            1 <1>                0.0000
     13 H13         32.8669  35.0802  37.2382 H              1 <1>                0.0000
     14 H14         31.3609  38.5491  35.2630 H              1 <1>                0.0000
     15 H15         29.0726  36.4131  39.6580 H              1 <1>                0.0000
     16 H16         28.4843  37.7811  38.8802 H              1 <1>                0.0000
@<TRIPOS>BOND
    1    1    2 1     
    2    1   15 1     
    3    1   16 1     
    4    2    3 ar    
    5    2    9 ar    
    6    3    4 ar    
    7    3    5 ar    
    8    5    6 ar    
    9    5   13 1     
   10    6    7 1     
   11    6    8 ar    
   12    8    9 ar    
   13    8   14 1     
   14    9   10 1     
   15   10   11 2     
   16   10   12 2     
@<TRIPOS>SUBSTRUCTURE
      1 ****           1
@<TRIPOS>SET
DONOR_HYDROGENS      STATIC     ATOMS    <user>   **** ""
2 15 16
ATOM$RED        STATIC     ATOMS    COLORGROUP SYSTEM
2 15 16
@<TRIPOS>COMMENT
> <Gold.Version>
2022.2.0

> <Gold.Id.Protein>
1qkm|1qkm_protein|mol2

> <Gold.Protein.RotatedTorsions>
[  496  491  490  487 ] final   -5.40 input  -89.99 | X-H torsion

> <Gold.Protein.ActiveResidues>
 MET295  LEU298  THR299  LEU301  ALA302  GLU305  TRP335  MET336  LEU339  MET340 
 GLY342  LEU343  ARG346  PHE356  ILE373  ILE376  PHE377  LEU380  LYS471  GLY472 
 MET473  HIS475  LEU476  LEU477  ASN478  MET479  VAL484  VAL487 

> <Gold.Protein.RotatedAtoms>
   36.2591   34.2887   42.1885 H   0  0  0  0  0  0  0  0  0  0  0  0  # atno 496  bound_to 491 

> <Gold.Score>
     Score     S(PLP)   S(hbond)     S(cho)   S(metal)  DE(clash)   DE(tors)     intcor
     31.06     -31.66       0.00       0.00       0.00       0.00       0.33       0.06

> <Gold.PLP.Fitness>
31.0638

> <Gold.PLP.PLP>
-31.6574

> <Gold.PLP.part.hbond>
0.0000

> <Gold.PLP.part.metal>
0.0000

> <Gold.PLP.part.buried>
-3.5061

> <Gold.PLP.part.nonpolar>
-27.9122

> <Gold.PLP.part.repulsive>
0.4697

> <Gold.PLP.ligand.clash>
0.0000

> <Gold.PLP.ligand.torsion>
0.3290

> <Gold.PLP.Chemscore.Hbond>
0.0000

> <Gold.PLP.Chemscore.CHOScore>
0.0000

> <Gold.PLP.Chemscore.Metal>
0.0000

> <Gold.PLP.Chemscore.Internal.Correction>
0.0645

