#       Name:                EN300-210720_i001
#       Creating user name   aseyller
#       Creation time:       Fri Apr 21 16:48:23 2023


#       File generated by GOLD software.
#

@<TRIPOS>MOLECULE
EN300-210720_i001|aminophenols|mol2|130|dock17
    16    16     1
SMALL
USER_CHARGES


@<TRIPOS>ATOM
      1 N1          32.5383  36.6224  37.3899 N.pl3          1 <1>                0.0000
      2 C2          31.1977  36.7450  37.7745 C.ar           1 <1>                0.0000
      3 C3          30.6289  35.8066  38.6334 C.ar           1 <1>                0.0000
      4 O4          31.3748  34.7693  39.1000 O.co2          1 <1>               -1.0000
      5 C5          29.3027  35.9326  39.0110 C.ar           1 <1>                0.0000
      6 C6          28.5450  36.9885  38.5354 C.ar           1 <1>                0.0000
      7 Br7         26.7340  37.1583  39.0528 Br             1 <1>                0.0000
      8 C8          29.1090  37.9201  37.6831 C.ar           1 <1>                0.0000
      9 C9          30.4343  37.8038  37.3062 C.ar           1 <1>                0.0000
     10 N10         31.0349  38.8030  36.3942 N.pl3          1 <1>                0.0000
     11 O11         30.5726  39.9282  36.3341 O.2            1 <1>                0.0000
     12 O12         31.9915  38.4999  35.7037 O.2            1 <1>                0.0000
     13 H13         28.8595  35.2067  39.6766 H              1 <1>                0.0000
     14 H14         28.5142  38.7425  37.3142 H              1 <1>                0.0000
     15 H15         33.0723  35.8836  37.7213 H              1 <1>                0.0000
     16 H16         32.9320  37.2741  36.7889 H              1 <1>                0.0000
@<TRIPOS>BOND
    1    1    2 1     
    2    1   15 1     
    3    1   16 1     
    4    2    3 ar    
    5    2    9 ar    
    6    3    4 ar    
    7    3    5 ar    
    8    5    6 ar    
    9    5   13 1     
   10    6    7 1     
   11    6    8 ar    
   12    8    9 ar    
   13    8   14 1     
   14    9   10 1     
   15   10   11 2     
   16   10   12 2     
@<TRIPOS>SUBSTRUCTURE
      1 ****           1
@<TRIPOS>SET
DONOR_HYDROGENS      STATIC     ATOMS    <user>   **** ""
2 15 16
ATOM$RED        STATIC     ATOMS    COLORGROUP SYSTEM
2 15 16
@<TRIPOS>COMMENT
> <Gold.Version>
2022.2.0

> <Gold.Id.Protein>
1qkm|1qkm_protein|mol2

> <Gold.Protein.RotatedTorsions>
[  496  491  490  487 ] final  -25.50 input  -89.99 | X-H torsion

> <Gold.Protein.ActiveResidues>
 MET295  LEU298  THR299  LEU301  ALA302  GLU305  TRP335  MET336  LEU339  MET340 
 GLY342  LEU343  ARG346  PHE356  ILE373  ILE376  PHE377  LEU380  LYS471  GLY472 
 MET473  HIS475  LEU476  LEU477  ASN478  MET479  VAL484  VAL487 

> <Gold.Protein.RotatedAtoms>
   36.2977   34.5281   41.9660 H   0  0  0  0  0  0  0  0  0  0  0  0  # atno 496  bound_to 491 

> <Gold.Score>
     Score     S(PLP)   S(hbond)     S(cho)   S(metal)  DE(clash)   DE(tors)     intcor
     30.13     -30.60       0.00       0.00       0.00       0.00       0.27       0.06

> <Gold.PLP.Fitness>
30.1336

> <Gold.PLP.PLP>
-30.6039

> <Gold.PLP.part.hbond>
0.0000

> <Gold.PLP.part.metal>
0.0000

> <Gold.PLP.part.buried>
-4.1597

> <Gold.PLP.part.nonpolar>
-27.3681

> <Gold.PLP.part.repulsive>
0.8608

> <Gold.PLP.ligand.clash>
0.0000

> <Gold.PLP.ligand.torsion>
0.2674

> <Gold.PLP.Chemscore.Hbond>
0.0000

> <Gold.PLP.Chemscore.CHOScore>
0.0000

> <Gold.PLP.Chemscore.Metal>
0.0000

> <Gold.PLP.Chemscore.Internal.Correction>
0.0645

