#       Name:                EN300-210720_i001
#       Creating user name   aseyller
#       Creation time:       Fri Apr 21 16:48:21 2023


#       File generated by GOLD software.
#

@<TRIPOS>MOLECULE
EN300-210720_i001|aminophenols|mol2|130|dock9
    16    16     1
SMALL
USER_CHARGES


@<TRIPOS>ATOM
      1 N1          31.4877  38.4015  35.6011 N.pl3          1 <1>                0.0000
      2 C2          30.9204  37.8249  36.7439 C.ar           1 <1>                0.0000
      3 C3          29.8809  38.4713  37.4099 C.ar           1 <1>                0.0000
      4 O4          29.4150  39.6640  36.9512 O.co2          1 <1>               -1.0000
      5 C5          29.3232  37.8965  38.5394 C.ar           1 <1>                0.0000
      6 C6          29.7983  36.6830  39.0049 C.ar           1 <1>                0.0000
      7 Br7         29.0347  35.9002  40.5477 Br             1 <1>                0.0000
      8 C8          30.8299  36.0410  38.3443 C.ar           1 <1>                0.0000
      9 C9          31.3878  36.6063  37.2125 C.ar           1 <1>                0.0000
     10 N10         32.4915  35.9162  36.5078 N.pl3          1 <1>                0.0000
     11 O11         32.8852  36.3359  35.4343 O.2            1 <1>                0.0000
     12 O12         33.0059  34.9286  37.0013 O.2            1 <1>                0.0000
     13 H13         28.5174  38.3955  39.0572 H              1 <1>                0.0000
     14 H14         31.1977  35.0942  38.7110 H              1 <1>                0.0000
     15 H15         31.1571  39.2520  35.2721 H              1 <1>                0.0000
     16 H16         32.2138  37.9525  35.1407 H              1 <1>                0.0000
@<TRIPOS>BOND
    1    1    2 1     
    2    1   15 1     
    3    1   16 1     
    4    2    3 ar    
    5    2    9 ar    
    6    3    4 ar    
    7    3    5 ar    
    8    5    6 ar    
    9    5   13 1     
   10    6    7 1     
   11    6    8 ar    
   12    8    9 ar    
   13    8   14 1     
   14    9   10 1     
   15   10   11 2     
   16   10   12 2     
@<TRIPOS>SUBSTRUCTURE
      1 ****           1
@<TRIPOS>SET
DONOR_HYDROGENS      STATIC     ATOMS    <user>   **** ""
2 15 16
ATOM$RED        STATIC     ATOMS    COLORGROUP SYSTEM
2 15 16
@<TRIPOS>COMMENT
> <Gold.Version>
2022.2.0

> <Gold.Id.Protein>
1qkm|1qkm_protein|mol2

> <Gold.Protein.RotatedTorsions>
[  496  491  490  487 ] final  -90.29 input  -89.99 | X-H torsion

> <Gold.Protein.ActiveResidues>
 MET295  LEU298  THR299  LEU301  ALA302  GLU305  TRP335  MET336  LEU339  MET340 
 GLY342  LEU343  ARG346  PHE356  ILE373  ILE376  PHE377  LEU380  LYS471  GLY472 
 MET473  HIS475  LEU476  LEU477  ASN478  MET479  VAL484  VAL487 

> <Gold.Protein.RotatedAtoms>
   36.7600   34.6514   41.0757 H   0  0  0  0  0  0  0  0  0  0  0  0  # atno 496  bound_to 491 

> <Gold.Score>
     Score     S(PLP)   S(hbond)     S(cho)   S(metal)  DE(clash)   DE(tors)     intcor
     29.98     -30.00       0.00       0.00       0.00       0.02       0.03       0.06

> <Gold.PLP.Fitness>
29.9816

> <Gold.PLP.PLP>
-29.9977

> <Gold.PLP.part.hbond>
0.0000

> <Gold.PLP.part.metal>
0.0000

> <Gold.PLP.part.buried>
-3.9921

> <Gold.PLP.part.nonpolar>
-26.2566

> <Gold.PLP.part.repulsive>
0.1010

> <Gold.PLP.ligand.clash>
0.0176

> <Gold.PLP.ligand.torsion>
0.0315

> <Gold.PLP.Chemscore.Hbond>
0.0000

> <Gold.PLP.Chemscore.CHOScore>
0.0000

> <Gold.PLP.Chemscore.Metal>
0.0000

> <Gold.PLP.Chemscore.Internal.Correction>
0.0645

