#       Name:                EN300-210720_i001
#       Creating user name   aseyller
#       Creation time:       Fri Apr 21 16:48:24 2023


#       File generated by GOLD software.
#

@<TRIPOS>MOLECULE
EN300-210720_i001|aminophenols|mol2|130|dock20
    16    16     1
SMALL
USER_CHARGES


@<TRIPOS>ATOM
      1 N1          32.8019  36.4049  35.8766 N.pl3          1 <1>                0.0000
      2 C2          31.5609  36.9637  36.2051 C.ar           1 <1>                0.0000
      3 C3          31.0597  38.0346  35.4677 C.ar           1 <1>                0.0000
      4 O4          31.7751  38.5396  34.4270 O.co2          1 <1>               -1.0000
      5 C5          29.8316  38.5832  35.7966 C.ar           1 <1>                0.0000
      6 C6          29.1049  38.0683  36.8558 C.ar           1 <1>                0.0000
      7 Br7         27.4279  38.8194  37.3027 Br             1 <1>                0.0000
      8 C8          29.6018  37.0055  37.5879 C.ar           1 <1>                0.0000
      9 C9          30.8248  36.4489  37.2617 C.ar           1 <1>                0.0000
     10 N10         31.3533  35.3111  38.0472 N.pl3          1 <1>                0.0000
     11 O11         30.8241  34.9990  39.0988 O.2            1 <1>                0.0000
     12 O12         32.3175  34.6869  37.6419 O.2            1 <1>                0.0000
     13 H13         29.4411  39.4132  35.2265 H              1 <1>                0.0000
     14 H14         29.0315  36.6067  38.4138 H              1 <1>                0.0000
     15 H15         33.3139  36.7634  35.1348 H              1 <1>                0.0000
     16 H16         33.1514  35.6621  36.3931 H              1 <1>                0.0000
@<TRIPOS>BOND
    1    1    2 1     
    2    1   15 1     
    3    1   16 1     
    4    2    3 ar    
    5    2    9 ar    
    6    3    4 ar    
    7    3    5 ar    
    8    5    6 ar    
    9    5   13 1     
   10    6    7 1     
   11    6    8 ar    
   12    8    9 ar    
   13    8   14 1     
   14    9   10 1     
   15   10   11 2     
   16   10   12 2     
@<TRIPOS>SUBSTRUCTURE
      1 ****           1
@<TRIPOS>SET
DONOR_HYDROGENS      STATIC     ATOMS    <user>   **** ""
2 15 16
ATOM$RED        STATIC     ATOMS    COLORGROUP SYSTEM
2 15 16
@<TRIPOS>COMMENT
> <Gold.Version>
2022.2.0

> <Gold.Id.Protein>
1qkm|1qkm_protein|mol2

> <Gold.Protein.RotatedTorsions>
[  496  491  490  487 ] final  119.89 input  -89.99 | X-H torsion

> <Gold.Protein.ActiveResidues>
 MET295  LEU298  THR299  LEU301  ALA302  GLU305  TRP335  MET336  LEU339  MET340 
 GLY342  LEU343  ARG346  PHE356  ILE373  ILE376  PHE377  LEU380  LYS471  GLY472 
 MET473  HIS475  LEU476  LEU477  ASN478  MET479  VAL484  VAL487 

> <Gold.Protein.RotatedAtoms>
   37.0797   32.9431   41.6203 H   0  0  0  0  0  0  0  0  0  0  0  0  # atno 496  bound_to 491 

> <Gold.Score>
     Score     S(PLP)   S(hbond)     S(cho)   S(metal)  DE(clash)   DE(tors)     intcor
     27.82     -27.88       0.00       0.00       0.00       0.00       0.06       0.06

> <Gold.PLP.Fitness>
27.8170

> <Gold.PLP.PLP>
-27.8786

> <Gold.PLP.part.hbond>
0.0000

> <Gold.PLP.part.metal>
0.0000

> <Gold.PLP.part.buried>
-4.6022

> <Gold.PLP.part.nonpolar>
-24.0980

> <Gold.PLP.part.repulsive>
0.2326

> <Gold.PLP.ligand.clash>
0.0000

> <Gold.PLP.ligand.torsion>
0.0630

> <Gold.PLP.Chemscore.Hbond>
0.0000

> <Gold.PLP.Chemscore.CHOScore>
0.0000

> <Gold.PLP.Chemscore.Metal>
0.0000

> <Gold.PLP.Chemscore.Internal.Correction>
0.0645

