#       Name:                EN300-210720_i001
#       Creating user name   aseyller
#       Creation time:       Fri Apr 21 16:48:19 2023


#       File generated by GOLD software.
#

@<TRIPOS>MOLECULE
EN300-210720_i001|aminophenols|mol2|130|dock2
    16    16     1
SMALL
USER_CHARGES


@<TRIPOS>ATOM
      1 N1          31.9917  37.0163  35.9648 N.pl3          1 <1>                0.0000
      2 C2          31.2364  36.8394  37.1304 C.ar           1 <1>                0.0000
      3 C3          31.4568  35.7296  37.9438 C.ar           1 <1>                0.0000
      4 O4          32.4062  34.8156  37.6073 O.co2          1 <1>               -1.0000
      5 C5          30.7073  35.5596  39.0956 C.ar           1 <1>                0.0000
      6 C6          29.7416  36.4904  39.4367 C.ar           1 <1>                0.0000
      7 Br7         28.7195  36.2558  41.0104 Br             1 <1>                0.0000
      8 C8          29.5226  37.5920  38.6298 C.ar           1 <1>                0.0000
      9 C9          30.2711  37.7712  37.4811 C.ar           1 <1>                0.0000
     10 N10         30.0343  38.9516  36.6200 N.pl3          1 <1>                0.0000
     11 O11         30.7941  39.1968  35.7002 O.2            1 <1>                0.0000
     12 O12         29.0795  39.6778  36.8313 O.2            1 <1>                0.0000
     13 H13         30.8762  34.7004  39.7277 H              1 <1>                0.0000
     14 H14         28.7680  38.3159  38.8995 H              1 <1>                0.0000
     15 H15         32.6694  36.3658  35.7227 H              1 <1>                0.0000
     16 H16         31.8347  37.7871  35.3974 H              1 <1>                0.0000
@<TRIPOS>BOND
    1    1    2 1     
    2    1   15 1     
    3    1   16 1     
    4    2    3 ar    
    5    2    9 ar    
    6    3    4 ar    
    7    3    5 ar    
    8    5    6 ar    
    9    5   13 1     
   10    6    7 1     
   11    6    8 ar    
   12    8    9 ar    
   13    8   14 1     
   14    9   10 1     
   15   10   11 2     
   16   10   12 2     
@<TRIPOS>SUBSTRUCTURE
      1 ****           1
@<TRIPOS>SET
DONOR_HYDROGENS      STATIC     ATOMS    <user>   **** ""
2 15 16
ATOM$RED        STATIC     ATOMS    COLORGROUP SYSTEM
2 15 16
@<TRIPOS>COMMENT
> <Gold.Version>
2022.2.0

> <Gold.Id.Protein>
1qkm|1qkm_protein|mol2

> <Gold.Protein.RotatedTorsions>
[  496  491  490  487 ] final -158.93 input  -89.99 | X-H torsion

> <Gold.Protein.ActiveResidues>
 MET295  LEU298  THR299  LEU301  ALA302  GLU305  TRP335  MET336  LEU339  MET340 
 GLY342  LEU343  ARG346  PHE356  ILE373  ILE376  PHE377  LEU380  LYS471  GLY472 
 MET473  HIS475  LEU476  LEU477  ASN478  MET479  VAL484  VAL487 

> <Gold.Protein.RotatedAtoms>
   37.2712   33.7800   40.7433 H   0  0  0  0  0  0  0  0  0  0  0  0  # atno 496  bound_to 491 

> <Gold.Score>
     Score     S(PLP)   S(hbond)     S(cho)   S(metal)  DE(clash)   DE(tors)     intcor
     32.75     -32.76       0.00       0.00       0.00       0.00       0.04       0.06

> <Gold.PLP.Fitness>
32.7510

> <Gold.PLP.PLP>
-32.7620

> <Gold.PLP.part.hbond>
0.0000

> <Gold.PLP.part.metal>
0.0000

> <Gold.PLP.part.buried>
-3.6956

> <Gold.PLP.part.nonpolar>
-29.3106

> <Gold.PLP.part.repulsive>
0.0247

> <Gold.PLP.ligand.clash>
0.0000

> <Gold.PLP.ligand.torsion>
0.0378

> <Gold.PLP.Chemscore.Hbond>
0.0000

> <Gold.PLP.Chemscore.CHOScore>
0.0000

> <Gold.PLP.Chemscore.Metal>
0.0000

> <Gold.PLP.Chemscore.Internal.Correction>
0.0645

