#       Name:                EN300-210720_i001
#       Creating user name   aseyller
#       Creation time:       Fri Apr 21 16:48:19 2023


#       File generated by GOLD software.
#

@<TRIPOS>MOLECULE
EN300-210720_i001|aminophenols|mol2|130|dock3
    16    16     1
SMALL
USER_CHARGES


@<TRIPOS>ATOM
      1 N1          29.6199  35.5255  40.2699 N.pl3          1 <1>                0.0000
      2 C2          29.7099  36.1776  39.0342 C.ar           1 <1>                0.0000
      3 C3          30.9085  36.1655  38.3236 C.ar           1 <1>                0.0000
      4 O4          31.9940  35.5201  38.8289 O.co2          1 <1>               -1.0000
      5 C5          30.9920  36.8116  37.1018 C.ar           1 <1>                0.0000
      6 C6          29.8868  37.4679  36.5890 C.ar           1 <1>                0.0000
      7 Br7         30.0036  38.3495  34.9200 Br             1 <1>                0.0000
      8 C8          28.6970  37.4802  37.2937 C.ar           1 <1>                0.0000
      9 C9          28.6047  36.8323  38.5118 C.ar           1 <1>                0.0000
     10 N10         27.3294  36.8471  39.2632 N.pl3          1 <1>                0.0000
     11 O11         26.4173  37.5682  38.9006 O.2            1 <1>                0.0000
     12 O12         27.1923  36.1381  40.2440 O.2            1 <1>                0.0000
     13 H13         31.9199  36.8036  36.5492 H              1 <1>                0.0000
     14 H14         27.8369  37.9935  36.8900 H              1 <1>                0.0000
     15 H15         30.3926  35.0646  40.6323 H              1 <1>                0.0000
     16 H16         28.7861  35.5380  40.7654 H              1 <1>                0.0000
@<TRIPOS>BOND
    1    1    2 1     
    2    1   15 1     
    3    1   16 1     
    4    2    3 ar    
    5    2    9 ar    
    6    3    4 ar    
    7    3    5 ar    
    8    5    6 ar    
    9    5   13 1     
   10    6    7 1     
   11    6    8 ar    
   12    8    9 ar    
   13    8   14 1     
   14    9   10 1     
   15   10   11 2     
   16   10   12 2     
@<TRIPOS>SUBSTRUCTURE
      1 ****           1
@<TRIPOS>SET
DONOR_HYDROGENS      STATIC     ATOMS    <user>   **** ""
2 15 16
ATOM$RED        STATIC     ATOMS    COLORGROUP SYSTEM
2 15 16
@<TRIPOS>COMMENT
> <Gold.Version>
2022.2.0

> <Gold.Id.Protein>
1qkm|1qkm_protein|mol2

> <Gold.Protein.RotatedTorsions>
[  496  491  490  487 ] final  -83.56 input  -89.99 | X-H torsion

> <Gold.Protein.ActiveResidues>
 MET295  LEU298  THR299  LEU301  ALA302  GLU305  TRP335  MET336  LEU339  MET340 
 GLY342  LEU343  ARG346  PHE356  ILE373  ILE376  PHE377  LEU380  LYS471  GLY472 
 MET473  HIS475  LEU476  LEU477  ASN478  MET479  VAL484  VAL487 

> <Gold.Protein.RotatedAtoms>
   36.6982   34.6903   41.1589 H   0  0  0  0  0  0  0  0  0  0  0  0  # atno 496  bound_to 491 

> <Gold.Score>
     Score     S(PLP)   S(hbond)     S(cho)   S(metal)  DE(clash)   DE(tors)     intcor
     30.89     -28.25       0.89       0.00       0.00       0.00       0.04       0.06

> <Gold.PLP.Fitness>
30.8868

> <Gold.PLP.PLP>
-28.2452

> <Gold.PLP.part.hbond>
-1.0000

> <Gold.PLP.part.metal>
0.0000

> <Gold.PLP.part.buried>
-2.7496

> <Gold.PLP.part.nonpolar>
-24.7706

> <Gold.PLP.part.repulsive>
0.2575

> <Gold.PLP.ligand.clash>
0.0000

> <Gold.PLP.ligand.torsion>
0.0437

> <Gold.PLP.Chemscore.Hbond>
0.8882

> <Gold.PLP.Chemscore.CHOScore>
0.0000

> <Gold.PLP.Chemscore.Metal>
0.0000

> <Gold.Chemscore.Hbonds>
donor molecule, donor type, donor heavy atom, donor atom, acceptor molecule, acceptor atom, score
      L1  H     1    15       P1   470  0.89

> <Gold.PLP.Chemscore.Internal.Correction>
0.0645

