#       Name:                EN300-210720_i001
#       Creating user name   aseyller
#       Creation time:       Fri Apr 21 16:48:22 2023


#       File generated by GOLD software.
#

@<TRIPOS>MOLECULE
EN300-210720_i001|aminophenols|mol2|130|dock13
    16    16     1
SMALL
USER_CHARGES


@<TRIPOS>ATOM
      1 N1          27.7255  38.1851  37.6016 N.pl3          1 <1>                0.0000
      2 C2          28.6661  37.1852  37.8770 C.ar           1 <1>                0.0000
      3 C3          29.8372  37.1020  37.1265 C.ar           1 <1>                0.0000
      4 O4          30.0693  37.9920  36.1245 O.co2          1 <1>               -1.0000
      5 C5          30.7643  36.1115  37.4033 C.ar           1 <1>                0.0000
      6 C6          30.5267  35.2066  38.4230 C.ar           1 <1>                0.0000
      7 Br7         31.7946  33.8548  38.7990 Br             1 <1>                0.0000
      8 C8          29.3646  35.2887  39.1682 C.ar           1 <1>                0.0000
      9 C9          28.4370  36.2787  38.9012 C.ar           1 <1>                0.0000
     10 N10         27.1945  36.3639  39.7011 N.pl3          1 <1>                0.0000
     11 O11         26.3722  37.2291  39.4586 O.2            1 <1>                0.0000
     12 O12         26.9943  35.5688  40.6018 O.2            1 <1>                0.0000
     13 H13         31.6728  36.0450  36.8231 H              1 <1>                0.0000
     14 H14         29.1831  34.5805  39.9631 H              1 <1>                0.0000
     15 H15         27.8888  38.8210  36.8875 H              1 <1>                0.0000
     16 H16         26.9089  38.2395  38.1222 H              1 <1>                0.0000
@<TRIPOS>BOND
    1    1    2 1     
    2    1   15 1     
    3    1   16 1     
    4    2    3 ar    
    5    2    9 ar    
    6    3    4 ar    
    7    3    5 ar    
    8    5    6 ar    
    9    5   13 1     
   10    6    7 1     
   11    6    8 ar    
   12    8    9 ar    
   13    8   14 1     
   14    9   10 1     
   15   10   11 2     
   16   10   12 2     
@<TRIPOS>SUBSTRUCTURE
      1 ****           1
@<TRIPOS>SET
DONOR_HYDROGENS      STATIC     ATOMS    <user>   **** ""
2 15 16
ATOM$RED        STATIC     ATOMS    COLORGROUP SYSTEM
2 15 16
@<TRIPOS>COMMENT
> <Gold.Version>
2022.2.0

> <Gold.Id.Protein>
1qkm|1qkm_protein|mol2

> <Gold.Protein.RotatedTorsions>
[  496  491  490  487 ] final   73.17 input  -89.99 | X-H torsion

> <Gold.Protein.ActiveResidues>
 MET295  LEU298  THR299  LEU301  ALA302  GLU305  TRP335  MET336  LEU339  MET340 
 GLY342  LEU343  ARG346  PHE356  ILE373  ILE376  PHE377  LEU380  LYS471  GLY472 
 MET473  HIS475  LEU476  LEU477  ASN478  MET479  VAL484  VAL487 

> <Gold.Protein.RotatedAtoms>
   36.6657   33.1657   42.2021 H   0  0  0  0  0  0  0  0  0  0  0  0  # atno 496  bound_to 491 

> <Gold.Score>
     Score     S(PLP)   S(hbond)     S(cho)   S(metal)  DE(clash)   DE(tors)     intcor
     28.93     -29.32       0.00       0.00       0.00       0.45       0.00       0.06

> <Gold.PLP.Fitness>
28.9340

> <Gold.PLP.PLP>
-29.3193

> <Gold.PLP.part.hbond>
0.0000

> <Gold.PLP.part.metal>
0.0000

> <Gold.PLP.part.buried>
-4.0665

> <Gold.PLP.part.nonpolar>
-25.4611

> <Gold.PLP.part.repulsive>
0.1518

> <Gold.PLP.ligand.clash>
0.4497

> <Gold.PLP.ligand.torsion>
0.0001

> <Gold.PLP.Chemscore.Hbond>
0.0000

> <Gold.PLP.Chemscore.CHOScore>
0.0000

> <Gold.PLP.Chemscore.Metal>
0.0000

> <Gold.PLP.Chemscore.Internal.Correction>
0.0645

