#       Name:                EN300-210720_i001
#       Creating user name   aseyller
#       Creation time:       Fri Apr 21 16:48:20 2023


#       File generated by GOLD software.
#

@<TRIPOS>MOLECULE
EN300-210720_i001|aminophenols|mol2|130|dock8
    16    16     1
SMALL
USER_CHARGES


@<TRIPOS>ATOM
      1 N1          30.7095  35.0468  39.3823 N.pl3          1 <1>                0.0000
      2 C2          30.6103  36.2189  38.6230 C.ar           1 <1>                0.0000
      3 C3          29.6251  37.1598  38.9162 C.ar           1 <1>                0.0000
      4 O4          28.7575  36.9416  39.9407 O.co2          1 <1>               -1.0000
      5 C5          29.5316  38.3175  38.1624 C.ar           1 <1>                0.0000
      6 C6          30.4150  38.5381  37.1202 C.ar           1 <1>                0.0000
      7 Br7         30.2851  40.1201  36.0924 Br             1 <1>                0.0000
      8 C8          31.3929  37.6047  36.8289 C.ar           1 <1>                0.0000
      9 C9          31.4959  36.4489  37.5809 C.ar           1 <1>                0.0000
     10 N10         32.5441  35.4523  37.2666 N.pl3          1 <1>                0.0000
     11 O11         33.5468  35.7922  36.6646 O.2            1 <1>                0.0000
     12 O12         32.4039  34.2921  37.6101 O.2            1 <1>                0.0000
     13 H13         28.7690  39.0482  38.3877 H              1 <1>                0.0000
     14 H14         32.0803  37.7807  36.0147 H              1 <1>                0.0000
     15 H15         30.0920  34.8889  40.1135 H              1 <1>                0.0000
     16 H16         31.3932  34.3908  39.1748 H              1 <1>                0.0000
@<TRIPOS>BOND
    1    1    2 1     
    2    1   15 1     
    3    1   16 1     
    4    2    3 ar    
    5    2    9 ar    
    6    3    4 ar    
    7    3    5 ar    
    8    5    6 ar    
    9    5   13 1     
   10    6    7 1     
   11    6    8 ar    
   12    8    9 ar    
   13    8   14 1     
   14    9   10 1     
   15   10   11 2     
   16   10   12 2     
@<TRIPOS>SUBSTRUCTURE
      1 ****           1
@<TRIPOS>SET
DONOR_HYDROGENS      STATIC     ATOMS    <user>   **** ""
2 15 16
ATOM$RED        STATIC     ATOMS    COLORGROUP SYSTEM
2 15 16
@<TRIPOS>COMMENT
> <Gold.Version>
2022.2.0

> <Gold.Id.Protein>
1qkm|1qkm_protein|mol2

> <Gold.Protein.RotatedTorsions>
[  496  491  490  487 ] final   -9.85 input  -89.99 | X-H torsion

> <Gold.Protein.ActiveResidues>
 MET295  LEU298  THR299  LEU301  ALA302  GLU305  TRP335  MET336  LEU339  MET340 
 GLY342  LEU343  ARG346  PHE356  ILE373  ILE376  PHE377  LEU380  LYS471  GLY472 
 MET473  HIS475  LEU476  LEU477  ASN478  MET479  VAL484  VAL487 

> <Gold.Protein.RotatedAtoms>
   36.2621   34.3476   42.1452 H   0  0  0  0  0  0  0  0  0  0  0  0  # atno 496  bound_to 491 

> <Gold.Score>
     Score     S(PLP)   S(hbond)     S(cho)   S(metal)  DE(clash)   DE(tors)     intcor
     31.31     -31.69       0.00       0.00       0.00       0.00       0.22       0.06

> <Gold.PLP.Fitness>
31.3134

> <Gold.PLP.PLP>
-31.6911

> <Gold.PLP.part.hbond>
-1.0000

> <Gold.PLP.part.metal>
0.0000

> <Gold.PLP.part.buried>
-3.6783

> <Gold.PLP.part.nonpolar>
-26.8070

> <Gold.PLP.part.repulsive>
0.1351

> <Gold.PLP.ligand.clash>
0.0000

> <Gold.PLP.ligand.torsion>
0.2211

> <Gold.PLP.Chemscore.Hbond>
0.0000

> <Gold.PLP.Chemscore.CHOScore>
0.0000

> <Gold.PLP.Chemscore.Metal>
0.0000

> <Gold.PLP.Chemscore.Internal.Correction>
0.0645

