#       Name:                plp ligand
#       Creating user name   aseyller
#       Creation time:       Fri Apr 21 16:48:18 2023


#       File generated by GOLD software.
#

@<TRIPOS>MOLECULE
plp ligand
    16    16     1
SMALL
USER_CHARGES


@<TRIPOS>ATOM
      1 N1           1.9838   0.9616  -0.0451 DONOR          1 <1>                0.0000
      2 C2           0.6373   0.5787  -0.0214 NONPOLAR       1 <1>                0.0000
      3 C3          -0.3647   1.5469  -0.0405 NONPOLAR       1 <1>                0.0000
      4 O4          -0.0369   2.8663  -0.0822 ACCEPTOR       1 <1>               -1.0000
      5 C5          -1.6948   1.1628  -0.0173 NONPOLAR       1 <1>                0.0000
      6 C6          -2.0268  -0.1800   0.0252 NONPOLAR       1 <1>                0.0000
      7 Br7         -3.8442  -0.7018   0.0567 NONPOLAR       1 <1>                0.0000
      8 C8          -1.0328  -1.1413   0.0441 NONPOLAR       1 <1>                0.0000
      9 C9           0.2975  -0.7653   0.0154 NONPOLAR       1 <1>                0.0000
     10 N10          1.3588  -1.7969   0.0353 NONPOLAR       1 <1>                0.0000
     11 O11          1.2037  -2.8420  -0.5706 ACCEPTOR       1 <1>                0.0000
     12 O12          2.3873  -1.6006   0.6576 ACCEPTOR       1 <1>                0.0000
     13 H13         -2.4732   1.9113  -0.0321                1 <1>                0.0000
     14 H14         -1.2962  -2.1881   0.0773                1 <1>                0.0000
     15 H15          2.2201   1.9019  -0.0748                1 <1>                0.0000
     16 H16          2.6804   0.2868  -0.0278                1 <1>                0.0000
@<TRIPOS>BOND
    1    1    2 1     
    2    1   15 1     
    3    1   16 1     
    4    2    3 ar    
    5    2    9 ar    
    6    3    4 ar    
    7    3    5 ar    
    8    5    6 ar    
    9    5   13 1     
   10    6    7 1     
   11    6    8 ar    
   12    8    9 ar    
   13    8   14 1     
   14    9   10 1     
   15   10   11 2     
   16   10   12 2     
@<TRIPOS>SUBSTRUCTURE
      1 ****           1
@<TRIPOS>SET
DONOR_HYDROGENS      STATIC     ATOMS    <user>   **** ""
2 15 16
ATOM$RED        STATIC     ATOMS    COLORGROUP SYSTEM
2 15 16
