#       Name:                EN300-218565_i001
#       Creating user name   fsindt
#       Creation time:       Tue Feb 28 07:51:29 2023


#       File generated by GOLD software.
#

@<TRIPOS>MOLECULE
EN300-218565_i001|acide_2|mol2|3780|dock15
    30    31     1
SMALL
USER_CHARGES


@<TRIPOS>ATOM
      1 O1          -3.1967 -23.6588  12.7985 O.co2          1 <1>               -1.0000
      2 C2          -3.0362 -23.6155  14.0073 C.2            1 <1>                0.0000
      3 O3          -4.0025 -23.6325  14.7521 O.co2          1 <1>                0.0000
      4 C4          -1.6535 -23.5479  14.5768 C.2            1 <1>                0.0000
      5 O5          -1.3647 -24.2139  15.5488 O.2            1 <1>                0.0000
      6 N6          -0.7296 -22.7471  14.0098 N.am           1 <1>                0.0000
      7 C7          -1.0661 -21.9112  12.8474 C.3            1 <1>                0.0000
      8 C8          -0.6294 -20.4718  13.1401 C.3            1 <1>                0.0000
      9 N9           0.7889 -20.4619  13.5224 N.3            1 <1>                0.0000
     10 C10          1.0116 -21.2160  14.7633 C.3            1 <1>                0.0000
     11 C11          0.6404 -22.6813  14.5410 C.3            1 <1>                0.0000
     12 C12          1.2670 -19.1547  13.6386 C.ar           1 <1>                0.0000
     13 C13          0.7210 -18.2952  14.5834 C.ar           1 <1>                0.0000
     14 C14          1.1965 -17.0035  14.6958 C.ar           1 <1>                0.0000
     15 C15          2.2150 -16.5654  13.8693 C.ar           1 <1>                0.0000
     16 C16          2.7608 -17.4186  12.9277 C.ar           1 <1>                0.0000
     17 C17          2.2936 -18.7132  12.8135 C.ar           1 <1>                0.0000
     18 H18         -0.5417 -22.2810  11.9664 H              1 <1>                0.0000
     19 H19         -2.1420 -21.9395  12.6753 H              1 <1>                0.0000
     20 H20         -0.7700 -19.8606  12.2486 H              1 <1>                0.0000
     21 H21         -1.2289 -20.0686  13.9563 H              1 <1>                0.0000
     22 H22          2.0610 -21.1446  15.0490 H              1 <1>                0.0000
     23 H23          0.3892 -20.8026  15.5569 H              1 <1>                0.0000
     24 H24          0.6943 -23.2204  15.4868 H              1 <1>                0.0000
     25 H25          1.3272 -23.1280  13.8220 H              1 <1>                0.0000
     26 H26         -0.0746 -18.6365  15.2290 H              1 <1>                0.0000
     27 H27          0.7722 -16.3345  15.4299 H              1 <1>                0.0000
     28 H28          2.5847 -15.5547  13.9592 H              1 <1>                0.0000
     29 H29          3.5561 -17.0733  12.2837 H              1 <1>                0.0000
     30 H30          2.7206 -19.3790  12.0781 H              1 <1>                0.0000
@<TRIPOS>BOND
    1    1    2 ar    
    2    2    3 ar    
    3    2    4 1     
    4    4    5 2     
    5    4    6 am    
    6    6    7 1     
    7    6   11 1     
    8    7    8 1     
    9    7   18 1     
   10    7   19 1     
   11    8    9 1     
   12    8   20 1     
   13    8   21 1     
   14    9   10 1     
   15    9   12 1     
   16   10   11 1     
   17   10   22 1     
   18   10   23 1     
   19   11   24 1     
   20   11   25 1     
   21   12   13 ar    
   22   12   17 ar    
   23   13   14 ar    
   24   13   26 1     
   25   14   15 ar    
   26   14   27 1     
   27   15   16 ar    
   28   15   28 1     
   29   16   17 ar    
   30   16   29 1     
   31   17   30 1     
@<TRIPOS>SUBSTRUCTURE
      1 ****           1
@<TRIPOS>COMMENT
> <Gold.Version>
2022.2.0

> <Gold.Id.Protein>
3pbl|protein|mol2

> <Gold.Protein.RotatedTorsions>
[ 1303 1298 1297 1294 ] final -112.61 input  179.99 | X-H torsion
[ 2461 2456 2455 2452 ] final  133.63 input   30.03 | X-H torsion
[ 2515 2510 2509 2506 ] final -106.90 input  -89.99 | X-H torsion
[ 3721 3712 3711 3710 ] final  119.32 input -179.91 | X-H torsion
[ 3841 3832 3831 3830 ] final   -5.21 input -179.91 | X-H torsion
[ 3767 3762 3761 3758 ] final  139.17 input  -89.99 | X-H torsion
[ 2472 2467 2466 2463 ] final   57.59 input  -89.97 | X-H torsion

> <Gold.Protein.ActiveResidues>
 VAL82   VAL86   LEU89   PHE106  VAL107  ASP110  VAL111  MET112  CYS114  THR115 
 CYS181  SER182  ILE183  PHE188  VAL189  ILE190  SER192  SER193  SER196  TRP342 
 PHE345  PHE346  HIS349  VAL350  TYR365  THR369  GLY372  TYR373 

> <Gold.Protein.RotatedAtoms>
    4.1314   -8.4924    4.0297 H   0  0  0  0  0  0  0  0  0  0  0  0  # atno 1303 bound_to 1298
    2.0332   -8.8058    8.1938 H   0  0  0  0  0  0  0  0  0  0  0  0  # atno 2461 bound_to 2456
   -4.6037   -4.8152    7.6586 H   0  0  0  0  0  0  0  0  0  0  0  0  # atno 2472 bound_to 2467
    2.7726   -9.1109    4.8160 H   0  0  0  0  0  0  0  0  0  0  0  0  # atno 2515 bound_to 2510
   -3.0037  -17.2421   13.0350 H   0  0  0  0  0  0  0  0  0  0  0  0  # atno 3721 bound_to 3712
   -3.9067  -23.0159   11.1612 H   0  0  0  0  0  0  0  0  0  0  0  0  # atno 3767 bound_to 3762
    1.6943  -20.4265    9.5309 H   0  0  0  0  0  0  0  0  0  0  0  0  # atno 3841 bound_to 3832
    4.8006   -9.6645    4.9489 LP  0  0  0  0  0  0  0  0  0  0  0  0  # atno 4297 bound_to 1298
    3.4302   -9.9647    4.1131 LP  0  0  0  0  0  0  0  0  0  0  0  0  # atno 4298 bound_to 1298
    1.2570   -7.9339    7.0517 LP  0  0  0  0  0  0  0  0  0  0  0  0  # atno 4299 bound_to 2456
    0.4478   -9.0686    7.9028 LP  0  0  0  0  0  0  0  0  0  0  0  0  # atno 4300 bound_to 2456
    2.0741   -8.3766    6.0962 LP  0  0  0  0  0  0  0  0  0  0  0  0  # atno 4301 bound_to 2510
    2.4498   -7.5113    4.7633 LP  0  0  0  0  0  0  0  0  0  0  0  0  # atno 4302 bound_to 2510
   -2.6312  -18.1181   14.3279 LP  0  0  0  0  0  0  0  0  0  0  0  0  # atno 4306 bound_to 3712
   -3.4286  -16.7019   14.4860 LP  0  0  0  0  0  0  0  0  0  0  0  0  # atno 4307 bound_to 3712
    2.2233  -19.6725    8.2165 LP  0  0  0  0  0  0  0  0  0  0  0  0  # atno 4314 bound_to 3832
    3.0489  -20.9371    8.8376 LP  0  0  0  0  0  0  0  0  0  0  0  0  # atno 4315 bound_to 3832
   -5.1199  -22.9434   10.0705 LP  0  0  0  0  0  0  0  0  0  0  0  0  # atno 4318 bound_to 3762
   -5.1005  -21.9159   11.3395 LP  0  0  0  0  0  0  0  0  0  0  0  0  # atno 4319 bound_to 3762
   -3.7449   -5.2008    8.9929 LP  0  0  0  0  0  0  0  0  0  0  0  0  # atno 4320 bound_to 2467
   -5.3683   -5.3774    8.9874 LP  0  0  0  0  0  0  0  0  0  0  0  0  # atno 4321 bound_to 2467

> <Gold.Score>
     Score     S(PLP)   S(hbond)     S(cho)   S(metal)  DE(clash)   DE(tors)     intcor
     40.95     -38.00       0.99       0.00       0.00       0.00       0.68       1.34

> <Gold.PLP.Fitness>
40.9543

> <Gold.PLP.PLP>
-38.0043

> <Gold.PLP.part.hbond>
-2.0000

> <Gold.PLP.part.metal>
0.0000

> <Gold.PLP.part.buried>
-5.2967

> <Gold.PLP.part.nonpolar>
-31.5593

> <Gold.PLP.part.repulsive>
0.2623

> <Gold.PLP.ligand.clash>
0.0000

> <Gold.PLP.ligand.torsion>
0.6840

> <Gold.PLP.Chemscore.Hbond>
0.9920

> <Gold.PLP.Chemscore.CHOScore>
0.0000

> <Gold.PLP.Chemscore.Metal>
0.0000

> <Gold.Chemscore.Hbonds>
donor molecule, donor type, donor heavy atom, donor atom, acceptor molecule, acceptor atom, score
      P1  H  3762  3767       L1     1  0.99

> <Gold.PLP.Chemscore.Internal.Correction>
1.3420

