#       Name:                EN300-218565_i001
#       Creating user name   fsindt
#       Creation time:       Tue Feb 28 07:51:33 2023


#       File generated by GOLD software.
#

@<TRIPOS>MOLECULE
EN300-218565_i001|acide_2|mol2|3780|dock19
    30    31     1
SMALL
USER_CHARGES


@<TRIPOS>ATOM
      1 O1           0.7452 -15.6392  14.4286 O.co2          1 <1>               -1.0000
      2 C2           0.4696 -16.2653  13.4183 C.2            1 <1>                0.0000
      3 O3          -0.5642 -16.0267  12.8156 O.co2          1 <1>                0.0000
      4 C4           1.4026 -17.3220  12.9147 C.2            1 <1>                0.0000
      5 O5           2.5989 -17.1206  12.9058 O.2            1 <1>                0.0000
      6 N6           0.9137 -18.4970  12.4711 N.am           1 <1>                0.0000
      7 C7           1.8144 -19.5587  11.9971 C.3            1 <1>                0.0000
      8 C8           1.4512 -20.8623  12.7163 C.3            1 <1>                0.0000
      9 N9           0.0193 -21.1354  12.5346 N.3            1 <1>                0.0000
     10 C10         -0.8055 -20.0869  13.1496 C.3            1 <1>                0.0000
     11 C11         -0.5344 -18.7538  12.4540 C.3            1 <1>                0.0000
     12 C12         -0.3175 -22.3951  13.0352 C.ar           1 <1>                0.0000
     13 C13          0.2449 -22.8452  14.2230 C.ar           1 <1>                0.0000
     14 C14         -0.0908 -24.0911  14.7154 C.ar           1 <1>                0.0000
     15 C15         -0.9856 -24.8902  14.0276 C.ar           1 <1>                0.0000
     16 C16         -1.5472 -24.4451  12.8448 C.ar           1 <1>                0.0000
     17 C17         -1.2200 -23.1981  12.3495 C.ar           1 <1>                0.0000
     18 H18          1.6938 -19.6880  10.9216 H              1 <1>                0.0000
     19 H19          2.8466 -19.2912  12.2232 H              1 <1>                0.0000
     20 H20          2.0340 -21.6830  12.2981 H              1 <1>                0.0000
     21 H21          1.6708 -20.7645  13.7795 H              1 <1>                0.0000
     22 H22         -1.8593 -20.3452  13.0456 H              1 <1>                0.0000
     23 H23         -0.5545 -19.9998  14.2067 H              1 <1>                0.0000
     24 H24         -1.0560 -17.9538  12.9794 H              1 <1>                0.0000
     25 H25         -0.8793 -18.8030  11.4211 H              1 <1>                0.0000
     26 H26          0.9440 -22.2218  14.7605 H              1 <1>                0.0000
     27 H27          0.3464 -24.4418  15.6386 H              1 <1>                0.0000
     28 H28         -1.2460 -25.8641  14.4147 H              1 <1>                0.0000
     29 H29         -2.2456 -25.0717  12.3101 H              1 <1>                0.0000
     30 H30         -1.6593 -22.8510  11.4259 H              1 <1>                0.0000
@<TRIPOS>BOND
    1    1    2 ar    
    2    2    3 ar    
    3    2    4 1     
    4    4    5 2     
    5    4    6 am    
    6    6    7 1     
    7    6   11 1     
    8    7    8 1     
    9    7   18 1     
   10    7   19 1     
   11    8    9 1     
   12    8   20 1     
   13    8   21 1     
   14    9   10 1     
   15    9   12 1     
   16   10   11 1     
   17   10   22 1     
   18   10   23 1     
   19   11   24 1     
   20   11   25 1     
   21   12   13 ar    
   22   12   17 ar    
   23   13   14 ar    
   24   13   26 1     
   25   14   15 ar    
   26   14   27 1     
   27   15   16 ar    
   28   15   28 1     
   29   16   17 ar    
   30   16   29 1     
   31   17   30 1     
@<TRIPOS>SUBSTRUCTURE
      1 ****           1
@<TRIPOS>COMMENT
> <Gold.Version>
2022.2.0

> <Gold.Id.Protein>
3pbl|protein|mol2

> <Gold.Protein.RotatedTorsions>
[ 1303 1298 1297 1294 ] final  -23.98 input  179.99 | X-H torsion
[ 2461 2456 2455 2452 ] final -146.33 input   30.03 | X-H torsion
[ 2515 2510 2509 2506 ] final -116.46 input  -89.99 | X-H torsion
[ 3721 3712 3711 3710 ] final -118.43 input -179.91 | X-H torsion
[ 3841 3832 3831 3830 ] final   28.64 input -179.91 | X-H torsion
[ 3767 3762 3761 3758 ] final  -80.35 input  -89.99 | X-H torsion
[ 2472 2467 2466 2463 ] final  -45.76 input  -89.97 | X-H torsion

> <Gold.Protein.ActiveResidues>
 VAL82   VAL86   LEU89   PHE106  VAL107  ASP110  VAL111  MET112  CYS114  THR115 
 CYS181  SER182  ILE183  PHE188  VAL189  ILE190  SER192  SER193  SER196  TRP342 
 PHE345  PHE346  HIS349  VAL350  TYR365  THR369  GLY372  TYR373 

> <Gold.Protein.RotatedAtoms>
    3.3300   -9.5259    3.8738 H   0  0  0  0  0  0  0  0  0  0  0  0  # atno 1303 bound_to 1298
    0.9217   -9.2833    8.2827 H   0  0  0  0  0  0  0  0  0  0  0  0  # atno 2461 bound_to 2456
   -3.6530   -5.1055    8.7542 H   0  0  0  0  0  0  0  0  0  0  0  0  # atno 2472 bound_to 2467
    2.7319   -9.1830    4.9495 H   0  0  0  0  0  0  0  0  0  0  0  0  # atno 2515 bound_to 2510
   -3.2091  -16.6681   14.4240 H   0  0  0  0  0  0  0  0  0  0  0  0  # atno 3721 bound_to 3712
   -5.3206  -21.9454   11.0881 H   0  0  0  0  0  0  0  0  0  0  0  0  # atno 3767 bound_to 3762
    2.0487  -20.7731    9.6217 H   0  0  0  0  0  0  0  0  0  0  0  0  # atno 3841 bound_to 3832
    4.5420   -8.5310    4.3294 LP  0  0  0  0  0  0  0  0  0  0  0  0  # atno 4297 bound_to 1298
    4.4904  -10.0644    4.8886 LP  0  0  0  0  0  0  0  0  0  0  0  0  # atno 4298 bound_to 1298
    2.1493   -8.3377    7.7667 LP  0  0  0  0  0  0  0  0  0  0  0  0  # atno 4299 bound_to 2456
    0.6667   -8.1874    7.0989 LP  0  0  0  0  0  0  0  0  0  0  0  0  # atno 4300 bound_to 2456
    2.0481   -8.2226    6.0790 LP  0  0  0  0  0  0  0  0  0  0  0  0  # atno 4301 bound_to 2510
    2.5166   -7.5931    4.6469 LP  0  0  0  0  0  0  0  0  0  0  0  0  # atno 4302 bound_to 2510
   -3.2033  -17.3317   12.9620 LP  0  0  0  0  0  0  0  0  0  0  0  0  # atno 4306 bound_to 3712
   -2.6194  -18.1510   14.2483 LP  0  0  0  0  0  0  0  0  0  0  0  0  # atno 4307 bound_to 3712
    1.7455  -19.6625    8.5034 LP  0  0  0  0  0  0  0  0  0  0  0  0  # atno 4314 bound_to 3832
    3.1172  -20.5467    8.4457 LP  0  0  0  0  0  0  0  0  0  0  0  0  # atno 4315 bound_to 3832
   -3.9541  -22.7838   11.3988 LP  0  0  0  0  0  0  0  0  0  0  0  0  # atno 4318 bound_to 3762
   -4.8529  -23.1456   10.0843 LP  0  0  0  0  0  0  0  0  0  0  0  0  # atno 4319 bound_to 3762
   -5.1927   -5.4310    9.1898 LP  0  0  0  0  0  0  0  0  0  0  0  0  # atno 4320 bound_to 2467
   -4.8710   -4.8570    7.6952 LP  0  0  0  0  0  0  0  0  0  0  0  0  # atno 4321 bound_to 2467

> <Gold.Score>
     Score     S(PLP)   S(hbond)     S(cho)   S(metal)  DE(clash)   DE(tors)     intcor
     41.19     -39.49       1.00       0.00       0.00       0.00       1.32       1.34

> <Gold.PLP.Fitness>
41.1885

> <Gold.PLP.PLP>
-39.4888

> <Gold.PLP.part.hbond>
-1.1793

> <Gold.PLP.part.metal>
0.0000

> <Gold.PLP.part.buried>
-5.4810

> <Gold.PLP.part.nonpolar>
-33.7458

> <Gold.PLP.part.repulsive>
0.2083

> <Gold.PLP.ligand.clash>
0.0000

> <Gold.PLP.ligand.torsion>
1.3211

> <Gold.PLP.Chemscore.Hbond>
1.0000

> <Gold.PLP.Chemscore.CHOScore>
0.0000

> <Gold.PLP.Chemscore.Metal>
0.0000

> <Gold.Chemscore.Hbonds>
donor molecule, donor type, donor heavy atom, donor atom, acceptor molecule, acceptor atom, score
      P1  H  2305  2313       L1     1  1.00

> <Gold.PLP.Chemscore.Internal.Correction>
1.3420

