#       Name:                EN300-218565_i001
#       Creating user name   fsindt
#       Creation time:       Tue Feb 28 07:51:18 2023


#       File generated by GOLD software.
#

@<TRIPOS>MOLECULE
EN300-218565_i001|acide_2|mol2|3780|dock1
    30    31     1
SMALL
USER_CHARGES


@<TRIPOS>ATOM
      1 O1          -1.8471  -9.9181  10.3668 O.co2          1 <1>               -1.0000
      2 C2          -0.6936 -10.2006  10.6469 C.2            1 <1>                0.0000
      3 O3          -0.1162  -9.5970  11.5363 O.co2          1 <1>                0.0000
      4 C4           0.0113 -11.2920   9.9035 C.2            1 <1>                0.0000
      5 O5           0.8320 -11.0152   9.0539 O.2            1 <1>                0.0000
      6 N6          -0.2657 -12.5821  10.1778 N.am           1 <1>                0.0000
      7 C7           0.4346 -13.6699   9.4782 C.3            1 <1>                0.0000
      8 C8           0.9882 -14.6441  10.5236 C.3            1 <1>                0.0000
      9 N9          -0.1000 -15.0755  11.4109 N.3            1 <1>                0.0000
     10 C10         -0.6553 -13.9425  12.1631 C.3            1 <1>                0.0000
     11 C11         -1.2719 -12.9395  11.1893 C.3            1 <1>                0.0000
     12 C12          0.3287 -16.0869  12.2736 C.ar           1 <1>                0.0000
     13 C13          1.3724 -15.8504  13.1592 C.ar           1 <1>                0.0000
     14 C14          1.7934 -16.8525  14.0112 C.ar           1 <1>                0.0000
     15 C15          1.1772 -18.0902  13.9834 C.ar           1 <1>                0.0000
     16 C16          0.1379 -18.3289  13.1030 C.ar           1 <1>                0.0000
     17 C17         -0.2916 -17.3296  12.2519 C.ar           1 <1>                0.0000
     18 H18         -0.2626 -14.1927   8.8235 H              1 <1>                0.0000
     19 H19          1.2551 -13.2586   8.8902 H              1 <1>                0.0000
     20 H20          1.4144 -15.5127  10.0216 H              1 <1>                0.0000
     21 H21          1.7608 -14.1473  11.1105 H              1 <1>                0.0000
     22 H22         -1.4212 -14.3023  12.8501 H              1 <1>                0.0000
     23 H23          0.1401 -13.4554  12.7271 H              1 <1>                0.0000
     24 H24         -1.5820 -12.0461  11.7312 H              1 <1>                0.0000
     25 H25         -2.1337 -13.3899  10.6966 H              1 <1>                0.0000
     26 H26          1.8543 -14.8841  13.1812 H              1 <1>                0.0000
     27 H27          2.6052 -16.6694  14.6997 H              1 <1>                0.0000
     28 H28          1.5087 -18.8721  14.6505 H              1 <1>                0.0000
     29 H29         -0.3412 -19.2966  13.0838 H              1 <1>                0.0000
     30 H30         -1.1036 -17.5167  11.5649 H              1 <1>                0.0000
@<TRIPOS>BOND
    1    1    2 ar    
    2    2    3 ar    
    3    2    4 1     
    4    4    5 2     
    5    4    6 am    
    6    6    7 1     
    7    6   11 1     
    8    7    8 1     
    9    7   18 1     
   10    7   19 1     
   11    8    9 1     
   12    8   20 1     
   13    8   21 1     
   14    9   10 1     
   15    9   12 1     
   16   10   11 1     
   17   10   22 1     
   18   10   23 1     
   19   11   24 1     
   20   11   25 1     
   21   12   13 ar    
   22   12   17 ar    
   23   13   14 ar    
   24   13   26 1     
   25   14   15 ar    
   26   14   27 1     
   27   15   16 ar    
   28   15   28 1     
   29   16   17 ar    
   30   16   29 1     
   31   17   30 1     
@<TRIPOS>SUBSTRUCTURE
      1 ****           1
@<TRIPOS>COMMENT
> <Gold.Version>
2022.2.0

> <Gold.Id.Protein>
3pbl|protein|mol2

> <Gold.Protein.RotatedTorsions>
[ 1303 1298 1297 1294 ] final  -59.67 input  179.99 | X-H torsion
[ 2461 2456 2455 2452 ] final -147.97 input   30.03 | X-H torsion
[ 2515 2510 2509 2506 ] final  -56.73 input  -89.99 | X-H torsion
[ 3721 3712 3711 3710 ] final   -1.80 input -179.91 | X-H torsion
[ 3841 3832 3831 3830 ] final -176.60 input -179.91 | X-H torsion
[ 3767 3762 3761 3758 ] final   26.24 input  -89.99 | X-H torsion
[ 2472 2467 2466 2463 ] final  119.07 input  -89.97 | X-H torsion

> <Gold.Protein.ActiveResidues>
 VAL82   VAL86   LEU89   PHE106  VAL107  ASP110  VAL111  MET112  CYS114  THR115 
 CYS181  SER182  ILE183  PHE188  VAL189  ILE190  SER192  SER193  SER196  TRP342 
 PHE345  PHE346  HIS349  VAL350  TYR365  THR369  GLY372  TYR373 

> <Gold.Protein.RotatedAtoms>
    3.4958   -8.9810    3.7776 H   0  0  0  0  0  0  0  0  0  0  0  0  # atno 1303 bound_to 1298
    0.9463   -9.2855    8.2935 H   0  0  0  0  0  0  0  0  0  0  0  0  # atno 2461 bound_to 2456
   -5.4108   -5.0701    8.1196 H   0  0  0  0  0  0  0  0  0  0  0  0  # atno 2472 bound_to 2467
    2.8168   -8.4478    4.3724 H   0  0  0  0  0  0  0  0  0  0  0  0  # atno 2515 bound_to 2510
   -2.4909  -17.9458   14.2671 H   0  0  0  0  0  0  0  0  0  0  0  0  # atno 3721 bound_to 3712
   -5.0317  -23.0188   10.0632 H   0  0  0  0  0  0  0  0  0  0  0  0  # atno 3767 bound_to 3762
    2.9274  -20.0117    8.3960 H   0  0  0  0  0  0  0  0  0  0  0  0  # atno 3841 bound_to 3832
    4.8537   -8.8706    4.6778 LP  0  0  0  0  0  0  0  0  0  0  0  0  # atno 4297 bound_to 1298
    4.0129  -10.2699    4.6364 LP  0  0  0  0  0  0  0  0  0  0  0  0  # atno 4298 bound_to 1298
    2.1447   -8.3197    7.7471 LP  0  0  0  0  0  0  0  0  0  0  0  0  # atno 4299 bound_to 2456
    0.6466   -8.2032    7.1077 LP  0  0  0  0  0  0  0  0  0  0  0  0  # atno 4300 bound_to 2456
    2.3459   -9.0703    5.8064 LP  0  0  0  0  0  0  0  0  0  0  0  0  # atno 4301 bound_to 2510
    2.1338   -7.4810    5.4969 LP  0  0  0  0  0  0  0  0  0  0  0  0  # atno 4302 bound_to 2510
   -3.4519  -16.6700   14.4302 LP  0  0  0  0  0  0  0  0  0  0  0  0  # atno 4306 bound_to 3712
   -3.2000  -17.3375   12.9613 LP  0  0  0  0  0  0  0  0  0  0  0  0  # atno 4307 bound_to 3712
    2.4242  -21.1472    9.4125 LP  0  0  0  0  0  0  0  0  0  0  0  0  # atno 4314 bound_to 3832
    1.4236  -19.9415    8.9525 LP  0  0  0  0  0  0  0  0  0  0  0  0  # atno 4315 bound_to 3832
   -5.1838  -21.9161   11.2582 LP  0  0  0  0  0  0  0  0  0  0  0  0  # atno 4318 bound_to 3762
   -3.9120  -22.9403   11.2493 LP  0  0  0  0  0  0  0  0  0  0  0  0  # atno 4319 bound_to 3762
   -3.7895   -4.8788    8.0857 LP  0  0  0  0  0  0  0  0  0  0  0  0  # atno 4320 bound_to 2467
   -4.5168   -5.4446    9.4338 LP  0  0  0  0  0  0  0  0  0  0  0  0  # atno 4321 bound_to 2467

> <Gold.Score>
     Score     S(PLP)   S(hbond)     S(cho)   S(metal)  DE(clash)   DE(tors)     intcor
     47.74     -46.23       1.00       0.00       0.00       0.00       1.44       1.38

> <Gold.PLP.Fitness>
47.7397

> <Gold.PLP.PLP>
-46.2295

> <Gold.PLP.part.hbond>
-1.0000

> <Gold.PLP.part.metal>
0.0000

> <Gold.PLP.part.buried>
-7.1946

> <Gold.PLP.part.nonpolar>
-38.9691

> <Gold.PLP.part.repulsive>
0.2502

> <Gold.PLP.ligand.clash>
0.0000

> <Gold.PLP.ligand.torsion>
1.4372

> <Gold.PLP.Chemscore.Hbond>
1.0000

> <Gold.PLP.Chemscore.CHOScore>
0.0000

> <Gold.PLP.Chemscore.Metal>
0.0000

> <Gold.Chemscore.Hbonds>
donor molecule, donor type, donor heavy atom, donor atom, acceptor molecule, acceptor atom, score
      P1  H  2456  2461       L1     5  1.00

> <Gold.PLP.Chemscore.Internal.Correction>
1.3845

