#       Name:                EN300-218565_i001
#       Creating user name   fsindt
#       Creation time:       Tue Feb 28 07:51:22 2023


#       File generated by GOLD software.
#

@<TRIPOS>MOLECULE
EN300-218565_i001|acide_2|mol2|3780|dock6
    30    31     1
SMALL
USER_CHARGES


@<TRIPOS>ATOM
      1 O1           0.2878 -12.5771   7.6416 O.co2          1 <1>               -1.0000
      2 C2           0.4662 -11.7849   8.5524 C.2            1 <1>                0.0000
      3 O3           1.2761 -10.8811   8.4251 O.co2          1 <1>                0.0000
      4 C4          -0.3131 -11.9178   9.8234 C.2            1 <1>                0.0000
      5 O5          -0.7587 -10.9295  10.3679 O.2            1 <1>                0.0000
      6 N6          -0.5198 -13.1354  10.3630 N.am           1 <1>                0.0000
      7 C7           0.0342 -14.3439   9.7338 C.3            1 <1>                0.0000
      8 C8           0.7935 -15.1427  10.7986 C.3            1 <1>                0.0000
      9 N9          -0.0915 -15.3892  11.9448 N.3            1 <1>                0.0000
     10 C10         -0.4932 -14.1312  12.5882 C.3            1 <1>                0.0000
     11 C11         -1.3001 -13.2903  11.6001 C.3            1 <1>                0.0000
     12 C12          0.5091 -16.2521  12.8645 C.ar           1 <1>                0.0000
     13 C13          1.7138 -15.9037  13.4618 C.ar           1 <1>                0.0000
     14 C14          2.3046 -16.7590  14.3711 C.ar           1 <1>                0.0000
     15 C15          1.6982 -17.9610  14.6871 C.ar           1 <1>                0.0000
     16 C16          0.4988 -18.3108  14.0943 C.ar           1 <1>                0.0000
     17 C17         -0.1001 -17.4578  13.1881 C.ar           1 <1>                0.0000
     18 H18         -0.7762 -14.9505   9.3296 H              1 <1>                0.0000
     19 H19          0.7170 -14.0597   8.9332 H              1 <1>                0.0000
     20 H20          1.1169 -16.0946  10.3774 H              1 <1>                0.0000
     21 H21          1.6643 -14.5752  11.1269 H              1 <1>                0.0000
     22 H22         -1.1031 -14.3495  13.4648 H              1 <1>                0.0000
     23 H23          0.3954 -13.5777  12.8915 H              1 <1>                0.0000
     24 H24         -1.5020 -12.3104  12.0326 H              1 <1>                0.0000
     25 H25         -2.2397 -13.7939  11.3726 H              1 <1>                0.0000
     26 H26          2.1881 -14.9653  13.2152 H              1 <1>                0.0000
     27 H27          3.2415 -16.4889  14.8356 H              1 <1>                0.0000
     28 H28          2.1625 -18.6281  15.3982 H              1 <1>                0.0000
     29 H29          0.0279 -19.2503  14.3433 H              1 <1>                0.0000
     30 H30         -1.0369 -17.7315  12.7258 H              1 <1>                0.0000
@<TRIPOS>BOND
    1    1    2 ar    
    2    2    3 ar    
    3    2    4 1     
    4    4    5 2     
    5    4    6 am    
    6    6    7 1     
    7    6   11 1     
    8    7    8 1     
    9    7   18 1     
   10    7   19 1     
   11    8    9 1     
   12    8   20 1     
   13    8   21 1     
   14    9   10 1     
   15    9   12 1     
   16   10   11 1     
   17   10   22 1     
   18   10   23 1     
   19   11   24 1     
   20   11   25 1     
   21   12   13 ar    
   22   12   17 ar    
   23   13   14 ar    
   24   13   26 1     
   25   14   15 ar    
   26   14   27 1     
   27   15   16 ar    
   28   15   28 1     
   29   16   17 ar    
   30   16   29 1     
   31   17   30 1     
@<TRIPOS>SUBSTRUCTURE
      1 ****           1
@<TRIPOS>COMMENT
> <Gold.Version>
2022.2.0

> <Gold.Id.Protein>
3pbl|protein|mol2

> <Gold.Protein.RotatedTorsions>
[ 1303 1298 1297 1294 ] final   76.87 input  179.99 | X-H torsion
[ 2461 2456 2455 2452 ] final -158.19 input   30.03 | X-H torsion
[ 2515 2510 2509 2506 ] final   29.05 input  -89.99 | X-H torsion
[ 3721 3712 3711 3710 ] final   80.46 input -179.91 | X-H torsion
[ 3841 3832 3831 3830 ] final -123.37 input -179.91 | X-H torsion
[ 3767 3762 3761 3758 ] final   66.75 input  -89.99 | X-H torsion
[ 2472 2467 2466 2463 ] final   14.50 input  -89.97 | X-H torsion

> <Gold.Protein.ActiveResidues>
 VAL82   VAL86   LEU89   PHE106  VAL107  ASP110  VAL111  MET112  CYS114  THR115 
 CYS181  SER182  ILE183  PHE188  VAL189  ILE190  SER192  SER193  SER196  TRP342 
 PHE345  PHE346  HIS349  VAL350  TYR365  THR369  GLY372  TYR373 

> <Gold.Protein.RotatedAtoms>
    4.2402  -10.2143    4.7735 H   0  0  0  0  0  0  0  0  0  0  0  0  # atno 1303 bound_to 1298
    1.1047   -9.2866    8.3499 H   0  0  0  0  0  0  0  0  0  0  0  0  # atno 2461 bound_to 2456
   -3.9549   -4.8309    7.9002 H   0  0  0  0  0  0  0  0  0  0  0  0  # atno 2472 bound_to 2467
    2.3386   -7.4267    4.9842 H   0  0  0  0  0  0  0  0  0  0  0  0  # atno 2515 bound_to 2510
   -2.7163  -17.7224   13.1727 H   0  0  0  0  0  0  0  0  0  0  0  0  # atno 3721 bound_to 3712
   -4.4773  -23.3085   10.2501 H   0  0  0  0  0  0  0  0  0  0  0  0  # atno 3767 bound_to 3762
    2.2696  -19.6027    8.4371 H   0  0  0  0  0  0  0  0  0  0  0  0  # atno 3841 bound_to 3832
    3.3836   -9.2272    3.7945 LP  0  0  0  0  0  0  0  0  0  0  0  0  # atno 4297 bound_to 1298
    4.7383   -8.6795    4.5234 LP  0  0  0  0  0  0  0  0  0  0  0  0  # atno 4298 bound_to 1298
    2.0997   -8.2133    7.6250 LP  0  0  0  0  0  0  0  0  0  0  0  0  # atno 4299 bound_to 2456
    0.5333   -8.3085    7.1734 LP  0  0  0  0  0  0  0  0  0  0  0  0  # atno 4300 bound_to 2456
    2.8191   -8.9441    4.6202 LP  0  0  0  0  0  0  0  0  0  0  0  0  # atno 4301 bound_to 2510
    2.1391   -8.6287    6.0710 LP  0  0  0  0  0  0  0  0  0  0  0  0  # atno 4302 bound_to 2510
   -2.8266  -17.7078   14.7744 LP  0  0  0  0  0  0  0  0  0  0  0  0  # atno 4306 bound_to 3712
   -3.5650  -16.5578   13.8806 LP  0  0  0  0  0  0  0  0  0  0  0  0  # atno 4307 bound_to 3712
    3.0416  -20.9475    8.8514 LP  0  0  0  0  0  0  0  0  0  0  0  0  # atno 4314 bound_to 3832
    1.5660  -20.6137    9.4662 LP  0  0  0  0  0  0  0  0  0  0  0  0  # atno 4315 bound_to 3832
   -5.4901  -22.1157   10.7174 LP  0  0  0  0  0  0  0  0  0  0  0  0  # atno 4318 bound_to 3762
   -4.1599  -22.4511   11.6033 LP  0  0  0  0  0  0  0  0  0  0  0  0  # atno 4319 bound_to 3762
   -4.2696   -5.4040    9.3965 LP  0  0  0  0  0  0  0  0  0  0  0  0  # atno 4320 bound_to 2467
   -5.4923   -5.1586    8.3423 LP  0  0  0  0  0  0  0  0  0  0  0  0  # atno 4321 bound_to 2467

> <Gold.Score>
     Score     S(PLP)   S(hbond)     S(cho)   S(metal)  DE(clash)   DE(tors)     intcor
     44.29     -41.32       1.00       0.00       0.00       0.00       0.69       1.34

> <Gold.PLP.Fitness>
44.2880

> <Gold.PLP.PLP>
-41.3167

> <Gold.PLP.part.hbond>
-0.8503

> <Gold.PLP.part.metal>
0.0000

> <Gold.PLP.part.buried>
-4.3112

> <Gold.PLP.part.nonpolar>
-37.3486

> <Gold.PLP.part.repulsive>
0.0867

> <Gold.PLP.ligand.clash>
0.0000

> <Gold.PLP.ligand.torsion>
0.6854

> <Gold.PLP.Chemscore.Hbond>
1.0000

> <Gold.PLP.Chemscore.CHOScore>
0.0000

> <Gold.PLP.Chemscore.Metal>
0.0000

> <Gold.Chemscore.Hbonds>
donor molecule, donor type, donor heavy atom, donor atom, acceptor molecule, acceptor atom, score
      P1  H  2456  2461       L1     3  1.00

> <Gold.PLP.Chemscore.Internal.Correction>
1.3420

