#       Name:                EN300-218565_i001
#       Creating user name   fsindt
#       Creation time:       Tue Feb 28 07:51:30 2023


#       File generated by GOLD software.
#

@<TRIPOS>MOLECULE
EN300-218565_i001|acide_2|mol2|3780|dock16
    30    31     1
SMALL
USER_CHARGES


@<TRIPOS>ATOM
      1 O1          -0.5937 -17.8723  14.2516 O.co2          1 <1>               -1.0000
      2 C2          -0.1079 -16.7882  14.5305 C.2            1 <1>                0.0000
      3 O3          -0.6778 -16.0479  15.3153 O.co2          1 <1>                0.0000
      4 C4           1.1905 -16.3691  13.9146 C.2            1 <1>                0.0000
      5 O5           2.1571 -16.1634  14.6183 O.2            1 <1>                0.0000
      6 N6           1.2857 -16.2203  12.5785 N.am           1 <1>                0.0000
      7 C7           0.1193 -16.4386  11.7095 C.3            1 <1>                0.0000
      8 C8          -0.0399 -15.2206  10.7934 C.3            1 <1>                0.0000
      9 N9           1.2241 -14.9751  10.0864 N.3            1 <1>                0.0000
     10 C10          2.3035 -14.6410  11.0250 C.3            1 <1>                0.0000
     11 C11          2.5573 -15.8293  11.9513 C.3            1 <1>                0.0000
     12 C12          1.0724 -13.9762   9.1220 C.ar           1 <1>                0.0000
     13 C13          0.7293 -12.6856   9.5046 C.ar           1 <1>                0.0000
     14 C14          0.5807 -11.7002   8.5485 C.ar           1 <1>                0.0000
     15 C15          0.7731 -11.9970   7.2116 C.ar           1 <1>                0.0000
     16 C16          1.1148 -13.2807   6.8273 C.ar           1 <1>                0.0000
     17 C17          1.2702 -14.2697   7.7788 C.ar           1 <1>                0.0000
     18 H18          0.2745 -17.3329  11.1061 H              1 <1>                0.0000
     19 H19         -0.7755 -16.5566  12.3206 H              1 <1>                0.0000
     20 H20         -0.8311 -15.4118  10.0684 H              1 <1>                0.0000
     21 H21         -0.2977 -14.3466  11.3917 H              1 <1>                0.0000
     22 H22          3.2120 -14.4120  10.4680 H              1 <1>                0.0000
     23 H23          2.0132 -13.7753  11.6201 H              1 <1>                0.0000
     24 H24          3.2754 -15.5469  12.7211 H              1 <1>                0.0000
     25 H25          2.9465 -16.6675  11.3734 H              1 <1>                0.0000
     26 H26          0.5786 -12.4532  10.5485 H              1 <1>                0.0000
     27 H27          0.3135 -10.6967   8.8452 H              1 <1>                0.0000
     28 H28          0.6559 -11.2245   6.4660 H              1 <1>                0.0000
     29 H29          1.2643 -13.5091   5.7825 H              1 <1>                0.0000
     30 H30          1.5374 -15.2719   7.4780 H              1 <1>                0.0000
@<TRIPOS>BOND
    1    1    2 ar    
    2    2    3 ar    
    3    2    4 1     
    4    4    5 2     
    5    4    6 am    
    6    6    7 1     
    7    6   11 1     
    8    7    8 1     
    9    7   18 1     
   10    7   19 1     
   11    8    9 1     
   12    8   20 1     
   13    8   21 1     
   14    9   10 1     
   15    9   12 1     
   16   10   11 1     
   17   10   22 1     
   18   10   23 1     
   19   11   24 1     
   20   11   25 1     
   21   12   13 ar    
   22   12   17 ar    
   23   13   14 ar    
   24   13   26 1     
   25   14   15 ar    
   26   14   27 1     
   27   15   16 ar    
   28   15   28 1     
   29   16   17 ar    
   30   16   29 1     
   31   17   30 1     
@<TRIPOS>SUBSTRUCTURE
      1 ****           1
@<TRIPOS>COMMENT
> <Gold.Version>
2022.2.0

> <Gold.Id.Protein>
3pbl|protein|mol2

> <Gold.Protein.RotatedTorsions>
[ 1303 1298 1297 1294 ] final  172.29 input  179.99 | X-H torsion
[ 2461 2456 2455 2452 ] final  156.35 input   30.03 | X-H torsion
[ 2515 2510 2509 2506 ] final  146.55 input  -89.99 | X-H torsion
[ 3721 3712 3711 3710 ] final    7.81 input -179.91 | X-H torsion
[ 3841 3832 3831 3830 ] final  -17.89 input -179.91 | X-H torsion
[ 3767 3762 3761 3758 ] final   74.50 input  -89.99 | X-H torsion
[ 2472 2467 2466 2463 ] final   81.86 input  -89.97 | X-H torsion

> <Gold.Protein.ActiveResidues>
 VAL82   VAL86   LEU89   PHE106  VAL107  ASP110  VAL111  MET112  CYS114  THR115 
 CYS181  SER182  ILE183  PHE188  VAL189  ILE190  SER192  SER193  SER196  TRP342 
 PHE345  PHE346  HIS349  VAL350  TYR365  THR369  GLY372  TYR373 

> <Gold.Protein.RotatedAtoms>
    4.8877   -8.9795    4.7443 H   0  0  0  0  0  0  0  0  0  0  0  0  # atno 1303 bound_to 1298
    1.7916   -9.0432    8.3466 H   0  0  0  0  0  0  0  0  0  0  0  0  # atno 2461 bound_to 2456
   -4.9862   -4.8851    7.7358 H   0  0  0  0  0  0  0  0  0  0  0  0  # atno 2472 bound_to 2467
    2.1275   -8.5901    6.0791 H   0  0  0  0  0  0  0  0  0  0  0  0  # atno 2515 bound_to 2510
   -2.4744  -17.9957   14.1317 H   0  0  0  0  0  0  0  0  0  0  0  0  # atno 3721 bound_to 3712
   -4.3758  -23.3284   10.3247 H   0  0  0  0  0  0  0  0  0  0  0  0  # atno 3767 bound_to 3762
    1.6142  -20.2755    9.4453 H   0  0  0  0  0  0  0  0  0  0  0  0  # atno 3841 bound_to 3832
    3.9042  -10.2700    4.5610 LP  0  0  0  0  0  0  0  0  0  0  0  0  # atno 4297 bound_to 1298
    3.5699   -8.8720    3.7861 LP  0  0  0  0  0  0  0  0  0  0  0  0  # atno 4298 bound_to 1298
    1.6097   -7.9272    7.1682 LP  0  0  0  0  0  0  0  0  0  0  0  0  # atno 4299 bound_to 2456
    0.3367   -8.8379    7.6335 LP  0  0  0  0  0  0  0  0  0  0  0  0  # atno 4300 bound_to 2456
    2.3556   -7.4352    4.9477 LP  0  0  0  0  0  0  0  0  0  0  0  0  # atno 4301 bound_to 2510
    2.8137   -8.9737    4.6481 LP  0  0  0  0  0  0  0  0  0  0  0  0  # atno 4302 bound_to 2510
   -3.3945  -16.7504   14.5566 LP  0  0  0  0  0  0  0  0  0  0  0  0  # atno 4306 bound_to 3712
   -3.2764  -17.1996   12.9911 LP  0  0  0  0  0  0  0  0  0  0  0  0  # atno 4307 bound_to 3712
    2.4149  -19.7424    8.1604 LP  0  0  0  0  0  0  0  0  0  0  0  0  # atno 4314 bound_to 3832
    2.9499  -21.0417    8.9925 LP  0  0  0  0  0  0  0  0  0  0  0  0  # atno 4315 bound_to 3832
   -5.5077  -22.1872   10.6134 LP  0  0  0  0  0  0  0  0  0  0  0  0  # atno 4318 bound_to 3762
   -4.2438  -22.3598   11.6328 LP  0  0  0  0  0  0  0  0  0  0  0  0  # atno 4319 bound_to 3762
   -3.6366   -5.0610    8.6381 LP  0  0  0  0  0  0  0  0  0  0  0  0  # atno 4320 bound_to 2467
   -5.0942   -5.4473    9.2651 LP  0  0  0  0  0  0  0  0  0  0  0  0  # atno 4321 bound_to 2467

> <Gold.Score>
     Score     S(PLP)   S(hbond)     S(cho)   S(metal)  DE(clash)   DE(tors)     intcor
     46.29     -42.49       1.61       0.00       0.00       0.00       1.18       1.34

> <Gold.PLP.Fitness>
46.2871

> <Gold.PLP.PLP>
-42.4890

> <Gold.PLP.part.hbond>
-3.1886

> <Gold.PLP.part.metal>
0.0000

> <Gold.PLP.part.buried>
-0.1530

> <Gold.PLP.part.nonpolar>
-42.3365

> <Gold.PLP.part.repulsive>
1.4098

> <Gold.PLP.ligand.clash>
0.0000

> <Gold.PLP.ligand.torsion>
1.1817

> <Gold.PLP.Chemscore.Hbond>
1.6065

> <Gold.PLP.Chemscore.CHOScore>
0.0000

> <Gold.PLP.Chemscore.Metal>
0.0000

> <Gold.Chemscore.Hbonds>
donor molecule, donor type, donor heavy atom, donor atom, acceptor molecule, acceptor atom, score
      P1  H  2305  2313       L1     3  0.66
      P1  H  3712  3721       L1     1  0.94

> <Gold.PLP.Chemscore.Internal.Correction>
1.3420

