#       Name:                EN300-218565_i001
#       Creating user name   fsindt
#       Creation time:       Tue Feb 28 07:51:19 2023


#       File generated by GOLD software.
#

@<TRIPOS>MOLECULE
EN300-218565_i001|acide_2|mol2|3780|dock2
    30    31     1
SMALL
USER_CHARGES


@<TRIPOS>ATOM
      1 O1          -0.1619 -19.1434  14.5344 O.co2          1 <1>               -1.0000
      2 C2          -0.0321 -17.9301  14.5428 C.2            1 <1>                0.0000
      3 O3          -0.9184 -17.2248  14.9965 O.co2          1 <1>                0.0000
      4 C4           1.2171 -17.3073  14.0024 C.2            1 <1>                0.0000
      5 O5           2.2982 -17.7926  14.2621 O.2            1 <1>                0.0000
      6 N6           1.1409 -16.2073  13.2273 N.am           1 <1>                0.0000
      7 C7           2.3539 -15.5951  12.6641 C.3            1 <1>                0.0000
      8 C8           2.1496 -15.4074  11.1570 C.3            1 <1>                0.0000
      9 N9           0.9091 -14.6560  10.9241 N.3            1 <1>                0.0000
     10 C10         -0.2628 -15.4000  11.4049 C.3            1 <1>                0.0000
     11 C11         -0.1580 -15.5910  12.9171 C.3            1 <1>                0.0000
     12 C12          0.7714 -14.3231   9.5746 C.ar           1 <1>                0.0000
     13 C13          0.8094 -12.9921   9.1786 C.ar           1 <1>                0.0000
     14 C14          0.6734 -12.6665   7.8434 C.ar           1 <1>                0.0000
     15 C15          0.4997 -13.6636   6.9010 C.ar           1 <1>                0.0000
     16 C16          0.4615 -14.9896   7.2919 C.ar           1 <1>                0.0000
     17 C17          0.6021 -15.3225   8.6249 C.ar           1 <1>                0.0000
     18 H18          2.5271 -14.6268  13.1335 H              1 <1>                0.0000
     19 H19          3.2088 -16.2483  12.8391 H              1 <1>                0.0000
     20 H20          2.9928 -14.8553  10.7416 H              1 <1>                0.0000
     21 H21          2.0801 -16.3827  10.6750 H              1 <1>                0.0000
     22 H22         -1.1693 -14.8424  11.1694 H              1 <1>                0.0000
     23 H23         -0.2988 -16.3752  10.9196 H              1 <1>                0.0000
     24 H24         -0.9640 -16.2391  13.2612 H              1 <1>                0.0000
     25 H25         -0.2252 -14.6231  13.4140 H              1 <1>                0.0000
     26 H26          0.9447 -12.2129   9.9140 H              1 <1>                0.0000
     27 H27          0.7024 -11.6319   7.5349 H              1 <1>                0.0000
     28 H28          0.3933 -13.4062   5.8576 H              1 <1>                0.0000
     29 H29          0.3257 -15.7658   6.5534 H              1 <1>                0.0000
     30 H30          0.5725 -16.3583   8.9293 H              1 <1>                0.0000
@<TRIPOS>BOND
    1    1    2 ar    
    2    2    3 ar    
    3    2    4 1     
    4    4    5 2     
    5    4    6 am    
    6    6    7 1     
    7    6   11 1     
    8    7    8 1     
    9    7   18 1     
   10    7   19 1     
   11    8    9 1     
   12    8   20 1     
   13    8   21 1     
   14    9   10 1     
   15    9   12 1     
   16   10   11 1     
   17   10   22 1     
   18   10   23 1     
   19   11   24 1     
   20   11   25 1     
   21   12   13 ar    
   22   12   17 ar    
   23   13   14 ar    
   24   13   26 1     
   25   14   15 ar    
   26   14   27 1     
   27   15   16 ar    
   28   15   28 1     
   29   16   17 ar    
   30   16   29 1     
   31   17   30 1     
@<TRIPOS>SUBSTRUCTURE
      1 ****           1
@<TRIPOS>COMMENT
> <Gold.Version>
2022.2.0

> <Gold.Id.Protein>
3pbl|protein|mol2

> <Gold.Protein.RotatedTorsions>
[ 1303 1298 1297 1294 ] final  116.41 input  179.99 | X-H torsion
[ 2461 2456 2455 2452 ] final   39.06 input   30.03 | X-H torsion
[ 2515 2510 2509 2506 ] final -112.30 input  -89.99 | X-H torsion
[ 3721 3712 3711 3710 ] final  -24.97 input -179.91 | X-H torsion
[ 3841 3832 3831 3830 ] final  -33.27 input -179.91 | X-H torsion
[ 3767 3762 3761 3758 ] final  -72.44 input  -89.99 | X-H torsion
[ 2472 2467 2466 2463 ] final  143.57 input  -89.97 | X-H torsion

> <Gold.Protein.ActiveResidues>
 VAL82   VAL86   LEU89   PHE106  VAL107  ASP110  VAL111  MET112  CYS114  THR115 
 CYS181  SER182  ILE183  PHE188  VAL189  ILE190  SER192  SER193  SER196  TRP342 
 PHE345  PHE346  HIS349  VAL350  TYR365  THR369  GLY372  TYR373 

> <Gold.Protein.RotatedAtoms>
    4.7107   -9.8206    4.9476 H   0  0  0  0  0  0  0  0  0  0  0  0  # atno 1303 bound_to 1298
    1.6491   -7.9333    7.1881 H   0  0  0  0  0  0  0  0  0  0  0  0  # atno 2461 bound_to 2456
   -5.5094   -5.2112    8.4808 H   0  0  0  0  0  0  0  0  0  0  0  0  # atno 2472 bound_to 2467
    2.7507   -9.1545    4.8903 H   0  0  0  0  0  0  0  0  0  0  0  0  # atno 2515 bound_to 2510
   -2.5768  -17.7530   14.5435 H   0  0  0  0  0  0  0  0  0  0  0  0  # atno 3721 bound_to 3712
   -5.3861  -21.9806   10.9816 H   0  0  0  0  0  0  0  0  0  0  0  0  # atno 3767 bound_to 3762
    1.5652  -20.0926    9.3118 H   0  0  0  0  0  0  0  0  0  0  0  0  # atno 3841 bound_to 3832
    3.3693   -9.8250    4.0166 LP  0  0  0  0  0  0  0  0  0  0  0  0  # atno 4297 bound_to 1298
    4.2820   -8.4755    4.1272 LP  0  0  0  0  0  0  0  0  0  0  0  0  # atno 4298 bound_to 1298
    0.3327   -8.8071    7.6015 LP  0  0  0  0  0  0  0  0  0  0  0  0  # atno 4299 bound_to 2456
    1.7561   -9.0675    8.3584 LP  0  0  0  0  0  0  0  0  0  0  0  0  # atno 4300 bound_to 2456
    2.0581   -8.2894    6.0894 LP  0  0  0  0  0  0  0  0  0  0  0  0  # atno 4301 bound_to 2510
    2.4877   -7.5548    4.6957 LP  0  0  0  0  0  0  0  0  0  0  0  0  # atno 4302 bound_to 2510
   -3.5455  -16.5621   14.0732 LP  0  0  0  0  0  0  0  0  0  0  0  0  # atno 4306 bound_to 3712
   -3.0072  -17.6681   12.9991 LP  0  0  0  0  0  0  0  0  0  0  0  0  # atno 4307 bound_to 3712
    2.6361  -19.8695    8.1373 LP  0  0  0  0  0  0  0  0  0  0  0  0  # atno 4314 bound_to 3832
    2.7852  -21.1258    9.1698 LP  0  0  0  0  0  0  0  0  0  0  0  0  # atno 4315 bound_to 3832
   -3.9984  -22.6871   11.4733 LP  0  0  0  0  0  0  0  0  0  0  0  0  # atno 4318 bound_to 3762
   -4.7431  -23.2071   10.1162 LP  0  0  0  0  0  0  0  0  0  0  0  0  # atno 4319 bound_to 3762
   -4.0740   -4.8117    7.8126 LP  0  0  0  0  0  0  0  0  0  0  0  0  # atno 4320 bound_to 2467
   -4.1337   -5.3707    9.3458 LP  0  0  0  0  0  0  0  0  0  0  0  0  # atno 4321 bound_to 2467

> <Gold.Score>
     Score     S(PLP)   S(hbond)     S(cho)   S(metal)  DE(clash)   DE(tors)     intcor
     45.64     -43.15       0.85       0.00       0.00       0.00       0.72       1.38

> <Gold.PLP.Fitness>
45.6362

> <Gold.PLP.PLP>
-43.1516

> <Gold.PLP.part.hbond>
-1.0000

> <Gold.PLP.part.metal>
0.0000

> <Gold.PLP.part.buried>
-1.0366

> <Gold.PLP.part.nonpolar>
-41.6030

> <Gold.PLP.part.repulsive>
0.1906

> <Gold.PLP.ligand.clash>
0.0000

> <Gold.PLP.ligand.torsion>
0.7219

> <Gold.PLP.Chemscore.Hbond>
0.8480

> <Gold.PLP.Chemscore.CHOScore>
0.0000

> <Gold.PLP.Chemscore.Metal>
0.0000

> <Gold.Chemscore.Hbonds>
donor molecule, donor type, donor heavy atom, donor atom, acceptor molecule, acceptor atom, score
      P1  H  3712  3721       L1     3  0.85

> <Gold.PLP.Chemscore.Internal.Correction>
1.3845

