#       Name:                EN300-218565_i001
#       Creating user name   fsindt
#       Creation time:       Tue Feb 28 07:51:23 2023


#       File generated by GOLD software.
#

@<TRIPOS>MOLECULE
EN300-218565_i001|acide_2|mol2|3780|dock8
    30    31     1
SMALL
USER_CHARGES


@<TRIPOS>ATOM
      1 O1          -3.3091 -24.1552  13.2633 O.co2          1 <1>               -1.0000
      2 C2          -2.2411 -24.0099  12.6914 C.2            1 <1>                0.0000
      3 O3          -2.1944 -24.0281  11.4722 O.co2          1 <1>                0.0000
      4 C4          -0.9890 -23.8030  13.4851 C.2            1 <1>                0.0000
      5 O5          -0.7375 -24.5316  14.4219 O.2            1 <1>                0.0000
      6 N6          -0.1412 -22.8073  13.1592 N.am           1 <1>                0.0000
      7 C7          -0.4401 -21.8959  12.0442 C.3            1 <1>                0.0000
      8 C8          -0.3020 -20.4538  12.5438 C.3            1 <1>                0.0000
      9 N9           1.0222 -20.2752  13.1541 N.3            1 <1>                0.0000
     10 C10          1.1847 -21.1332  14.3353 C.3            1 <1>                0.0000
     11 C11          1.1044 -22.5994  13.9131 C.3            1 <1>                0.0000
     12 C12          1.2491 -18.9347  13.4743 C.ar           1 <1>                0.0000
     13 C13          2.3074 -18.2493  12.8915 C.ar           1 <1>                0.0000
     14 C14          2.5285 -16.9237  13.2100 C.ar           1 <1>                0.0000
     15 C15          1.6978 -16.2788  14.1079 C.ar           1 <1>                0.0000
     16 C16          0.6432 -16.9582  14.6899 C.ar           1 <1>                0.0000
     17 C17          0.4133 -18.2824  14.3718 C.ar           1 <1>                0.0000
     18 H18          0.2633 -22.0704  11.2301 H              1 <1>                0.0000
     19 H19         -1.4584 -22.0664  11.6949 H              1 <1>                0.0000
     20 H20         -0.4117 -19.7662  11.7051 H              1 <1>                0.0000
     21 H21         -1.0747 -20.2500  13.2851 H              1 <1>                0.0000
     22 H22          2.1532 -20.9385  14.7959 H              1 <1>                0.0000
     23 H23          0.3913 -20.9202  15.0517 H              1 <1>                0.0000
     24 H24          1.1094 -23.2361  14.7977 H              1 <1>                0.0000
     25 H25          1.9553 -22.8445  13.2774 H              1 <1>                0.0000
     26 H26          2.9568 -18.7524  12.1904 H              1 <1>                0.0000
     27 H27          3.3515 -16.3904  12.7575 H              1 <1>                0.0000
     28 H28          1.8732 -15.2423  14.3554 H              1 <1>                0.0000
     29 H29         -0.0036 -16.4516  15.3907 H              1 <1>                0.0000
     30 H30         -0.4107 -18.8122  14.8264 H              1 <1>                0.0000
@<TRIPOS>BOND
    1    1    2 ar    
    2    2    3 ar    
    3    2    4 1     
    4    4    5 2     
    5    4    6 am    
    6    6    7 1     
    7    6   11 1     
    8    7    8 1     
    9    7   18 1     
   10    7   19 1     
   11    8    9 1     
   12    8   20 1     
   13    8   21 1     
   14    9   10 1     
   15    9   12 1     
   16   10   11 1     
   17   10   22 1     
   18   10   23 1     
   19   11   24 1     
   20   11   25 1     
   21   12   13 ar    
   22   12   17 ar    
   23   13   14 ar    
   24   13   26 1     
   25   14   15 ar    
   26   14   27 1     
   27   15   16 ar    
   28   15   28 1     
   29   16   17 ar    
   30   16   29 1     
   31   17   30 1     
@<TRIPOS>SUBSTRUCTURE
      1 ****           1
@<TRIPOS>COMMENT
> <Gold.Version>
2022.2.0

> <Gold.Id.Protein>
3pbl|protein|mol2

> <Gold.Protein.RotatedTorsions>
[ 1303 1298 1297 1294 ] final  -27.48 input  179.99 | X-H torsion
[ 2461 2456 2455 2452 ] final   97.50 input   30.03 | X-H torsion
[ 2515 2510 2509 2506 ] final -108.82 input  -89.99 | X-H torsion
[ 3721 3712 3711 3710 ] final   24.17 input -179.91 | X-H torsion
[ 3841 3832 3831 3830 ] final -126.56 input -179.91 | X-H torsion
[ 3767 3762 3761 3758 ] final  119.93 input  -89.99 | X-H torsion
[ 2472 2467 2466 2463 ] final -144.57 input  -89.97 | X-H torsion

> <Gold.Protein.ActiveResidues>
 VAL82   VAL86   LEU89   PHE106  VAL107  ASP110  VAL111  MET112  CYS114  THR115 
 CYS181  SER182  ILE183  PHE188  VAL189  ILE190  SER192  SER193  SER196  TRP342 
 PHE345  PHE346  HIS349  VAL350  TYR365  THR369  GLY372  TYR373 

> <Gold.Protein.RotatedAtoms>
    3.3333   -9.4716    3.8551 H   0  0  0  0  0  0  0  0  0  0  0  0  # atno 1303 bound_to 1298
    2.1574   -8.3805    7.8122 H   0  0  0  0  0  0  0  0  0  0  0  0  # atno 2461 bound_to 2456
   -4.8967   -5.4632    9.3670 H   0  0  0  0  0  0  0  0  0  0  0  0  # atno 2472 bound_to 2467
    2.7652   -9.1272    4.8421 H   0  0  0  0  0  0  0  0  0  0  0  0  # atno 2515 bound_to 2510
   -2.4742  -18.0339   13.8882 H   0  0  0  0  0  0  0  0  0  0  0  0  # atno 3721 bound_to 3712
   -3.9552  -23.1895   10.9028 H   0  0  0  0  0  0  0  0  0  0  0  0  # atno 3767 bound_to 3762
    2.3133  -19.6136    8.4198 H   0  0  0  0  0  0  0  0  0  0  0  0  # atno 3841 bound_to 3832
    4.5821   -8.5515    4.3652 LP  0  0  0  0  0  0  0  0  0  0  0  0  # atno 4297 bound_to 1298
    4.4471  -10.0981    4.8715 LP  0  0  0  0  0  0  0  0  0  0  0  0  # atno 4298 bound_to 1298
    0.7153   -8.1518    7.0804 LP  0  0  0  0  0  0  0  0  0  0  0  0  # atno 4299 bound_to 2456
    0.8653   -9.2758    8.2555 LP  0  0  0  0  0  0  0  0  0  0  0  0  # atno 4300 bound_to 2456
    2.0680   -8.3456    6.0946 LP  0  0  0  0  0  0  0  0  0  0  0  0  # atno 4301 bound_to 2510
    2.4633   -7.5260    4.7387 LP  0  0  0  0  0  0  0  0  0  0  0  0  # atno 4302 bound_to 2510
   -3.2782  -16.9269   14.7285 LP  0  0  0  0  0  0  0  0  0  0  0  0  # atno 4306 bound_to 3712
   -3.3931  -16.9790   13.1004 LP  0  0  0  0  0  0  0  0  0  0  0  0  # atno 4307 bound_to 3712
    3.0193  -20.9759    8.8907 LP  0  0  0  0  0  0  0  0  0  0  0  0  # atno 4314 bound_to 3832
    1.5379  -20.5727    9.4469 LP  0  0  0  0  0  0  0  0  0  0  0  0  # atno 4315 bound_to 3832
   -5.3240  -22.7164   10.1482 LP  0  0  0  0  0  0  0  0  0  0  0  0  # atno 4318 bound_to 3762
   -4.8480  -21.9694   11.5201 LP  0  0  0  0  0  0  0  0  0  0  0  0  # atno 4319 bound_to 3762
   -5.1722   -4.9437    7.8437 LP  0  0  0  0  0  0  0  0  0  0  0  0  # atno 4320 bound_to 2467
   -3.6481   -4.9868    8.4286 LP  0  0  0  0  0  0  0  0  0  0  0  0  # atno 4321 bound_to 2467

> <Gold.Score>
     Score     S(PLP)   S(hbond)     S(cho)   S(metal)  DE(clash)   DE(tors)     intcor
     47.55     -44.89       1.00       0.00       0.00       0.00       0.84       1.34

> <Gold.PLP.Fitness>
47.5533

> <Gold.PLP.PLP>
-44.8912

> <Gold.PLP.part.hbond>
-2.1534

> <Gold.PLP.part.metal>
0.0000

> <Gold.PLP.part.buried>
-6.4828

> <Gold.PLP.part.nonpolar>
-36.7304

> <Gold.PLP.part.repulsive>
0.3853

> <Gold.PLP.ligand.clash>
0.0000

> <Gold.PLP.ligand.torsion>
0.8400

> <Gold.PLP.Chemscore.Hbond>
1.0000

> <Gold.PLP.Chemscore.CHOScore>
0.0000

> <Gold.PLP.Chemscore.Metal>
0.0000

> <Gold.Chemscore.Hbonds>
donor molecule, donor type, donor heavy atom, donor atom, acceptor molecule, acceptor atom, score
      P1  H  3762  3767       L1     3  1.00

> <Gold.PLP.Chemscore.Internal.Correction>
1.3420

