#       Name:                EN300-218565_i001
#       Creating user name   fsindt
#       Creation time:       Tue Feb 28 07:51:34 2023


#       File generated by GOLD software.
#

@<TRIPOS>MOLECULE
EN300-218565_i001|acide_2|mol2|3780|dock20
    30    31     1
SMALL
USER_CHARGES


@<TRIPOS>ATOM
      1 O1           0.5736 -15.2962  11.9704 O.co2          1 <1>               -1.0000
      2 C2           1.3446 -15.9926  12.6101 C.2            1 <1>                0.0000
      3 O3           2.4856 -16.1633  12.2129 O.co2          1 <1>                0.0000
      4 C4           0.8928 -16.6326  13.8856 C.2            1 <1>                0.0000
      5 O5           0.2662 -15.9868  14.6994 O.2            1 <1>                0.0000
      6 N6           1.1820 -17.9260  14.1300 N.am           1 <1>                0.0000
      7 C7           0.7246 -18.5817  15.3646 C.3            1 <1>                0.0000
      8 C8           0.0142 -19.8863  14.9886 C.3            1 <1>                0.0000
      9 N9           0.9023 -20.6985  14.1464 N.3            1 <1>                0.0000
     10 C10          1.2041 -20.0188  12.8796 C.3            1 <1>                0.0000
     11 C11          1.9580 -18.7211  13.1663 C.3            1 <1>                0.0000
     12 C12          0.3565 -21.9637  13.9177 C.ar           1 <1>                0.0000
     13 C13          0.7479 -23.0425  14.7004 C.ar           1 <1>                0.0000
     14 C14          0.2057 -24.2920  14.4719 C.ar           1 <1>                0.0000
     15 C15         -0.7258 -24.4698  13.4654 C.ar           1 <1>                0.0000
     16 C16         -1.1177 -23.3979  12.6845 C.ar           1 <1>                0.0000
     17 C17         -0.5834 -22.1447  12.9110 C.ar           1 <1>                0.0000
     18 H18          1.5814 -18.8016  16.0014 H              1 <1>                0.0000
     19 H19          0.0315 -17.9263  15.8920 H              1 <1>                0.0000
     20 H20         -0.2342 -20.4394  15.8944 H              1 <1>                0.0000
     21 H21         -0.8993 -19.6579  14.4394 H              1 <1>                0.0000
     22 H22          1.8188 -20.6678  12.2559 H              1 <1>                0.0000
     23 H23          0.2742 -19.7884  12.3598 H              1 <1>                0.0000
     24 H24          2.0831 -18.1582  12.2414 H              1 <1>                0.0000
     25 H25          2.9343 -18.9515  13.5929 H              1 <1>                0.0000
     26 H26          1.4756 -22.9044  15.4864 H              1 <1>                0.0000
     27 H27          0.5100 -25.1313  15.0798 H              1 <1>                0.0000
     28 H28         -1.1479 -25.4481  13.2887 H              1 <1>                0.0000
     29 H29         -1.8453 -23.5402  11.8993 H              1 <1>                0.0000
     30 H30         -0.8902 -21.3080  12.3010 H              1 <1>                0.0000
@<TRIPOS>BOND
    1    1    2 ar    
    2    2    3 ar    
    3    2    4 1     
    4    4    5 2     
    5    4    6 am    
    6    6    7 1     
    7    6   11 1     
    8    7    8 1     
    9    7   18 1     
   10    7   19 1     
   11    8    9 1     
   12    8   20 1     
   13    8   21 1     
   14    9   10 1     
   15    9   12 1     
   16   10   11 1     
   17   10   22 1     
   18   10   23 1     
   19   11   24 1     
   20   11   25 1     
   21   12   13 ar    
   22   12   17 ar    
   23   13   14 ar    
   24   13   26 1     
   25   14   15 ar    
   26   14   27 1     
   27   15   16 ar    
   28   15   28 1     
   29   16   17 ar    
   30   16   29 1     
   31   17   30 1     
@<TRIPOS>SUBSTRUCTURE
      1 ****           1
@<TRIPOS>COMMENT
> <Gold.Version>
2022.2.0

> <Gold.Id.Protein>
3pbl|protein|mol2

> <Gold.Protein.RotatedTorsions>
[ 1303 1298 1297 1294 ] final  -34.05 input  179.99 | X-H torsion
[ 2461 2456 2455 2452 ] final  116.58 input   30.03 | X-H torsion
[ 2515 2510 2509 2506 ] final  138.74 input  -89.99 | X-H torsion
[ 3721 3712 3711 3710 ] final   42.95 input -179.91 | X-H torsion
[ 3841 3832 3831 3830 ] final  -67.47 input -179.91 | X-H torsion
[ 3767 3762 3761 3758 ] final -120.40 input  -89.99 | X-H torsion
[ 2472 2467 2466 2463 ] final  131.51 input  -89.97 | X-H torsion

> <Gold.Protein.ActiveResidues>
 VAL82   VAL86   LEU89   PHE106  VAL107  ASP110  VAL111  MET112  CYS114  THR115 
 CYS181  SER182  ILE183  PHE188  VAL189  ILE190  SER192  SER193  SER196  TRP342 
 PHE345  PHE346  HIS349  VAL350  TYR365  THR369  GLY372  TYR373 

> <Gold.Protein.RotatedAtoms>
    3.3474   -9.3688    3.8249 H   0  0  0  0  0  0  0  0  0  0  0  0  # atno 1303 bound_to 1298
    2.1356   -8.6048    8.0288 H   0  0  0  0  0  0  0  0  0  0  0  0  # atno 2461 bound_to 2456
   -5.4815   -5.1420    8.2973 H   0  0  0  0  0  0  0  0  0  0  0  0  # atno 2472 bound_to 2467
    2.0944   -8.4670    6.0946 H   0  0  0  0  0  0  0  0  0  0  0  0  # atno 2515 bound_to 2510
   -2.5167  -18.0028   13.6106 H   0  0  0  0  0  0  0  0  0  0  0  0  # atno 3721 bound_to 3712
   -4.8431  -21.9703   11.5223 H   0  0  0  0  0  0  0  0  0  0  0  0  # atno 3767 bound_to 3762
    1.6561  -19.7486    8.9476 H   0  0  0  0  0  0  0  0  0  0  0  0  # atno 3841 bound_to 3832
    4.6527   -8.5983    4.4324 LP  0  0  0  0  0  0  0  0  0  0  0  0  # atno 4297 bound_to 1298
    4.3624  -10.1542    4.8345 LP  0  0  0  0  0  0  0  0  0  0  0  0  # atno 4298 bound_to 1298
    0.9882   -8.0077    7.0316 LP  0  0  0  0  0  0  0  0  0  0  0  0  # atno 4299 bound_to 2456
    0.6142   -9.1956    8.0878 LP  0  0  0  0  0  0  0  0  0  0  0  0  # atno 4300 bound_to 2456
    2.4102   -7.4736    4.8380 LP  0  0  0  0  0  0  0  0  0  0  0  0  # atno 4301 bound_to 2510
    2.7923   -9.0584    4.7422 LP  0  0  0  0  0  0  0  0  0  0  0  0  # atno 4302 bound_to 2510
   -3.1261  -17.1743   14.8435 LP  0  0  0  0  0  0  0  0  0  0  0  0  # atno 4306 bound_to 3712
   -3.4960  -16.7675   13.3059 LP  0  0  0  0  0  0  0  0  0  0  0  0  # atno 4307 bound_to 3712
    3.0112  -20.2700    8.2636 LP  0  0  0  0  0  0  0  0  0  0  0  0  # atno 4314 bound_to 3832
    2.3052  -21.1226    9.4642 LP  0  0  0  0  0  0  0  0  0  0  0  0  # atno 4315 bound_to 3832
   -3.9573  -23.1923   10.8987 LP  0  0  0  0  0  0  0  0  0  0  0  0  # atno 4318 bound_to 3762
   -5.3270  -22.7122   10.1503 LP  0  0  0  0  0  0  0  0  0  0  0  0  # atno 4319 bound_to 3762
   -3.9190   -4.8380    7.9331 LP  0  0  0  0  0  0  0  0  0  0  0  0  # atno 4320 bound_to 2467
   -4.3165   -5.4136    9.4087 LP  0  0  0  0  0  0  0  0  0  0  0  0  # atno 4321 bound_to 2467

> <Gold.Score>
     Score     S(PLP)   S(hbond)     S(cho)   S(metal)  DE(clash)   DE(tors)     intcor
     41.46     -39.80       1.00       0.00       0.00       0.00       1.34       1.34

> <Gold.PLP.Fitness>
41.4602

> <Gold.PLP.PLP>
-39.7971

> <Gold.PLP.part.hbond>
-1.0000

> <Gold.PLP.part.metal>
0.0000

> <Gold.PLP.part.buried>
-6.5090

> <Gold.PLP.part.nonpolar>
-34.5909

> <Gold.PLP.part.repulsive>
1.4916

> <Gold.PLP.ligand.clash>
0.0000

> <Gold.PLP.ligand.torsion>
1.3395

> <Gold.PLP.Chemscore.Hbond>
1.0000

> <Gold.PLP.Chemscore.CHOScore>
0.0000

> <Gold.PLP.Chemscore.Metal>
0.0000

> <Gold.Chemscore.Hbonds>
donor molecule, donor type, donor heavy atom, donor atom, acceptor molecule, acceptor atom, score
      P1  H  2305  2313       L1     5  1.00

> <Gold.PLP.Chemscore.Internal.Correction>
1.3420

