#       Name:                EN300-218565_i001
#       Creating user name   fsindt
#       Creation time:       Tue Feb 28 07:51:26 2023


#       File generated by GOLD software.
#

@<TRIPOS>MOLECULE
EN300-218565_i001|acide_2|mol2|3780|dock11
    30    31     1
SMALL
USER_CHARGES


@<TRIPOS>ATOM
      1 O1          -0.3532 -24.8958  14.6978 O.co2          1 <1>               -1.0000
      2 C2          -1.3866 -24.4149  14.2622 C.2            1 <1>                0.0000
      3 O3          -2.4455 -24.6280  14.8298 O.co2          1 <1>                0.0000
      4 C4          -1.3544 -23.5582  13.0351 C.2            1 <1>                0.0000
      5 O5          -2.2018 -23.6948  12.1777 O.2            1 <1>                0.0000
      6 N6          -0.3842 -22.6353  12.8828 N.am           1 <1>                0.0000
      7 C7          -0.3495 -21.7649  11.6976 C.3            1 <1>                0.0000
      8 C8          -0.2266 -20.3107  12.1650 C.3            1 <1>                0.0000
      9 N9           0.9293 -20.1842  13.0625 N.3            1 <1>                0.0000
     10 C10          0.7508 -20.9895  14.2781 C.3            1 <1>                0.0000
     11 C11          0.6644 -22.4674  13.9003 C.3            1 <1>                0.0000
     12 C12          1.1724 -18.8459  13.3800 C.ar           1 <1>                0.0000
     13 C13          2.3153 -18.2146  12.9058 C.ar           1 <1>                0.0000
     14 C14          2.5523 -16.8910  13.2212 C.ar           1 <1>                0.0000
     15 C15          1.6535 -16.1944  14.0081 C.ar           1 <1>                0.0000
     16 C16          0.5147 -16.8200  14.4818 C.ar           1 <1>                0.0000
     17 C17          0.2690 -18.1418  14.1658 C.ar           1 <1>                0.0000
     18 H18          0.5089 -22.0242  11.0780 H              1 <1>                0.0000
     19 H19         -1.2687 -21.8891  11.1252 H              1 <1>                0.0000
     20 H20         -0.0887 -19.6613  11.3005 H              1 <1>                0.0000
     21 H21         -1.1333 -20.0216  12.6966 H              1 <1>                0.0000
     22 H22          1.5976 -20.8324  14.9461 H              1 <1>                0.0000
     23 H23         -0.1694 -20.6911  14.7803 H              1 <1>                0.0000
     24 H24          0.4180 -23.0573  14.7831 H              1 <1>                0.0000
     25 H25          1.6194 -22.7972  13.4911 H              1 <1>                0.0000
     26 H26          3.0178 -18.7581  12.2915 H              1 <1>                0.0000
     27 H27          3.4409 -16.3996  12.8532 H              1 <1>                0.0000
     28 H28          1.8414 -15.1596  14.2536 H              1 <1>                0.0000
     29 H29         -0.1851 -16.2731  15.0961 H              1 <1>                0.0000
     30 H30         -0.6208 -18.6296  14.5357 H              1 <1>                0.0000
@<TRIPOS>BOND
    1    1    2 ar    
    2    2    3 ar    
    3    2    4 1     
    4    4    5 2     
    5    4    6 am    
    6    6    7 1     
    7    6   11 1     
    8    7    8 1     
    9    7   18 1     
   10    7   19 1     
   11    8    9 1     
   12    8   20 1     
   13    8   21 1     
   14    9   10 1     
   15    9   12 1     
   16   10   11 1     
   17   10   22 1     
   18   10   23 1     
   19   11   24 1     
   20   11   25 1     
   21   12   13 ar    
   22   12   17 ar    
   23   13   14 ar    
   24   13   26 1     
   25   14   15 ar    
   26   14   27 1     
   27   15   16 ar    
   28   15   28 1     
   29   16   17 ar    
   30   16   29 1     
   31   17   30 1     
@<TRIPOS>SUBSTRUCTURE
      1 ****           1
@<TRIPOS>COMMENT
> <Gold.Version>
2022.2.0

> <Gold.Id.Protein>
3pbl|protein|mol2

> <Gold.Protein.RotatedTorsions>
[ 1303 1298 1297 1294 ] final   92.59 input  179.99 | X-H torsion
[ 2461 2456 2455 2452 ] final  -56.50 input   30.03 | X-H torsion
[ 2515 2510 2509 2506 ] final  -84.20 input  -89.99 | X-H torsion
[ 3721 3712 3711 3710 ] final   46.36 input -179.91 | X-H torsion
[ 3841 3832 3831 3830 ] final -120.30 input -179.91 | X-H torsion
[ 3767 3762 3761 3758 ] final  145.14 input  -89.99 | X-H torsion
[ 2472 2467 2466 2463 ] final  -11.42 input  -89.97 | X-H torsion

> <Gold.Protein.ActiveResidues>
 VAL82   VAL86   LEU89   PHE106  VAL107  ASP110  VAL111  MET112  CYS114  THR115 
 CYS181  SER182  ILE183  PHE188  VAL189  ILE190  SER192  SER193  SER196  TRP342 
 PHE345  PHE346  HIS349  VAL350  TYR365  THR369  GLY372  TYR373 

> <Gold.Protein.RotatedAtoms>
    4.4475  -10.0972    4.8721 H   0  0  0  0  0  0  0  0  0  0  0  0  # atno 1303 bound_to 1298
    0.3887   -8.5180    7.3322 H   0  0  0  0  0  0  0  0  0  0  0  0  # atno 2461 bound_to 2456
   -3.7085   -4.9231    8.2312 H   0  0  0  0  0  0  0  0  0  0  0  0  # atno 2472 bound_to 2467
    2.8300   -8.8579    4.5509 H   0  0  0  0  0  0  0  0  0  0  0  0  # atno 2515 bound_to 2510
   -2.5291  -17.9886   13.5625 H   0  0  0  0  0  0  0  0  0  0  0  0  # atno 3721 bound_to 3712
   -3.9099  -22.9519   11.2358 H   0  0  0  0  0  0  0  0  0  0  0  0  # atno 3767 bound_to 3762
    2.2279  -19.5942    8.4553 H   0  0  0  0  0  0  0  0  0  0  0  0  # atno 3841 bound_to 3832
    3.3333   -9.4728    3.8549 LP  0  0  0  0  0  0  0  0  0  0  0  0  # atno 4297 bound_to 1298
    4.5812   -8.5511    4.3644 LP  0  0  0  0  0  0  0  0  0  0  0  0  # atno 4298 bound_to 1298
    1.3960   -9.2345    8.3996 LP  0  0  0  0  0  0  0  0  0  0  0  0  # atno 4299 bound_to 2456
    1.9528   -8.0557    7.4163 LP  0  0  0  0  0  0  0  0  0  0  0  0  # atno 4300 bound_to 2456
    2.1738   -8.7297    6.0404 LP  0  0  0  0  0  0  0  0  0  0  0  0  # atno 4301 bound_to 2510
    2.2928   -7.4113    5.0843 LP  0  0  0  0  0  0  0  0  0  0  0  0  # atno 4302 bound_to 2510
   -3.0976  -17.2226   14.8540 LP  0  0  0  0  0  0  0  0  0  0  0  0  # atno 4306 bound_to 3712
   -3.5103  -16.7355   13.3509 LP  0  0  0  0  0  0  0  0  0  0  0  0  # atno 4307 bound_to 3712
    3.0607  -20.9186    8.8137 LP  0  0  0  0  0  0  0  0  0  0  0  0  # atno 4314 bound_to 3832
    1.5951  -20.6524    9.4828 LP  0  0  0  0  0  0  0  0  0  0  0  0  # atno 4315 bound_to 3832
   -5.0459  -23.0079   10.0641 LP  0  0  0  0  0  0  0  0  0  0  0  0  # atno 4318 bound_to 3762
   -5.1713  -21.9154   11.2713 LP  0  0  0  0  0  0  0  0  0  0  0  0  # atno 4319 bound_to 3762
   -4.6879   -5.4594    9.4226 LP  0  0  0  0  0  0  0  0  0  0  0  0  # atno 4320 bound_to 2467
   -5.3204   -5.0110    7.9853 LP  0  0  0  0  0  0  0  0  0  0  0  0  # atno 4321 bound_to 2467

> <Gold.Score>
     Score     S(PLP)   S(hbond)     S(cho)   S(metal)  DE(clash)   DE(tors)     intcor
     44.10     -41.31       1.00       0.00       0.00       0.00       0.78       1.34

> <Gold.PLP.Fitness>
44.0972

> <Gold.PLP.PLP>
-41.3113

> <Gold.PLP.part.hbond>
-1.0000

> <Gold.PLP.part.metal>
0.0000

> <Gold.PLP.part.buried>
-5.9340

> <Gold.PLP.part.nonpolar>
-34.7448

> <Gold.PLP.part.repulsive>
0.3986

> <Gold.PLP.ligand.clash>
0.0000

> <Gold.PLP.ligand.torsion>
0.7781

> <Gold.PLP.Chemscore.Hbond>
1.0000

> <Gold.PLP.Chemscore.CHOScore>
0.0000

> <Gold.PLP.Chemscore.Metal>
0.0000

> <Gold.Chemscore.Hbonds>
donor molecule, donor type, donor heavy atom, donor atom, acceptor molecule, acceptor atom, score
      P1  H  3762  3767       L1     5  1.00

> <Gold.PLP.Chemscore.Internal.Correction>
1.3420

