#       Name:                EN300-218565_i001
#       Creating user name   fsindt
#       Creation time:       Tue Feb 28 07:51:20 2023


#       File generated by GOLD software.
#

@<TRIPOS>MOLECULE
EN300-218565_i001|acide_2|mol2|3780|dock3
    30    31     1
SMALL
USER_CHARGES


@<TRIPOS>ATOM
      1 O1           2.5995 -17.3903  14.6398 O.co2          1 <1>               -1.0000
      2 C2           1.6009 -17.9668  14.2405 C.2            1 <1>                0.0000
      3 O3           1.5845 -19.1852  14.1759 O.co2          1 <1>                0.0000
      4 C4           0.3938 -17.1797  13.8357 C.2            1 <1>                0.0000
      5 O5          -0.7126 -17.5546  14.1634 O.2            1 <1>                0.0000
      6 N6           0.5358 -16.0548  13.1073 N.am           1 <1>                0.0000
      7 C7           1.8656 -15.5970  12.6767 C.3            1 <1>                0.0000
      8 C8           1.8246 -15.3332  11.1677 C.3            1 <1>                0.0000
      9 N9           0.7222 -14.4109  10.8649 N.3            1 <1>                0.0000
     10 C10         -0.5774 -15.0020  11.2110 C.3            1 <1>                0.0000
     11 C11         -0.6354 -15.2556  12.7165 C.3            1 <1>                0.0000
     12 C12          0.7522 -14.0177   9.5249 C.ar           1 <1>                0.0000
     13 C13          0.8261 -12.6700   9.1965 C.ar           1 <1>                0.0000
     14 C14          0.8561 -12.2848   7.8706 C.ar           1 <1>                0.0000
     15 C15          0.8127 -13.2389   6.8705 C.ar           1 <1>                0.0000
     16 C16          0.7392 -14.5814   7.1941 C.ar           1 <1>                0.0000
     17 C17          0.7141 -14.9738   8.5180 C.ar           1 <1>                0.0000
     18 H18          2.1244 -14.6779  13.2022 H              1 <1>                0.0000
     19 H19          2.6059 -16.3671  12.8937 H              1 <1>                0.0000
     20 H20          2.7681 -14.8890  10.8504 H              1 <1>                0.0000
     21 H21          1.6684 -16.2731  10.6382 H              1 <1>                0.0000
     22 H22         -1.3760 -14.3175  10.9251 H              1 <1>                0.0000
     23 H23         -0.7002 -15.9464  10.6810 H              1 <1>                0.0000
     24 H24         -1.5488 -15.7975  12.9617 H              1 <1>                0.0000
     25 H25         -0.6165 -14.3046  13.2490 H              1 <1>                0.0000
     26 H26          0.8597 -11.9244   9.9770 H              1 <1>                0.0000
     27 H27          0.9132 -11.2371   7.6145 H              1 <1>                0.0000
     28 H28          0.8360 -12.9348   5.8345 H              1 <1>                0.0000
     29 H29          0.7054 -15.3239   6.4106 H              1 <1>                0.0000
     30 H30          0.6570 -16.0224   8.7699 H              1 <1>                0.0000
@<TRIPOS>BOND
    1    1    2 ar    
    2    2    3 ar    
    3    2    4 1     
    4    4    5 2     
    5    4    6 am    
    6    6    7 1     
    7    6   11 1     
    8    7    8 1     
    9    7   18 1     
   10    7   19 1     
   11    8    9 1     
   12    8   20 1     
   13    8   21 1     
   14    9   10 1     
   15    9   12 1     
   16   10   11 1     
   17   10   22 1     
   18   10   23 1     
   19   11   24 1     
   20   11   25 1     
   21   12   13 ar    
   22   12   17 ar    
   23   13   14 ar    
   24   13   26 1     
   25   14   15 ar    
   26   14   27 1     
   27   15   16 ar    
   28   15   28 1     
   29   16   17 ar    
   30   16   29 1     
   31   17   30 1     
@<TRIPOS>SUBSTRUCTURE
      1 ****           1
@<TRIPOS>COMMENT
> <Gold.Version>
2022.2.0

> <Gold.Id.Protein>
3pbl|protein|mol2

> <Gold.Protein.RotatedTorsions>
[ 1303 1298 1297 1294 ] final -141.32 input  179.99 | X-H torsion
[ 2461 2456 2455 2452 ] final -130.61 input   30.03 | X-H torsion
[ 2515 2510 2509 2506 ] final  -39.48 input  -89.99 | X-H torsion
[ 3721 3712 3711 3710 ] final    8.62 input -179.91 | X-H torsion
[ 3841 3832 3831 3830 ] final -101.13 input -179.91 | X-H torsion
[ 3767 3762 3761 3758 ] final -143.45 input  -89.99 | X-H torsion
[ 2472 2467 2466 2463 ] final  178.09 input  -89.97 | X-H torsion

> <Gold.Protein.ActiveResidues>
 VAL82   VAL86   LEU89   PHE106  VAL107  ASP110  VAL111  MET112  CYS114  THR115 
 CYS181  SER182  ILE183  PHE188  VAL189  ILE190  SER192  SER193  SER196  TRP342 
 PHE345  PHE346  HIS349  VAL350  TYR365  THR369  GLY372  TYR373 

> <Gold.Protein.RotatedAtoms>
    4.5100   -8.5175    4.3025 H   0  0  0  0  0  0  0  0  0  0  0  0  # atno 1303 bound_to 1298
    0.7019   -9.2343    8.1571 H   0  0  0  0  0  0  0  0  0  0  0  0  # atno 2461 bound_to 2456
   -5.3638   -5.3801    8.9940 H   0  0  0  0  0  0  0  0  0  0  0  0  # atno 2472 bound_to 2467
    2.7633   -8.1707    4.3577 H   0  0  0  0  0  0  0  0  0  0  0  0  # atno 2515 bound_to 2510
   -2.4736  -17.9990   14.1199 H   0  0  0  0  0  0  0  0  0  0  0  0  # atno 3721 bound_to 3712
   -4.5226  -22.1311   11.6384 H   0  0  0  0  0  0  0  0  0  0  0  0  # atno 3767 bound_to 3762
    1.9793  -19.5853    8.6012 H   0  0  0  0  0  0  0  0  0  0  0  0  # atno 3841 bound_to 3832
    4.5225  -10.0370    4.9002 LP  0  0  0  0  0  0  0  0  0  0  0  0  # atno 4297 bound_to 1298
    3.3295   -9.5672    3.8889 LP  0  0  0  0  0  0  0  0  0  0  0  0  # atno 4298 bound_to 1298
    2.1554   -8.5190    7.9499 LP  0  0  0  0  0  0  0  0  0  0  0  0  # atno 4299 bound_to 2456
    0.8803   -8.0551    7.0413 LP  0  0  0  0  0  0  0  0  0  0  0  0  # atno 4300 bound_to 2456
    2.4667   -9.2027    5.5877 LP  0  0  0  0  0  0  0  0  0  0  0  0  # atno 4301 bound_to 2510
    2.0666   -7.6259    5.7302 LP  0  0  0  0  0  0  0  0  0  0  0  0  # atno 4302 bound_to 2510
   -3.3893  -16.7581   14.5666 LP  0  0  0  0  0  0  0  0  0  0  0  0  # atno 4306 bound_to 3712
   -3.2826  -17.1881   12.9948 LP  0  0  0  0  0  0  0  0  0  0  0  0  # atno 4307 bound_to 3712
    3.1266  -20.7075    8.5839 LP  0  0  0  0  0  0  0  0  0  0  0  0  # atno 4314 bound_to 3832
    1.8163  -20.8738    9.5441 LP  0  0  0  0  0  0  0  0  0  0  0  0  # atno 4315 bound_to 3832
   -4.1267  -23.3146   10.5851 LP  0  0  0  0  0  0  0  0  0  0  0  0  # atno 4318 bound_to 3762
   -5.4780  -22.4291   10.3479 LP  0  0  0  0  0  0  0  0  0  0  0  0  # atno 4319 bound_to 3762
   -4.6121   -4.8155    7.6589 LP  0  0  0  0  0  0  0  0  0  0  0  0  # atno 4320 bound_to 2467
   -3.7411   -5.1980    8.9863 LP  0  0  0  0  0  0  0  0  0  0  0  0  # atno 4321 bound_to 2467

> <Gold.Score>
     Score     S(PLP)   S(hbond)     S(cho)   S(metal)  DE(clash)   DE(tors)     intcor
     45.24     -43.13       0.74       0.00       0.00       0.00       0.74       1.38

> <Gold.PLP.Fitness>
45.2373

> <Gold.PLP.PLP>
-43.1345

> <Gold.PLP.part.hbond>
-1.0000

> <Gold.PLP.part.metal>
0.0000

> <Gold.PLP.part.buried>
-3.2613

> <Gold.PLP.part.nonpolar>
-39.4497

> <Gold.PLP.part.repulsive>
0.1930

> <Gold.PLP.ligand.clash>
0.0000

> <Gold.PLP.ligand.torsion>
0.7418

> <Gold.PLP.Chemscore.Hbond>
0.7360

> <Gold.PLP.Chemscore.CHOScore>
0.0000

> <Gold.PLP.Chemscore.Metal>
0.0000

> <Gold.Chemscore.Hbonds>
donor molecule, donor type, donor heavy atom, donor atom, acceptor molecule, acceptor atom, score
      P1  H  3712  3721       L1     5  0.74

> <Gold.PLP.Chemscore.Internal.Correction>
1.3785

