#       Name:                EN300-218565_i001
#       Creating user name   fsindt
#       Creation time:       Tue Feb 28 07:51:21 2023


#       File generated by GOLD software.
#

@<TRIPOS>MOLECULE
EN300-218565_i001|acide_2|mol2|3780|dock5
    30    31     1
SMALL
USER_CHARGES


@<TRIPOS>ATOM
      1 O1           1.0748 -15.6005  14.4865 O.co2          1 <1>               -1.0000
      2 C2           1.7143 -16.2396  13.6671 C.2            1 <1>                0.0000
      3 O3           2.2254 -17.3009  13.9852 O.co2          1 <1>                0.0000
      4 C4           1.8665 -15.7249  12.2698 C.2            1 <1>                0.0000
      5 O5           2.9433 -15.7872  11.7144 O.2            1 <1>                0.0000
      6 N6           0.8075 -15.1921  11.6287 N.am           1 <1>                0.0000
      7 C7          -0.5002 -15.0823  12.2930 C.3            1 <1>                0.0000
      8 C8          -1.0002 -13.6410  12.1484 C.3            1 <1>                0.0000
      9 N9          -0.9910 -13.2631  10.7289 N.3            1 <1>                0.0000
     10 C10          0.3724 -13.2785  10.1822 C.3            1 <1>                0.0000
     11 C11          0.9303 -14.6993  10.2484 C.3            1 <1>                0.0000
     12 C12         -1.5923 -12.0168  10.5389 C.ar           1 <1>                0.0000
     13 C13         -0.8885 -10.8536  10.8237 C.ar           1 <1>                0.0000
     14 C14         -1.4860  -9.6230  10.6341 C.ar           1 <1>                0.0000
     15 C15         -2.7833  -9.5479  10.1612 C.ar           1 <1>                0.0000
     16 C16         -3.4868 -10.7040   9.8765 C.ar           1 <1>                0.0000
     17 C17         -2.8935 -11.9377  10.0589 C.ar           1 <1>                0.0000
     18 H18         -1.2082 -15.7645  11.8226 H              1 <1>                0.0000
     19 H19         -0.3960 -15.3294  13.3495 H              1 <1>                0.0000
     20 H20         -2.0157 -13.5675  12.5378 H              1 <1>                0.0000
     21 H21         -0.3465 -12.9714  12.7074 H              1 <1>                0.0000
     22 H22          0.3524 -12.9421   9.1456 H              1 <1>                0.0000
     23 H23          1.0070 -12.6140  10.7685 H              1 <1>                0.0000
     24 H24          1.9790 -14.6952   9.9514 H              1 <1>                0.0000
     25 H25          0.3608 -15.3477   9.5825 H              1 <1>                0.0000
     26 H26          0.1246 -10.9115  11.1934 H              1 <1>                0.0000
     27 H27         -0.9395  -8.7182  10.8558 H              1 <1>                0.0000
     28 H28         -3.2482  -8.5843  10.0141 H              1 <1>                0.0000
     29 H29         -4.4998 -10.6418   9.5074 H              1 <1>                0.0000
     30 H30         -3.4434 -12.8402   9.8361 H              1 <1>                0.0000
@<TRIPOS>BOND
    1    1    2 ar    
    2    2    3 ar    
    3    2    4 1     
    4    4    5 2     
    5    4    6 am    
    6    6    7 1     
    7    6   11 1     
    8    7    8 1     
    9    7   18 1     
   10    7   19 1     
   11    8    9 1     
   12    8   20 1     
   13    8   21 1     
   14    9   10 1     
   15    9   12 1     
   16   10   11 1     
   17   10   22 1     
   18   10   23 1     
   19   11   24 1     
   20   11   25 1     
   21   12   13 ar    
   22   12   17 ar    
   23   13   14 ar    
   24   13   26 1     
   25   14   15 ar    
   26   14   27 1     
   27   15   16 ar    
   28   15   28 1     
   29   16   17 ar    
   30   16   29 1     
   31   17   30 1     
@<TRIPOS>SUBSTRUCTURE
      1 ****           1
@<TRIPOS>COMMENT
> <Gold.Version>
2022.2.0

> <Gold.Id.Protein>
3pbl|protein|mol2

> <Gold.Protein.RotatedTorsions>
[ 1303 1298 1297 1294 ] final -126.97 input  179.99 | X-H torsion
[ 2461 2456 2455 2452 ] final   64.45 input   30.03 | X-H torsion
[ 2515 2510 2509 2506 ] final   65.61 input  -89.99 | X-H torsion
[ 3721 3712 3711 3710 ] final  -26.84 input -179.91 | X-H torsion
[ 3841 3832 3831 3830 ] final  -57.16 input -179.91 | X-H torsion
[ 3767 3762 3761 3758 ] final  137.14 input  -89.99 | X-H torsion
[ 2472 2467 2466 2463 ] final   25.03 input  -89.97 | X-H torsion

> <Gold.Protein.ActiveResidues>
 VAL82   VAL86   LEU89   PHE106  VAL107  ASP110  VAL111  MET112  CYS114  THR115 
 CYS181  SER182  ILE183  PHE188  VAL189  ILE190  SER192  SER193  SER196  TRP342 
 PHE345  PHE346  HIS349  VAL350  TYR365  THR369  GLY372  TYR373 

> <Gold.Protein.RotatedAtoms>
    4.3272   -8.4770    4.1598 H   0  0  0  0  0  0  0  0  0  0  0  0  # atno 1303 bound_to 1298
    1.9626   -8.0624    7.4265 H   0  0  0  0  0  0  0  0  0  0  0  0  # atno 2461 bound_to 2456
   -4.0944   -4.8101    7.7998 H   0  0  0  0  0  0  0  0  0  0  0  0  # atno 2472 bound_to 2467
    2.1232   -7.4967    5.5305 H   0  0  0  0  0  0  0  0  0  0  0  0  # atno 2515 bound_to 2510
   -2.5863  -17.7337   14.5617 H   0  0  0  0  0  0  0  0  0  0  0  0  # atno 3721 bound_to 3712
   -3.9076  -23.0366   11.1351 H   0  0  0  0  0  0  0  0  0  0  0  0  # atno 3767 bound_to 3762
    1.6002  -19.8379    9.0621 H   0  0  0  0  0  0  0  0  0  0  0  0  # atno 3841 bound_to 3832
    4.6789   -9.8662    4.9426 LP  0  0  0  0  0  0  0  0  0  0  0  0  # atno 4297 bound_to 1298
    3.3560   -9.7785    3.9893 LP  0  0  0  0  0  0  0  0  0  0  0  0  # atno 4298 bound_to 1298
    0.3944   -8.5067    7.3229 LP  0  0  0  0  0  0  0  0  0  0  0  0  # atno 4299 bound_to 2456
    1.3810   -9.2389    8.3987 LP  0  0  0  0  0  0  0  0  0  0  0  0  # atno 4300 bound_to 2456
    2.8115   -8.4103    4.3654 LP  0  0  0  0  0  0  0  0  0  0  0  0  # atno 4301 bound_to 2510
    2.3621   -9.0926    5.7793 LP  0  0  0  0  0  0  0  0  0  0  0  0  # atno 4302 bound_to 2510
   -3.5499  -16.5591   14.0425 LP  0  0  0  0  0  0  0  0  0  0  0  0  # atno 4306 bound_to 3712
   -2.9919  -17.6934   13.0088 LP  0  0  0  0  0  0  0  0  0  0  0  0  # atno 4307 bound_to 3712
    2.9210  -20.1376    8.2009 LP  0  0  0  0  0  0  0  0  0  0  0  0  # atno 4314 bound_to 3832
    2.4598  -21.1519    9.3947 LP  0  0  0  0  0  0  0  0  0  0  0  0  # atno 4315 bound_to 3832
   -5.1440  -22.9208   10.0746 LP  0  0  0  0  0  0  0  0  0  0  0  0  # atno 4318 bound_to 3762
   -5.0755  -21.9178   11.3615 LP  0  0  0  0  0  0  0  0  0  0  0  0  # atno 4319 bound_to 3762
   -4.1125   -5.3647    9.3355 LP  0  0  0  0  0  0  0  0  0  0  0  0  # atno 4320 bound_to 2467
   -5.5100   -5.2187    8.5036 LP  0  0  0  0  0  0  0  0  0  0  0  0  # atno 4321 bound_to 2467

> <Gold.Score>
     Score     S(PLP)   S(hbond)     S(cho)   S(metal)  DE(clash)   DE(tors)     intcor
     49.35     -47.23       1.00       0.00       0.00       0.01       1.12       1.38

> <Gold.PLP.Fitness>
49.3476

> <Gold.PLP.PLP>
-47.2295

> <Gold.PLP.part.hbond>
-1.0000

> <Gold.PLP.part.metal>
0.0000

> <Gold.PLP.part.buried>
-0.0352

> <Gold.PLP.part.nonpolar>
-49.8106

> <Gold.PLP.part.repulsive>
2.8331

> <Gold.PLP.ligand.clash>
0.0134

> <Gold.PLP.ligand.torsion>
1.1235

> <Gold.PLP.Chemscore.Hbond>
1.0000

> <Gold.PLP.Chemscore.CHOScore>
0.0000

> <Gold.PLP.Chemscore.Metal>
0.0000

> <Gold.Chemscore.Hbonds>
donor molecule, donor type, donor heavy atom, donor atom, acceptor molecule, acceptor atom, score
      P1  H  2305  2313       L1     1  1.00

> <Gold.PLP.Chemscore.Internal.Correction>
1.3785

