#       Name:                EN300-218565_i001
#       Creating user name   fsindt
#       Creation time:       Tue Feb 28 07:51:31 2023


#       File generated by GOLD software.
#

@<TRIPOS>MOLECULE
EN300-218565_i001|acide_2|mol2|3780|dock17
    30    31     1
SMALL
USER_CHARGES


@<TRIPOS>ATOM
      1 O1           0.2804 -11.1083   7.3533 O.co2          1 <1>               -1.0000
      2 C2          -0.0191 -12.1743   7.8659 C.2            1 <1>                0.0000
      3 O3           0.2700 -13.2213   7.3099 O.co2          1 <1>                0.0000
      4 C4          -0.7355 -12.1979   9.1800 C.2            1 <1>                0.0000
      5 O5          -1.8005 -11.6294   9.3004 O.2            1 <1>                0.0000
      6 N6          -0.1975 -12.8505  10.2293 N.am           1 <1>                0.0000
      7 C7          -0.8974 -12.9087  11.5216 C.3            1 <1>                0.0000
      8 C8          -0.9669 -14.3718  11.9721 C.3            1 <1>                0.0000
      9 N9           0.3853 -14.9456  11.9717 N.3            1 <1>                0.0000
     10 C10          0.9567 -14.9623  10.6185 C.3            1 <1>                0.0000
     11 C11          1.1022 -13.5287  10.1107 C.3            1 <1>                0.0000
     12 C12          0.3862 -16.2255  12.5311 C.ar           1 <1>                0.0000
     13 C13         -0.4010 -17.2275  11.9779 C.ar           1 <1>                0.0000
     14 C14         -0.3973 -18.4919  12.5332 C.ar           1 <1>                0.0000
     15 C15          0.3887 -18.7612  13.6387 C.ar           1 <1>                0.0000
     16 C16          1.1735 -17.7659  14.1919 C.ar           1 <1>                0.0000
     17 C17          1.1786 -16.5006  13.6383 C.ar           1 <1>                0.0000
     18 H18         -0.3505 -12.3235  12.2608 H              1 <1>                0.0000
     19 H19         -1.9063 -12.5118  11.4097 H              1 <1>                0.0000
     20 H20         -1.3836 -14.4232  12.9781 H              1 <1>                0.0000
     21 H21         -1.6008 -14.9339  11.2863 H              1 <1>                0.0000
     22 H22          1.9352 -15.4420  10.6427 H              1 <1>                0.0000
     23 H23          0.2961 -15.5161   9.9515 H              1 <1>                0.0000
     24 H24          1.4172 -13.5399   9.0673 H              1 <1>                0.0000
     25 H25          1.8407 -12.9999  10.7133 H              1 <1>                0.0000
     26 H26         -1.0153 -17.0178  11.1148 H              1 <1>                0.0000
     27 H27         -1.0094 -19.2714  12.1039 H              1 <1>                0.0000
     28 H28          0.3894 -19.7507  14.0712 H              1 <1>                0.0000
     29 H29          1.7862 -17.9795  15.0552 H              1 <1>                0.0000
     30 H30          1.7920 -15.7239  14.0706 H              1 <1>                0.0000
@<TRIPOS>BOND
    1    1    2 ar    
    2    2    3 ar    
    3    2    4 1     
    4    4    5 2     
    5    4    6 am    
    6    6    7 1     
    7    6   11 1     
    8    7    8 1     
    9    7   18 1     
   10    7   19 1     
   11    8    9 1     
   12    8   20 1     
   13    8   21 1     
   14    9   10 1     
   15    9   12 1     
   16   10   11 1     
   17   10   22 1     
   18   10   23 1     
   19   11   24 1     
   20   11   25 1     
   21   12   13 ar    
   22   12   17 ar    
   23   13   14 ar    
   24   13   26 1     
   25   14   15 ar    
   26   14   27 1     
   27   15   16 ar    
   28   15   28 1     
   29   16   17 ar    
   30   16   29 1     
   31   17   30 1     
@<TRIPOS>SUBSTRUCTURE
      1 ****           1
@<TRIPOS>COMMENT
> <Gold.Version>
2022.2.0

> <Gold.Id.Protein>
3pbl|protein|mol2

> <Gold.Protein.RotatedTorsions>
[ 1303 1298 1297 1294 ] final  -88.94 input  179.99 | X-H torsion
[ 2461 2456 2455 2452 ] final -118.22 input   30.03 | X-H torsion
[ 2515 2510 2509 2506 ] final -157.18 input  -89.99 | X-H torsion
[ 3721 3712 3711 3710 ] final   55.45 input -179.91 | X-H torsion
[ 3841 3832 3831 3830 ] final -105.15 input -179.91 | X-H torsion
[ 3767 3762 3761 3758 ] final  166.55 input  -89.99 | X-H torsion
[ 2472 2467 2466 2463 ] final  132.40 input  -89.97 | X-H torsion

> <Gold.Protein.ActiveResidues>
 VAL82   VAL86   LEU89   PHE106  VAL107  ASP110  VAL111  MET112  CYS114  THR115 
 CYS181  SER182  ILE183  PHE188  VAL189  ILE190  SER192  SER193  SER196  TRP342 
 PHE345  PHE346  HIS349  VAL350  TYR365  THR369  GLY372  TYR373 

> <Gold.Protein.RotatedAtoms>
    3.8128   -8.6362    3.8641 H   0  0  0  0  0  0  0  0  0  0  0  0  # atno 1303 bound_to 1298
    0.5565   -9.1621    8.0342 H   0  0  0  0  0  0  0  0  0  0  0  0  # atno 2461 bound_to 2456
   -5.4850   -5.1471    8.3106 H   0  0  0  0  0  0  0  0  0  0  0  0  # atno 2472 bound_to 2467
    2.4830   -9.2142    5.5555 H   0  0  0  0  0  0  0  0  0  0  0  0  # atno 2515 bound_to 2510
   -2.5683  -17.9390   13.4408 H   0  0  0  0  0  0  0  0  0  0  0  0  # atno 3721 bound_to 3712
   -3.9914  -22.6991   11.4642 H   0  0  0  0  0  0  0  0  0  0  0  0  # atno 3767 bound_to 3762
    2.0290  -19.5808    8.5664 H   0  0  0  0  0  0  0  0  0  0  0  0  # atno 3841 bound_to 3832
    4.9060   -9.2986    4.8802 LP  0  0  0  0  0  0  0  0  0  0  0  0  # atno 4297 bound_to 1298
    3.6434  -10.1867    4.3474 LP  0  0  0  0  0  0  0  0  0  0  0  0  # atno 4298 bound_to 1298
    2.1122   -8.6670    8.0826 LP  0  0  0  0  0  0  0  0  0  0  0  0  # atno 4299 bound_to 2456
    1.0689   -7.9792    7.0314 LP  0  0  0  0  0  0  0  0  0  0  0  0  # atno 4300 bound_to 2456
    2.0600   -7.6503    5.7582 LP  0  0  0  0  0  0  0  0  0  0  0  0  # atno 4301 bound_to 2510
    2.7537   -8.1342    4.3613 LP  0  0  0  0  0  0  0  0  0  0  0  0  # atno 4302 bound_to 2510
   -3.0216  -17.3534   14.8654 LP  0  0  0  0  0  0  0  0  0  0  0  0  # atno 4306 bound_to 3712
   -3.5409  -16.6621   13.4801 LP  0  0  0  0  0  0  0  0  0  0  0  0  # atno 4307 bound_to 3712
    3.1207  -20.7555    8.6305 LP  0  0  0  0  0  0  0  0  0  0  0  0  # atno 4314 bound_to 3832
    1.7649  -20.8310    9.5376 LP  0  0  0  0  0  0  0  0  0  0  0  0  # atno 4315 bound_to 3832
   -4.7570  -23.2000   10.1114 LP  0  0  0  0  0  0  0  0  0  0  0  0  # atno 4318 bound_to 3762
   -5.3787  -21.9760   10.9957 LP  0  0  0  0  0  0  0  0  0  0  0  0  # atno 4319 bound_to 3762
   -3.9296   -4.8356    7.9232 LP  0  0  0  0  0  0  0  0  0  0  0  0  # atno 4320 bound_to 2467
   -4.3025   -5.4108    9.4053 LP  0  0  0  0  0  0  0  0  0  0  0  0  # atno 4321 bound_to 2467

> <Gold.Score>
     Score     S(PLP)   S(hbond)     S(cho)   S(metal)  DE(clash)   DE(tors)     intcor
     39.39     -37.70       0.85       0.00       0.00       0.00       1.10       1.34

> <Gold.PLP.Fitness>
39.3856

> <Gold.PLP.PLP>
-37.7041

> <Gold.PLP.part.hbond>
-1.0000

> <Gold.PLP.part.metal>
0.0000

> <Gold.PLP.part.buried>
-4.9423

> <Gold.PLP.part.nonpolar>
-32.4560

> <Gold.PLP.part.repulsive>
0.0708

> <Gold.PLP.ligand.clash>
0.0000

> <Gold.PLP.ligand.torsion>
1.1023

> <Gold.PLP.Chemscore.Hbond>
0.8480

> <Gold.PLP.Chemscore.CHOScore>
0.0000

> <Gold.PLP.Chemscore.Metal>
0.0000

> <Gold.Chemscore.Hbonds>
donor molecule, donor type, donor heavy atom, donor atom, acceptor molecule, acceptor atom, score
      P1  H  2456  2461       L1     1  0.85

> <Gold.PLP.Chemscore.Internal.Correction>
1.3420

