#       Name:                EN300-218565_i001
#       Creating user name   fsindt
#       Creation time:       Tue Feb 28 07:51:27 2023


#       File generated by GOLD software.
#

@<TRIPOS>MOLECULE
EN300-218565_i001|acide_2|mol2|3780|dock13
    30    31     1
SMALL
USER_CHARGES


@<TRIPOS>ATOM
      1 O1          -0.4214 -10.6970  10.9568 O.co2          1 <1>               -1.0000
      2 C2          -0.5105 -10.9631   9.7693 C.2            1 <1>                0.0000
      3 O3          -1.0090 -10.1583   8.9994 O.co2          1 <1>                0.0000
      4 C4          -0.0028 -12.2743   9.2558 C.2            1 <1>                0.0000
      5 O5           0.6546 -12.3131   8.2369 O.2            1 <1>                0.0000
      6 N6          -0.2759 -13.4116   9.9253 N.am           1 <1>                0.0000
      7 C7           0.2357 -14.7071   9.4530 C.3            1 <1>                0.0000
      8 C8           0.9354 -15.4096  10.6215 C.3            1 <1>                0.0000
      9 N9           0.0162 -15.4843  11.7648 N.3            1 <1>                0.0000
     10 C10         -0.3415 -14.1445  12.2496 C.3            1 <1>                0.0000
     11 C11         -1.0883 -13.3894  11.1512 C.3            1 <1>                0.0000
     12 C12          0.5574 -16.2603  12.7924 C.ar           1 <1>                0.0000
     13 C13          1.7648 -15.8982  13.3761 C.ar           1 <1>                0.0000
     14 C14          2.2968 -16.6675  14.3922 C.ar           1 <1>                0.0000
     15 C15          1.6290 -17.7971  14.8287 C.ar           1 <1>                0.0000
     16 C16          0.4268 -18.1603  14.2498 C.ar           1 <1>                0.0000
     17 C17         -0.1135 -17.3926  13.2368 C.ar           1 <1>                0.0000
     18 H18         -0.5926 -15.3211   9.0996 H              1 <1>                0.0000
     19 H19          0.9475 -14.5465   8.6433 H              1 <1>                0.0000
     20 H20          1.2240 -16.4166  10.3203 H              1 <1>                0.0000
     21 H21          1.8240 -14.8457  10.9054 H              1 <1>                0.0000
     22 H22         -0.9789 -14.2341  13.1291 H              1 <1>                0.0000
     23 H23          0.5648 -13.5983  12.5108 H              1 <1>                0.0000
     24 H24         -1.2545 -12.3584  11.4635 H              1 <1>                0.0000
     25 H25         -2.0448 -13.8752  10.9582 H              1 <1>                0.0000
     26 H26          2.2870 -15.0164  13.0355 H              1 <1>                0.0000
     27 H27          3.2357 -16.3868  14.8462 H              1 <1>                0.0000
     28 H28          2.0475 -18.3970  15.6232 H              1 <1>                0.0000
     29 H29         -0.0921 -19.0431  14.5930 H              1 <1>                0.0000
     30 H30         -1.0526 -17.6767  12.7853 H              1 <1>                0.0000
@<TRIPOS>BOND
    1    1    2 ar    
    2    2    3 ar    
    3    2    4 1     
    4    4    5 2     
    5    4    6 am    
    6    6    7 1     
    7    6   11 1     
    8    7    8 1     
    9    7   18 1     
   10    7   19 1     
   11    8    9 1     
   12    8   20 1     
   13    8   21 1     
   14    9   10 1     
   15    9   12 1     
   16   10   11 1     
   17   10   22 1     
   18   10   23 1     
   19   11   24 1     
   20   11   25 1     
   21   12   13 ar    
   22   12   17 ar    
   23   13   14 ar    
   24   13   26 1     
   25   14   15 ar    
   26   14   27 1     
   27   15   16 ar    
   28   15   28 1     
   29   16   17 ar    
   30   16   29 1     
   31   17   30 1     
@<TRIPOS>SUBSTRUCTURE
      1 ****           1
@<TRIPOS>COMMENT
> <Gold.Version>
2022.2.0

> <Gold.Id.Protein>
3pbl|protein|mol2

> <Gold.Protein.RotatedTorsions>
[ 1303 1298 1297 1294 ] final -160.02 input  179.99 | X-H torsion
[ 2461 2456 2455 2452 ] final -114.43 input   30.03 | X-H torsion
[ 2515 2510 2509 2506 ] final  129.20 input  -89.99 | X-H torsion
[ 3721 3712 3711 3710 ] final -103.52 input -179.91 | X-H torsion
[ 3841 3832 3831 3830 ] final -139.71 input -179.91 | X-H torsion
[ 3767 3762 3761 3758 ] final  177.00 input  -89.99 | X-H torsion
[ 2472 2467 2466 2463 ] final  177.24 input  -89.97 | X-H torsion

> <Gold.Protein.ActiveResidues>
 VAL82   VAL86   LEU89   PHE106  VAL107  ASP110  VAL111  MET112  CYS114  THR115 
 CYS181  SER182  ILE183  PHE188  VAL189  ILE190  SER192  SER193  SER196  TRP342 
 PHE345  PHE346  HIS349  VAL350  TYR365  THR369  GLY372  TYR373 

> <Gold.Protein.RotatedAtoms>
    4.7103   -8.6497    4.4930 H   0  0  0  0  0  0  0  0  0  0  0  0  # atno 1303 bound_to 1298
    0.5183   -9.1347    7.9935 H   0  0  0  0  0  0  0  0  0  0  0  0  # atno 2461 bound_to 2456
   -5.3713   -5.3768    8.9825 H   0  0  0  0  0  0  0  0  0  0  0  0  # atno 2472 bound_to 2467
    2.0625   -8.3136    6.0918 H   0  0  0  0  0  0  0  0  0  0  0  0  # atno 2515 bound_to 2510
   -3.1192  -16.8006   14.5817 H   0  0  0  0  0  0  0  0  0  0  0  0  # atno 3721 bound_to 3712
   -4.0684  -22.5697   11.5466 H   0  0  0  0  0  0  0  0  0  0  0  0  # atno 3767 bound_to 3762
    2.4928  -19.6794    8.3675 H   0  0  0  0  0  0  0  0  0  0  0  0  # atno 3841 bound_to 3832
    4.2826  -10.1963    4.7953 LP  0  0  0  0  0  0  0  0  0  0  0  0  # atno 4297 bound_to 1298
    3.3691   -9.2756    3.8032 LP  0  0  0  0  0  0  0  0  0  0  0  0  # atno 4298 bound_to 1298
    2.0907   -8.7119    8.1200 LP  0  0  0  0  0  0  0  0  0  0  0  0  # atno 4299 bound_to 2456
    1.1285   -7.9617    7.0347 LP  0  0  0  0  0  0  0  0  0  0  0  0  # atno 4300 bound_to 2456
    2.4773   -7.5421    4.7139 LP  0  0  0  0  0  0  0  0  0  0  0  0  # atno 4301 bound_to 2510
    2.7571   -9.1434    4.8692 LP  0  0  0  0  0  0  0  0  0  0  0  0  # atno 4302 bound_to 2510
   -3.3193  -17.1200   13.0211 LP  0  0  0  0  0  0  0  0  0  0  0  0  # atno 4306 bound_to 3712
   -2.6073  -18.2097   14.0071 LP  0  0  0  0  0  0  0  0  0  0  0  0  # atno 4307 bound_to 3712
    2.9035  -21.0731    9.0493 LP  0  0  0  0  0  0  0  0  0  0  0  0  # atno 4314 bound_to 3832
    1.4463  -20.3995    9.3486 LP  0  0  0  0  0  0  0  0  0  0  0  0  # atno 4315 bound_to 3832
   -4.6111  -23.2662   10.1728 LP  0  0  0  0  0  0  0  0  0  0  0  0  # atno 4318 bound_to 3762
   -5.4477  -22.0391   10.8518 LP  0  0  0  0  0  0  0  0  0  0  0  0  # atno 4319 bound_to 3762
   -4.5980   -4.8139    7.6590 LP  0  0  0  0  0  0  0  0  0  0  0  0  # atno 4320 bound_to 2467
   -3.7477   -5.2029    8.9978 LP  0  0  0  0  0  0  0  0  0  0  0  0  # atno 4321 bound_to 2467

> <Gold.Score>
     Score     S(PLP)   S(hbond)     S(cho)   S(metal)  DE(clash)   DE(tors)     intcor
     42.79     -39.97       1.00       0.00       0.00       0.00       0.76       1.34

> <Gold.PLP.Fitness>
42.7937

> <Gold.PLP.PLP>
-39.9707

> <Gold.PLP.part.hbond>
-1.0000

> <Gold.PLP.part.metal>
0.0000

> <Gold.PLP.part.buried>
-3.0527

> <Gold.PLP.part.nonpolar>
-37.1802

> <Gold.PLP.part.repulsive>
0.1412

> <Gold.PLP.ligand.clash>
0.0000

> <Gold.PLP.ligand.torsion>
0.7595

> <Gold.PLP.Chemscore.Hbond>
1.0000

> <Gold.PLP.Chemscore.CHOScore>
0.0000

> <Gold.PLP.Chemscore.Metal>
0.0000

> <Gold.Chemscore.Hbonds>
donor molecule, donor type, donor heavy atom, donor atom, acceptor molecule, acceptor atom, score
      P1  H  2456  2461       L1     3  1.00

> <Gold.PLP.Chemscore.Internal.Correction>
1.3420

