#       Name:                EN300-218565_i001
#       Creating user name   fsindt
#       Creation time:       Tue Feb 28 07:51:25 2023


#       File generated by GOLD software.
#

@<TRIPOS>MOLECULE
EN300-218565_i001|acide_2|mol2|3780|dock10
    30    31     1
SMALL
USER_CHARGES


@<TRIPOS>ATOM
      1 O1          -1.3375 -10.0969  11.0960 O.co2          1 <1>               -1.0000
      2 C2          -1.4056 -10.1486   9.8788 C.2            1 <1>                0.0000
      3 O3          -2.0258  -9.2953   9.2656 O.co2          1 <1>                0.0000
      4 C4          -0.7232 -11.2555   9.1373 C.2            1 <1>                0.0000
      5 O5          -0.1169 -11.0163   8.1141 O.2            1 <1>                0.0000
      6 N6          -0.7823 -12.5175   9.6064 N.am           1 <1>                0.0000
      7 C7          -0.0965 -13.6154   8.9080 C.3            1 <1>                0.0000
      8 C8           0.7593 -14.3794   9.9240 C.3            1 <1>                0.0000
      9 N9          -0.0816 -14.7923  11.0555 N.3            1 <1>                0.0000
     10 C10         -0.6218 -13.6283  11.7706 C.3            1 <1>                0.0000
     11 C11         -1.5291 -12.8325  10.8337 C.3            1 <1>                0.0000
     12 C12          0.6229 -15.6301  11.9231 C.ar           1 <1>                0.0000
     13 C13          1.9689 -15.3973  12.1755 C.ar           1 <1>                0.0000
     14 C14          2.6622 -16.2274  13.0344 C.ar           1 <1>                0.0000
     15 C15          2.0181 -17.2891  13.6429 C.ar           1 <1>                0.0000
     16 C16          0.6781 -17.5235  13.3937 C.ar           1 <1>                0.0000
     17 C17         -0.0225 -16.6942  12.5400 C.ar           1 <1>                0.0000
     18 H18         -0.8340 -14.2884   8.4708 H              1 <1>                0.0000
     19 H19          0.5420 -13.2083   8.1240 H              1 <1>                0.0000
     20 H20          1.1878 -15.2615   9.4483 H              1 <1>                0.0000
     21 H21          1.5608 -13.7337  10.2830 H              1 <1>                0.0000
     22 H22         -1.1949 -13.9658  12.6342 H              1 <1>                0.0000
     23 H23          0.1988 -12.9931  12.1039 H              1 <1>                0.0000
     24 H24         -1.8401 -11.9091  11.3221 H              1 <1>                0.0000
     25 H25         -2.4055 -13.4285  10.5791 H              1 <1>                0.0000
     26 H26          2.4726 -14.5686  11.7005 H              1 <1>                0.0000
     27 H27          3.7089 -16.0473  13.2308 H              1 <1>                0.0000
     28 H28          2.5627 -17.9368  14.3138 H              1 <1>                0.0000
     29 H29          0.1781 -18.3535  13.8705 H              1 <1>                0.0000
     30 H30         -1.0690 -16.8777  12.3462 H              1 <1>                0.0000
@<TRIPOS>BOND
    1    1    2 ar    
    2    2    3 ar    
    3    2    4 1     
    4    4    5 2     
    5    4    6 am    
    6    6    7 1     
    7    6   11 1     
    8    7    8 1     
    9    7   18 1     
   10    7   19 1     
   11    8    9 1     
   12    8   20 1     
   13    8   21 1     
   14    9   10 1     
   15    9   12 1     
   16   10   11 1     
   17   10   22 1     
   18   10   23 1     
   19   11   24 1     
   20   11   25 1     
   21   12   13 ar    
   22   12   17 ar    
   23   13   14 ar    
   24   13   26 1     
   25   14   15 ar    
   26   14   27 1     
   27   15   16 ar    
   28   15   28 1     
   29   16   17 ar    
   30   16   29 1     
   31   17   30 1     
@<TRIPOS>SUBSTRUCTURE
      1 ****           1
@<TRIPOS>COMMENT
> <Gold.Version>
2022.2.0

> <Gold.Id.Protein>
3pbl|protein|mol2

> <Gold.Protein.RotatedTorsions>
[ 1303 1298 1297 1294 ] final -105.97 input  179.99 | X-H torsion
[ 2461 2456 2455 2452 ] final -127.65 input   30.03 | X-H torsion
[ 2515 2510 2509 2506 ] final  130.48 input  -89.99 | X-H torsion
[ 3721 3712 3711 3710 ] final -144.91 input -179.91 | X-H torsion
[ 3841 3832 3831 3830 ] final -174.90 input -179.91 | X-H torsion
[ 3767 3762 3761 3758 ] final   39.23 input  -89.99 | X-H torsion
[ 2472 2467 2466 2463 ] final  -48.20 input  -89.97 | X-H torsion

> <Gold.Protein.ActiveResidues>
 VAL82   VAL86   LEU89   PHE106  VAL107  ASP110  VAL111  MET112  CYS114  THR115 
 CYS181  SER182  ILE183  PHE188  VAL189  ILE190  SER192  SER193  SER196  TRP342 
 PHE345  PHE346  HIS349  VAL350  TYR365  THR369  GLY372  TYR373 

> <Gold.Protein.RotatedAtoms>
    4.0398   -8.5184    3.9761 H   0  0  0  0  0  0  0  0  0  0  0  0  # atno 1303 bound_to 1298
    0.6646   -9.2196    8.1294 H   0  0  0  0  0  0  0  0  0  0  0  0  # atno 2461 bound_to 2456
   -3.6618   -5.1196    8.7908 H   0  0  0  0  0  0  0  0  0  0  0  0  # atno 2472 bound_to 2467
    2.0662   -8.3343    6.0936 H   0  0  0  0  0  0  0  0  0  0  0  0  # atno 2515 bound_to 2510
   -3.3152  -16.5387   14.0644 H   0  0  0  0  0  0  0  0  0  0  0  0  # atno 3721 bound_to 3712
   -4.8584  -23.1416   10.0824 H   0  0  0  0  0  0  0  0  0  0  0  0  # atno 3767 bound_to 3762
    2.9114  -19.9929    8.3890 H   0  0  0  0  0  0  0  0  0  0  0  0  # atno 3841 bound_to 3832
    4.8429   -9.5642    4.9394 LP  0  0  0  0  0  0  0  0  0  0  0  0  # atno 4297 bound_to 1298
    3.4795  -10.0390    4.1762 LP  0  0  0  0  0  0  0  0  0  0  0  0  # atno 4298 bound_to 1298
    2.1489   -8.5542    7.9828 LP  0  0  0  0  0  0  0  0  0  0  0  0  # atno 4299 bound_to 2456
    0.9241   -8.0345    7.0360 LP  0  0  0  0  0  0  0  0  0  0  0  0  # atno 4300 bound_to 2456
    2.4683   -7.5316    4.7298 LP  0  0  0  0  0  0  0  0  0  0  0  0  # atno 4301 bound_to 2510
    2.7624   -9.1332    4.8514 LP  0  0  0  0  0  0  0  0  0  0  0  0  # atno 4302 bound_to 2510
   -2.9834  -17.7073   13.0146 LP  0  0  0  0  0  0  0  0  0  0  0  0  # atno 4306 bound_to 3712
   -2.7168  -17.9248   14.6109 LP  0  0  0  0  0  0  0  0  0  0  0  0  # atno 4307 bound_to 3712
    2.4494  -21.1507    9.4000 LP  0  0  0  0  0  0  0  0  0  0  0  0  # atno 4314 bound_to 3832
    1.4168  -19.9598    8.9731 LP  0  0  0  0  0  0  0  0  0  0  0  0  # atno 4315 bound_to 3832
   -5.3170  -21.9445   11.0940 LP  0  0  0  0  0  0  0  0  0  0  0  0  # atno 4318 bound_to 3762
   -3.9520  -22.7891   11.3943 LP  0  0  0  0  0  0  0  0  0  0  0  0  # atno 4319 bound_to 3762
   -5.2222   -5.4247    9.1631 LP  0  0  0  0  0  0  0  0  0  0  0  0  # atno 4320 bound_to 2467
   -4.8328   -4.8492    7.6853 LP  0  0  0  0  0  0  0  0  0  0  0  0  # atno 4321 bound_to 2467

> <Gold.Score>
     Score     S(PLP)   S(hbond)     S(cho)   S(metal)  DE(clash)   DE(tors)     intcor
     45.05     -43.44       1.00       0.00       0.00       0.00       1.37       1.34

> <Gold.PLP.Fitness>
45.0466

> <Gold.PLP.PLP>
-43.4375

> <Gold.PLP.part.hbond>
-2.0000

> <Gold.PLP.part.metal>
0.0000

> <Gold.PLP.part.buried>
-6.4912

> <Gold.PLP.part.nonpolar>
-36.3596

> <Gold.PLP.part.repulsive>
0.2580

> <Gold.PLP.ligand.clash>
0.0000

> <Gold.PLP.ligand.torsion>
1.3665

> <Gold.PLP.Chemscore.Hbond>
1.0000

> <Gold.PLP.Chemscore.CHOScore>
0.0000

> <Gold.PLP.Chemscore.Metal>
0.0000

> <Gold.Chemscore.Hbonds>
donor molecule, donor type, donor heavy atom, donor atom, acceptor molecule, acceptor atom, score
      P1  H  2456  2461       L1     5  1.00

> <Gold.PLP.Chemscore.Internal.Correction>
1.3420

