#       Name:                EN300-218565_i001
#       Creating user name   fsindt
#       Creation time:       Tue Feb 28 07:51:24 2023


#       File generated by GOLD software.
#

@<TRIPOS>MOLECULE
EN300-218565_i001|acide_2|mol2|3780|dock9
    30    31     1
SMALL
USER_CHARGES


@<TRIPOS>ATOM
      1 O1          -0.0955 -19.1567  16.1211 O.co2          1 <1>               -1.0000
      2 C2          -0.0277 -18.7091  14.9880 C.2            1 <1>                0.0000
      3 O3          -0.9091 -18.9553  14.1809 O.co2          1 <1>                0.0000
      4 C4           1.1337 -17.8527  14.5898 C.2            1 <1>                0.0000
      5 O5           2.2577 -18.1601  14.9272 O.2            1 <1>                0.0000
      6 N6           0.9307 -16.7404  13.8564 N.am           1 <1>                0.0000
      7 C7           2.0602 -15.8995  13.4318 C.3            1 <1>                0.0000
      8 C8           1.9519 -15.6654  11.9212 C.3            1 <1>                0.0000
      9 N9           0.6227 -15.1250  11.6067 N.3            1 <1>                0.0000
     10 C10         -0.4367 -16.0839  11.9477 C.3            1 <1>                0.0000
     11 C11         -0.4258 -16.3386  13.4542 C.3            1 <1>                0.0000
     12 C12          0.5412 -14.7455  10.2650 C.ar           1 <1>                0.0000
     13 C13          0.7995 -13.4313   9.8964 C.ar           1 <1>                0.0000
     14 C14          0.7186 -13.0597   8.5688 C.ar           1 <1>                0.0000
     15 C15          0.3809 -13.9940   7.6068 C.ar           1 <1>                0.0000
     16 C16          0.1231 -15.3031   7.9704 C.ar           1 <1>                0.0000
     17 C17          0.2074 -15.6827   9.2956 C.ar           1 <1>                0.0000
     18 H18          2.0217 -14.9436  13.9542 H              1 <1>                0.0000
     19 H19          2.9987 -16.4058  13.6575 H              1 <1>                0.0000
     20 H20          2.7169 -14.9550  11.6075 H              1 <1>                0.0000
     21 H21          2.0944 -16.6096  11.3956 H              1 <1>                0.0000
     22 H22         -1.4041 -15.6771  11.6533 H              1 <1>                0.0000
     23 H23         -0.2610 -17.0223  11.4219 H              1 <1>                0.0000
     24 H24         -1.1317 -17.1330  13.6965 H              1 <1>                0.0000
     25 H25         -0.7024 -15.4257  13.9819 H              1 <1>                0.0000
     26 H26          1.0630 -12.7011  10.6472 H              1 <1>                0.0000
     27 H27          0.9189 -12.0380   8.2815 H              1 <1>                0.0000
     28 H28          0.3179 -13.7005   6.5694 H              1 <1>                0.0000
     29 H29         -0.1404 -16.0303   7.2167 H              1 <1>                0.0000
     30 H30          0.0063 -16.7054   9.5788 H              1 <1>                0.0000
@<TRIPOS>BOND
    1    1    2 ar    
    2    2    3 ar    
    3    2    4 1     
    4    4    5 2     
    5    4    6 am    
    6    6    7 1     
    7    6   11 1     
    8    7    8 1     
    9    7   18 1     
   10    7   19 1     
   11    8    9 1     
   12    8   20 1     
   13    8   21 1     
   14    9   10 1     
   15    9   12 1     
   16   10   11 1     
   17   10   22 1     
   18   10   23 1     
   19   11   24 1     
   20   11   25 1     
   21   12   13 ar    
   22   12   17 ar    
   23   13   14 ar    
   24   13   26 1     
   25   14   15 ar    
   26   14   27 1     
   27   15   16 ar    
   28   15   28 1     
   29   16   17 ar    
   30   16   29 1     
   31   17   30 1     
@<TRIPOS>SUBSTRUCTURE
      1 ****           1
@<TRIPOS>COMMENT
> <Gold.Version>
2022.2.0

> <Gold.Id.Protein>
3pbl|protein|mol2

> <Gold.Protein.RotatedTorsions>
[ 1303 1298 1297 1294 ] final  134.29 input  179.99 | X-H torsion
[ 2461 2456 2455 2452 ] final  -75.57 input   30.03 | X-H torsion
[ 2515 2510 2509 2506 ] final -156.60 input  -89.99 | X-H torsion
[ 3721 3712 3711 3710 ] final   17.81 input -179.91 | X-H torsion
[ 3841 3832 3831 3830 ] final -161.70 input -179.91 | X-H torsion
[ 3767 3762 3761 3758 ] final  -83.63 input  -89.99 | X-H torsion
[ 2472 2467 2466 2463 ] final  -41.17 input  -89.97 | X-H torsion

> <Gold.Protein.ActiveResidues>
 VAL82   VAL86   LEU89   PHE106  VAL107  ASP110  VAL111  MET112  CYS114  THR115 
 CYS181  SER182  ILE183  PHE188  VAL189  ILE190  SER192  SER193  SER196  TRP342 
 PHE345  PHE346  HIS349  VAL350  TYR365  THR369  GLY372  TYR373 

> <Gold.Protein.RotatedAtoms>
    4.8439   -9.5600    4.9391 H   0  0  0  0  0  0  0  0  0  0  0  0  # atno 1303 bound_to 1298
    0.3307   -8.7451    7.5388 H   0  0  0  0  0  0  0  0  0  0  0  0  # atno 2461 bound_to 2456
   -3.6411   -5.0791    8.6846 H   0  0  0  0  0  0  0  0  0  0  0  0  # atno 2472 bound_to 2467
    2.4870   -9.2170    5.5474 H   0  0  0  0  0  0  0  0  0  0  0  0  # atno 2515 bound_to 2510
   -2.4701  -18.0262   13.9840 H   0  0  0  0  0  0  0  0  0  0  0  0  # atno 3721 bound_to 3712
   -5.2898  -21.9345   11.1313 H   0  0  0  0  0  0  0  0  0  0  0  0  # atno 3767 bound_to 3762
    2.7715  -19.8560    8.3531 H   0  0  0  0  0  0  0  0  0  0  0  0  # atno 3841 bound_to 3832
    3.4815  -10.0417    4.1786 LP  0  0  0  0  0  0  0  0  0  0  0  0  # atno 4297 bound_to 1298
    4.0365   -8.5196    3.9736 LP  0  0  0  0  0  0  0  0  0  0  0  0  # atno 4298 bound_to 1298
    1.6828   -9.1126    8.3779 LP  0  0  0  0  0  0  0  0  0  0  0  0  # atno 4299 bound_to 2456
    1.7241   -7.9505    7.2314 LP  0  0  0  0  0  0  0  0  0  0  0  0  # atno 4300 bound_to 2456
    2.0585   -7.6566    5.7652 LP  0  0  0  0  0  0  0  0  0  0  0  0  # atno 4301 bound_to 2510
    2.7512   -8.1251    4.3626 LP  0  0  0  0  0  0  0  0  0  0  0  0  # atno 4302 bound_to 2510
   -3.3258  -16.8529   14.6688 LP  0  0  0  0  0  0  0  0  0  0  0  0  # atno 4306 bound_to 3712
   -3.3501  -17.0618   13.0495 LP  0  0  0  0  0  0  0  0  0  0  0  0  # atno 4307 bound_to 3712
    2.6381  -21.1547    9.2867 LP  0  0  0  0  0  0  0  0  0  0  0  0  # atno 4314 bound_to 3832
    1.3898  -20.1139    9.1279 LP  0  0  0  0  0  0  0  0  0  0  0  0  # atno 4315 bound_to 3832
   -3.9398  -22.8233   11.3646 LP  0  0  0  0  0  0  0  0  0  0  0  0  # atno 4318 bound_to 3762
   -4.8980  -23.1170   10.0753 LP  0  0  0  0  0  0  0  0  0  0  0  0  # atno 4319 bound_to 3762
   -5.1346   -5.4415    9.2366 LP  0  0  0  0  0  0  0  0  0  0  0  0  # atno 4320 bound_to 2467
   -4.9410   -4.8729    7.7180 LP  0  0  0  0  0  0  0  0  0  0  0  0  # atno 4321 bound_to 2467

> <Gold.Score>
     Score     S(PLP)   S(hbond)     S(cho)   S(metal)  DE(clash)   DE(tors)     intcor
     42.86     -41.22       1.00       0.00       0.00       0.00       1.35       1.34

> <Gold.PLP.Fitness>
42.8554

> <Gold.PLP.PLP>
-41.2222

> <Gold.PLP.part.hbond>
-1.0000

> <Gold.PLP.part.metal>
0.0000

> <Gold.PLP.part.buried>
-0.9950

> <Gold.PLP.part.nonpolar>
-39.9741

> <Gold.PLP.part.repulsive>
0.2396

> <Gold.PLP.ligand.clash>
0.0000

> <Gold.PLP.ligand.torsion>
1.3544

> <Gold.PLP.Chemscore.Hbond>
1.0000

> <Gold.PLP.Chemscore.CHOScore>
0.0000

> <Gold.PLP.Chemscore.Metal>
0.0000

> <Gold.Chemscore.Hbonds>
donor molecule, donor type, donor heavy atom, donor atom, acceptor molecule, acceptor atom, score
      P1  H  3712  3721       L1     3  1.00

> <Gold.PLP.Chemscore.Internal.Correction>
1.3420

