#       Name:                EN300-218565_i001
#       Creating user name   fsindt
#       Creation time:       Tue Feb 28 07:51:27 2023


#       File generated by GOLD software.
#

@<TRIPOS>MOLECULE
EN300-218565_i001|acide_2|mol2|3780|dock12
    30    31     1
SMALL
USER_CHARGES


@<TRIPOS>ATOM
      1 O1           1.6945 -12.2722   6.6455 O.co2          1 <1>               -1.0000
      2 C2           0.7193 -12.8240   7.1287 C.2            1 <1>                0.0000
      3 O3           0.1881 -13.7508   6.5392 O.co2          1 <1>                0.0000
      4 C4           0.1784 -12.3679   8.4478 C.2            1 <1>                0.0000
      5 O5           0.0985 -11.1826   8.6935 O.2            1 <1>                0.0000
      6 N6          -0.2198 -13.2741   9.3626 N.am           1 <1>                0.0000
      7 C7          -0.1066 -14.7160   9.0958 C.3            1 <1>                0.0000
      8 C8           0.6141 -15.3746  10.2769 C.3            1 <1>                0.0000
      9 N9          -0.0783 -15.0263  11.5247 N.3            1 <1>                0.0000
     10 C10         -0.0317 -13.5793  11.7740 C.3            1 <1>                0.0000
     11 C11         -0.7732 -12.8472  10.6566 C.3            1 <1>                0.0000
     12 C12          0.4490 -15.7374  12.6051 C.ar           1 <1>                0.0000
     13 C13         -0.4013 -16.3243  13.5337 C.ar           1 <1>                0.0000
     14 C14          0.1235 -17.0272  14.6004 C.ar           1 <1>                0.0000
     15 C15          1.4936 -17.1472  14.7447 C.ar           1 <1>                0.0000
     16 C16          2.3428 -16.5642  13.8220 C.ar           1 <1>                0.0000
     17 C17          1.8246 -15.8644  12.7500 C.ar           1 <1>                0.0000
     18 H18         -1.1017 -15.1475   8.9873 H              1 <1>                0.0000
     19 H19          0.4662 -14.8755   8.1823 H              1 <1>                0.0000
     20 H20          0.6094 -16.4570  10.1482 H              1 <1>                0.0000
     21 H21          1.6431 -15.0175  10.3200 H              1 <1>                0.0000
     22 H22         -0.5049 -13.3597  12.7310 H              1 <1>                0.0000
     23 H23          1.0061 -13.2472  11.7962 H              1 <1>                0.0000
     24 H24         -0.6440 -11.7714  10.7750 H              1 <1>                0.0000
     25 H25         -1.8334 -13.0978  10.6953 H              1 <1>                0.0000
     26 H26         -1.4713 -16.2307  13.4218 H              1 <1>                0.0000
     27 H27         -0.5370 -17.4833  15.3230 H              1 <1>                0.0000
     28 H28          1.9013 -17.6971  15.5800 H              1 <1>                0.0000
     29 H29          3.4123 -16.6598  13.9376 H              1 <1>                0.0000
     30 H30          2.4885 -15.4097  12.0296 H              1 <1>                0.0000
@<TRIPOS>BOND
    1    1    2 ar    
    2    2    3 ar    
    3    2    4 1     
    4    4    5 2     
    5    4    6 am    
    6    6    7 1     
    7    6   11 1     
    8    7    8 1     
    9    7   18 1     
   10    7   19 1     
   11    8    9 1     
   12    8   20 1     
   13    8   21 1     
   14    9   10 1     
   15    9   12 1     
   16   10   11 1     
   17   10   22 1     
   18   10   23 1     
   19   11   24 1     
   20   11   25 1     
   21   12   13 ar    
   22   12   17 ar    
   23   13   14 ar    
   24   13   26 1     
   25   14   15 ar    
   26   14   27 1     
   27   15   16 ar    
   28   15   28 1     
   29   16   17 ar    
   30   16   29 1     
   31   17   30 1     
@<TRIPOS>SUBSTRUCTURE
      1 ****           1
@<TRIPOS>COMMENT
> <Gold.Version>
2022.2.0

> <Gold.Id.Protein>
3pbl|protein|mol2

> <Gold.Protein.RotatedTorsions>
[ 1303 1298 1297 1294 ] final  -83.77 input  179.99 | X-H torsion
[ 2461 2456 2455 2452 ] final -139.00 input   30.03 | X-H torsion
[ 2515 2510 2509 2506 ] final   24.09 input  -89.99 | X-H torsion
[ 3721 3712 3711 3710 ] final -151.95 input -179.91 | X-H torsion
[ 3841 3832 3831 3830 ] final  129.42 input -179.91 | X-H torsion
[ 3767 3762 3761 3758 ] final  -84.30 input  -89.99 | X-H torsion
[ 2472 2467 2466 2463 ] final -135.38 input  -89.97 | X-H torsion

> <Gold.Protein.ActiveResidues>
 VAL82   VAL86   LEU89   PHE106  VAL107  ASP110  VAL111  MET112  CYS114  THR115 
 CYS181  SER182  ILE183  PHE188  VAL189  ILE190  SER192  SER193  SER196  TRP342 
 PHE345  PHE346  HIS349  VAL350  TYR365  THR369  GLY372  TYR373 

> <Gold.Protein.RotatedAtoms>
    3.7484   -8.6854    3.8384 H   0  0  0  0  0  0  0  0  0  0  0  0  # atno 1303 bound_to 1298
    0.8152   -9.2666    8.2290 H   0  0  0  0  0  0  0  0  0  0  0  0  # atno 2461 bound_to 2456
   -4.7519   -5.4629    9.4104 H   0  0  0  0  0  0  0  0  0  0  0  0  # atno 2472 bound_to 2467
    2.3728   -7.4458    4.9127 H   0  0  0  0  0  0  0  0  0  0  0  0  # atno 2515 bound_to 2510
   -3.3294  -16.5302   13.9593 H   0  0  0  0  0  0  0  0  0  0  0  0  # atno 3721 bound_to 3712
   -5.2833  -21.9326   11.1399 H   0  0  0  0  0  0  0  0  0  0  0  0  # atno 3767 bound_to 3762
    3.1174  -20.6344    8.8358 H   0  0  0  0  0  0  0  0  0  0  0  0  # atno 3841 bound_to 3832
    4.9117   -9.2183    4.8530 LP  0  0  0  0  0  0  0  0  0  0  0  0  # atno 4297 bound_to 1298
    3.7022  -10.2179    4.4004 LP  0  0  0  0  0  0  0  0  0  0  0  0  # atno 4298 bound_to 1298
    2.1607   -8.4205    7.8533 LP  0  0  0  0  0  0  0  0  0  0  0  0  # atno 4299 bound_to 2456
    0.7617   -8.1212    7.0660 LP  0  0  0  0  0  0  0  0  0  0  0  0  # atno 4300 bound_to 2456
    2.8077   -9.0018    4.6767 LP  0  0  0  0  0  0  0  0  0  0  0  0  # atno 4301 bound_to 2510
    2.1162   -8.5519    6.0860 LP  0  0  0  0  0  0  0  0  0  0  0  0  # atno 4302 bound_to 2510
   -2.9267  -17.7990   13.0616 LP  0  0  0  0  0  0  0  0  0  0  0  0  # atno 4306 bound_to 3712
   -2.7571  -17.8430   14.6852 LP  0  0  0  0  0  0  0  0  0  0  0  0  # atno 4307 bound_to 3712
    1.6658  -20.7351    9.5131 LP  0  0  0  0  0  0  0  0  0  0  0  0  # atno 4314 bound_to 3832
    1.9625  -19.6344    8.3439 LP  0  0  0  0  0  0  0  0  0  0  0  0  # atno 4315 bound_to 3832
   -3.9372  -22.8312   11.3575 LP  0  0  0  0  0  0  0  0  0  0  0  0  # atno 4318 bound_to 3762
   -4.9070  -23.1110   10.0738 LP  0  0  0  0  0  0  0  0  0  0  0  0  # atno 4319 bound_to 3762
   -5.2796   -4.9899    7.9393 LP  0  0  0  0  0  0  0  0  0  0  0  0  # atno 4320 bound_to 2467
   -3.6854   -4.9408    8.2896 LP  0  0  0  0  0  0  0  0  0  0  0  0  # atno 4321 bound_to 2467

> <Gold.Score>
     Score     S(PLP)   S(hbond)     S(cho)   S(metal)  DE(clash)   DE(tors)     intcor
     44.15     -42.15       1.00       0.00       0.00       0.05       1.15       1.34

> <Gold.PLP.Fitness>
44.1463

> <Gold.PLP.PLP>
-42.1517

> <Gold.PLP.part.hbond>
-1.0000

> <Gold.PLP.part.metal>
0.0000

> <Gold.PLP.part.buried>
-4.1372

> <Gold.PLP.part.nonpolar>
-38.3832

> <Gold.PLP.part.repulsive>
0.2059

> <Gold.PLP.ligand.clash>
0.0515

> <Gold.PLP.ligand.torsion>
1.1480

> <Gold.PLP.Chemscore.Hbond>
1.0000

> <Gold.PLP.Chemscore.CHOScore>
0.0000

> <Gold.PLP.Chemscore.Metal>
0.0000

> <Gold.Chemscore.Hbonds>
donor molecule, donor type, donor heavy atom, donor atom, acceptor molecule, acceptor atom, score
      P1  H  2456  2461       L1     5  1.00

> <Gold.PLP.Chemscore.Internal.Correction>
1.3420

