#       Name:                EN300-218565_i001
#       Creating user name   fsindt
#       Creation time:       Tue Feb 28 07:51:28 2023


#       File generated by GOLD software.
#

@<TRIPOS>MOLECULE
EN300-218565_i001|acide_2|mol2|3780|dock14
    30    31     1
SMALL
USER_CHARGES


@<TRIPOS>ATOM
      1 O1          -1.7433 -24.3450  14.1994 O.co2          1 <1>               -1.0000
      2 C2          -2.2602 -23.9163  13.1806 C.2            1 <1>                0.0000
      3 O3          -3.4668 -24.0075  13.0236 O.co2          1 <1>                0.0000
      4 C4          -1.4148 -23.2729  12.1261 C.2            1 <1>                0.0000
      5 O5          -1.6004 -23.5354  10.9563 O.2            1 <1>                0.0000
      6 N6          -0.4476 -22.4021  12.4762 N.am           1 <1>                0.0000
      7 C7           0.3766 -21.7384  11.4547 C.3            1 <1>                0.0000
      8 C8           0.3590 -20.2292  11.7201 C.3            1 <1>                0.0000
      9 N9           0.7664 -19.9748  13.1083 N.3            1 <1>                0.0000
     10 C10         -0.1835 -20.5672  14.0595 C.3            1 <1>                0.0000
     11 C11         -0.1923 -22.0856  13.8897 C.3            1 <1>                0.0000
     12 C12          0.9207 -18.6063  13.3419 C.ar           1 <1>                0.0000
     13 C13          2.1536 -18.1022  13.7361 C.ar           1 <1>                0.0000
     14 C14          2.3028 -16.7485  13.9656 C.ar           1 <1>                0.0000
     15 C15          1.2267 -15.8953  13.8035 C.ar           1 <1>                0.0000
     16 C16         -0.0020 -16.3939  13.4111 C.ar           1 <1>                0.0000
     17 C17         -0.1568 -17.7458  13.1748 C.ar           1 <1>                0.0000
     18 H18          1.4001 -22.1086  11.5127 H              1 <1>                0.0000
     19 H19         -0.0334 -21.9408  10.4652 H              1 <1>                0.0000
     20 H20          1.0518 -19.7324  11.0409 H              1 <1>                0.0000
     21 H21         -0.6478 -19.8433  11.5599 H              1 <1>                0.0000
     22 H22          0.1159 -20.3155  15.0769 H              1 <1>                0.0000
     23 H23         -1.1827 -20.1767  13.8668 H              1 <1>                0.0000
     24 H24         -0.9761 -22.5190  14.5109 H              1 <1>                0.0000
     25 H25          0.7763 -22.4922  14.1806 H              1 <1>                0.0000
     26 H26          2.9944 -18.7680  13.8632 H              1 <1>                0.0000
     27 H27          3.2610 -16.3559  14.2725 H              1 <1>                0.0000
     28 H28          1.3461 -14.8372  13.9840 H              1 <1>                0.0000
     29 H29         -0.8404 -15.7249  13.2854 H              1 <1>                0.0000
     30 H30         -1.1167 -18.1345  12.8680 H              1 <1>                0.0000
@<TRIPOS>BOND
    1    1    2 ar    
    2    2    3 ar    
    3    2    4 1     
    4    4    5 2     
    5    4    6 am    
    6    6    7 1     
    7    6   11 1     
    8    7    8 1     
    9    7   18 1     
   10    7   19 1     
   11    8    9 1     
   12    8   20 1     
   13    8   21 1     
   14    9   10 1     
   15    9   12 1     
   16   10   11 1     
   17   10   22 1     
   18   10   23 1     
   19   11   24 1     
   20   11   25 1     
   21   12   13 ar    
   22   12   17 ar    
   23   13   14 ar    
   24   13   26 1     
   25   14   15 ar    
   26   14   27 1     
   27   15   16 ar    
   28   15   28 1     
   29   16   17 ar    
   30   16   29 1     
   31   17   30 1     
@<TRIPOS>SUBSTRUCTURE
      1 ****           1
@<TRIPOS>COMMENT
> <Gold.Version>
2022.2.0

> <Gold.Id.Protein>
3pbl|protein|mol2

> <Gold.Protein.RotatedTorsions>
[ 1303 1298 1297 1294 ] final -102.64 input  179.99 | X-H torsion
[ 2461 2456 2455 2452 ] final -164.68 input   30.03 | X-H torsion
[ 2515 2510 2509 2506 ] final   71.51 input  -89.99 | X-H torsion
[ 3721 3712 3711 3710 ] final  -27.55 input -179.91 | X-H torsion
[ 3841 3832 3831 3830 ] final  -67.28 input -179.91 | X-H torsion
[ 3767 3762 3761 3758 ] final  159.35 input  -89.99 | X-H torsion
[ 2472 2467 2466 2463 ] final   33.29 input  -89.97 | X-H torsion

> <Gold.Protein.ActiveResidues>
 VAL82   VAL86   LEU89   PHE106  VAL107  ASP110  VAL111  MET112  CYS114  THR115 
 CYS181  SER182  ILE183  PHE188  VAL189  ILE190  SER192  SER193  SER196  TRP342 
 PHE345  PHE346  HIS349  VAL350  TYR365  THR369  GLY372  TYR373 

> <Gold.Protein.RotatedAtoms>
    3.9942   -8.5358    3.9512 H   0  0  0  0  0  0  0  0  0  0  0  0  # atno 1303 bound_to 1298
    1.2078   -9.2760    8.3753 H   0  0  0  0  0  0  0  0  0  0  0  0  # atno 2461 bound_to 2456
   -4.2153   -4.8013    7.7386 H   0  0  0  0  0  0  0  0  0  0  0  0  # atno 2472 bound_to 2467
    2.0982   -7.5416    5.6126 H   0  0  0  0  0  0  0  0  0  0  0  0  # atno 2515 bound_to 2510
   -2.5900  -17.7261   14.5685 H   0  0  0  0  0  0  0  0  0  0  0  0  # atno 3721 bound_to 3712
   -3.9521  -22.7871   11.3953 H   0  0  0  0  0  0  0  0  0  0  0  0  # atno 3767 bound_to 3762
    1.6548  -19.7502    8.9498 H   0  0  0  0  0  0  0  0  0  0  0  0  # atno 3841 bound_to 3832
    4.8605   -9.5128    4.9317 LP  0  0  0  0  0  0  0  0  0  0  0  0  # atno 4297 bound_to 1298
    3.5076  -10.0730    4.2089 LP  0  0  0  0  0  0  0  0  0  0  0  0  # atno 4298 bound_to 1298
    2.0570   -8.1520    7.5489 LP  0  0  0  0  0  0  0  0  0  0  0  0  # atno 4299 bound_to 2456
    0.4730   -8.3804    7.2241 LP  0  0  0  0  0  0  0  0  0  0  0  0  # atno 4300 bound_to 2456
    2.7953   -8.3152    4.3552 LP  0  0  0  0  0  0  0  0  0  0  0  0  # atno 4301 bound_to 2510
    2.4033   -9.1427    5.7073 LP  0  0  0  0  0  0  0  0  0  0  0  0  # atno 4302 bound_to 2510
   -3.5515  -16.5582   14.0307 LP  0  0  0  0  0  0  0  0  0  0  0  0  # atno 4306 bound_to 3712
   -2.9860  -17.7030   13.0127 LP  0  0  0  0  0  0  0  0  0  0  0  0  # atno 4307 bound_to 3712
    3.0097  -20.2674    8.2622 LP  0  0  0  0  0  0  0  0  0  0  0  0  # atno 4314 bound_to 3832
    2.3082  -21.1234    9.4630 LP  0  0  0  0  0  0  0  0  0  0  0  0  # atno 4315 bound_to 3832
   -4.8570  -23.1431   10.0834 LP  0  0  0  0  0  0  0  0  0  0  0  0  # atno 4318 bound_to 3762
   -5.3180  -21.9449   11.0926 LP  0  0  0  0  0  0  0  0  0  0  0  0  # atno 4319 bound_to 3762
   -3.9998   -5.3283    9.2690 LP  0  0  0  0  0  0  0  0  0  0  0  0  # atno 4320 bound_to 2467
   -5.5018   -5.2638    8.6315 LP  0  0  0  0  0  0  0  0  0  0  0  0  # atno 4321 bound_to 2467

> <Gold.Score>
     Score     S(PLP)   S(hbond)     S(cho)   S(metal)  DE(clash)   DE(tors)     intcor
     42.88     -39.99       1.00       0.00       0.00       0.00       0.73       1.34

> <Gold.PLP.Fitness>
42.8763

> <Gold.PLP.PLP>
-39.9945

> <Gold.PLP.part.hbond>
-2.8137

> <Gold.PLP.part.metal>
0.0000

> <Gold.PLP.part.buried>
-3.4334

> <Gold.PLP.part.nonpolar>
-35.4009

> <Gold.PLP.part.repulsive>
0.3101

> <Gold.PLP.ligand.clash>
0.0000

> <Gold.PLP.ligand.torsion>
0.7301

> <Gold.PLP.Chemscore.Hbond>
1.0000

> <Gold.PLP.Chemscore.CHOScore>
0.0000

> <Gold.PLP.Chemscore.Metal>
0.0000

> <Gold.Chemscore.Hbonds>
donor molecule, donor type, donor heavy atom, donor atom, acceptor molecule, acceptor atom, score
      P1  H  3762  3767       L1     3  1.00

> <Gold.PLP.Chemscore.Internal.Correction>
1.3420

