#       Name:                EN300-218565_i001
#       Creating user name   fsindt
#       Creation time:       Tue Feb 28 07:51:22 2023


#       File generated by GOLD software.
#

@<TRIPOS>MOLECULE
EN300-218565_i001|acide_2|mol2|3780|dock7
    30    31     1
SMALL
USER_CHARGES


@<TRIPOS>ATOM
      1 O1          -0.9236 -18.1077  14.9308 O.co2          1 <1>               -1.0000
      2 C2           0.2178 -18.5007  15.1091 C.2            1 <1>                0.0000
      3 O3           0.4211 -19.5017  15.7765 O.co2          1 <1>                0.0000
      4 C4           1.3681 -17.7583  14.5040 C.2            1 <1>                0.0000
      5 O5           2.3703 -17.5560  15.1571 O.2            1 <1>                0.0000
      6 N6           1.2906 -17.3146  13.2338 N.am           1 <1>                0.0000
      7 C7           0.0749 -17.5255  12.4333 C.3            1 <1>                0.0000
      8 C8          -0.3530 -16.1814  11.8345 C.3            1 <1>                0.0000
      9 N9           0.7772 -15.5924  11.1041 N.3            1 <1>                0.0000
     10 C10          1.8992 -15.2986  12.0055 C.3            1 <1>                0.0000
     11 C11          2.4172 -16.6011  12.6134 C.3            1 <1>                0.0000
     12 C12          0.3815 -14.4480  10.4080 C.ar           1 <1>                0.0000
     13 C13          0.8385 -14.2269   9.1150 C.ar           1 <1>                0.0000
     14 C14          0.4448 -13.0944   8.4294 C.ar           1 <1>                0.0000
     15 C15         -0.4034 -12.1813   9.0286 C.ar           1 <1>                0.0000
     16 C16         -0.8603 -12.3984  10.3157 C.ar           1 <1>                0.0000
     17 C17         -0.4747 -13.5314  11.0050 C.ar           1 <1>                0.0000
     18 H18          0.2828 -18.2340  11.6315 H              1 <1>                0.0000
     19 H19         -0.7205 -17.9123  13.0704 H              1 <1>                0.0000
     20 H20         -1.1870 -16.3372  11.1501 H              1 <1>                0.0000
     21 H21         -0.6596 -15.5078  12.6348 H              1 <1>                0.0000
     22 H22          2.6987 -14.8141  11.4451 H              1 <1>                0.0000
     23 H23          1.5614 -14.6373  12.8033 H              1 <1>                0.0000
     24 H24          3.1718 -16.3786  13.3678 H              1 <1>                0.0000
     25 H25          2.8505 -17.2236  11.8305 H              1 <1>                0.0000
     26 H26          1.5012 -14.9394   8.6465 H              1 <1>                0.0000
     27 H27          0.8002 -12.9216   7.4243 H              1 <1>                0.0000
     28 H28         -0.7094 -11.2964   8.4904 H              1 <1>                0.0000
     29 H29         -1.5225 -11.6833  10.7807 H              1 <1>                0.0000
     30 H30         -0.8322 -13.7005  12.0100 H              1 <1>                0.0000
@<TRIPOS>BOND
    1    1    2 ar    
    2    2    3 ar    
    3    2    4 1     
    4    4    5 2     
    5    4    6 am    
    6    6    7 1     
    7    6   11 1     
    8    7    8 1     
    9    7   18 1     
   10    7   19 1     
   11    8    9 1     
   12    8   20 1     
   13    8   21 1     
   14    9   10 1     
   15    9   12 1     
   16   10   11 1     
   17   10   22 1     
   18   10   23 1     
   19   11   24 1     
   20   11   25 1     
   21   12   13 ar    
   22   12   17 ar    
   23   13   14 ar    
   24   13   26 1     
   25   14   15 ar    
   26   14   27 1     
   27   15   16 ar    
   28   15   28 1     
   29   16   17 ar    
   30   16   29 1     
   31   17   30 1     
@<TRIPOS>SUBSTRUCTURE
      1 ****           1
@<TRIPOS>COMMENT
> <Gold.Version>
2022.2.0

> <Gold.Id.Protein>
3pbl|protein|mol2

> <Gold.Protein.RotatedTorsions>
[ 1303 1298 1297 1294 ] final   15.45 input  179.99 | X-H torsion
[ 2461 2456 2455 2452 ] final -103.35 input   30.03 | X-H torsion
[ 2515 2510 2509 2506 ] final  -67.29 input  -89.99 | X-H torsion
[ 3721 3712 3711 3710 ] final  -18.46 input -179.91 | X-H torsion
[ 3841 3832 3831 3830 ] final  -63.29 input -179.91 | X-H torsion
[ 3767 3762 3761 3758 ] final -159.35 input  -89.99 | X-H torsion
[ 2472 2467 2466 2463 ] final -177.64 input  -89.97 | X-H torsion

> <Gold.Protein.ActiveResidues>
 VAL82   VAL86   LEU89   PHE106  VAL107  ASP110  VAL111  MET112  CYS114  THR115 
 CYS181  SER182  ILE183  PHE188  VAL189  ILE190  SER192  SER193  SER196  TRP342 
 PHE345  PHE346  HIS349  VAL350  TYR365  THR369  GLY372  TYR373 

> <Gold.Protein.RotatedAtoms>
    3.4911  -10.0535    4.1905 H   0  0  0  0  0  0  0  0  0  0  0  0  # atno 1303 bound_to 1298
    0.4250   -9.0414    7.8677 H   0  0  0  0  0  0  0  0  0  0  0  0  # atno 2461 bound_to 2456
   -5.3242   -5.3959    9.0498 H   0  0  0  0  0  0  0  0  0  0  0  0  # atno 2472 bound_to 2467
    2.8328   -8.6139    4.4195 H   0  0  0  0  0  0  0  0  0  0  0  0  # atno 2515 bound_to 2510
   -2.5465  -17.8165   14.4747 H   0  0  0  0  0  0  0  0  0  0  0  0  # atno 3721 bound_to 3712
   -4.3160  -22.2901   11.6460 H   0  0  0  0  0  0  0  0  0  0  0  0  # atno 3767 bound_to 3762
    1.6306  -19.7830    8.9941 H   0  0  0  0  0  0  0  0  0  0  0  0  # atno 3841 bound_to 3832
    4.0206   -8.5254    3.9649 LP  0  0  0  0  0  0  0  0  0  0  0  0  # atno 4297 bound_to 1298
    4.8507   -9.5422    4.9363 LP  0  0  0  0  0  0  0  0  0  0  0  0  # atno 4298 bound_to 1298
    2.0072   -8.8401    8.2189 LP  0  0  0  0  0  0  0  0  0  0  0  0  # atno 4299 bound_to 2456
    1.3053   -7.9268    7.0615 LP  0  0  0  0  0  0  0  0  0  0  0  0  # atno 4300 bound_to 2456
    2.2751   -8.9556    5.9155 LP  0  0  0  0  0  0  0  0  0  0  0  0  # atno 4301 bound_to 2510
    2.1886   -7.4296    5.3406 LP  0  0  0  0  0  0  0  0  0  0  0  0  # atno 4302 bound_to 2510
   -3.5262  -16.5793   14.1789 LP  0  0  0  0  0  0  0  0  0  0  0  0  # atno 4306 bound_to 3712
   -3.0615  -17.5775   12.9729 LP  0  0  0  0  0  0  0  0  0  0  0  0  # atno 4307 bound_to 3712
    2.9774  -20.2156    8.2358 LP  0  0  0  0  0  0  0  0  0  0  0  0  # atno 4314 bound_to 3832
    2.3684  -21.1374    9.4383 LP  0  0  0  0  0  0  0  0  0  0  0  0  # atno 4315 bound_to 3832
   -4.2999  -23.3353   10.3914 LP  0  0  0  0  0  0  0  0  0  0  0  0  # atno 4318 bound_to 3762
   -5.5113  -22.2496   10.5340 LP  0  0  0  0  0  0  0  0  0  0  0  0  # atno 4319 bound_to 3762
   -4.6817   -4.8241    7.6618 LP  0  0  0  0  0  0  0  0  0  0  0  0  # atno 4320 bound_to 2467
   -3.7111   -5.1736    8.9276 LP  0  0  0  0  0  0  0  0  0  0  0  0  # atno 4321 bound_to 2467

> <Gold.Score>
     Score     S(PLP)   S(hbond)     S(cho)   S(metal)  DE(clash)   DE(tors)     intcor
     41.47     -39.67       1.00       0.00       0.00       0.00       1.27       1.34

> <Gold.PLP.Fitness>
41.4663

> <Gold.PLP.PLP>
-39.6663

> <Gold.PLP.part.hbond>
-1.0000

> <Gold.PLP.part.metal>
0.0000

> <Gold.PLP.part.buried>
-3.5923

> <Gold.PLP.part.nonpolar>
-36.5419

> <Gold.PLP.part.repulsive>
0.5918

> <Gold.PLP.ligand.clash>
0.0000

> <Gold.PLP.ligand.torsion>
1.2710

> <Gold.PLP.Chemscore.Hbond>
1.0000

> <Gold.PLP.Chemscore.CHOScore>
0.0000

> <Gold.PLP.Chemscore.Metal>
0.0000

> <Gold.Chemscore.Hbonds>
donor molecule, donor type, donor heavy atom, donor atom, acceptor molecule, acceptor atom, score
      P1  H  3712  3721       L1     1  1.00

> <Gold.PLP.Chemscore.Internal.Correction>
1.3420

