#       Name:                EN300-218565_i001
#       Creating user name   fsindt
#       Creation time:       Tue Feb 28 07:51:32 2023


#       File generated by GOLD software.
#

@<TRIPOS>MOLECULE
EN300-218565_i001|acide_2|mol2|3780|dock18
    30    31     1
SMALL
USER_CHARGES


@<TRIPOS>ATOM
      1 O1           0.3011 -19.9496  12.8476 O.co2          1 <1>               -1.0000
      2 C2           0.1216 -18.8246  13.2848 C.2            1 <1>                0.0000
      3 O3          -0.9555 -18.5245  13.7732 O.co2          1 <1>                0.0000
      4 C4           1.2248 -17.8146  13.2279 C.2            1 <1>                0.0000
      5 O5           2.3220 -18.0894  13.6666 O.2            1 <1>                0.0000
      6 N6           0.9994 -16.5999  12.6892 N.am           1 <1>                0.0000
      7 C7           2.0764 -15.6023  12.5990 C.3            1 <1>                0.0000
      8 C8           2.1412 -15.0848  11.1581 C.3            1 <1>                0.0000
      9 N9           0.8134 -14.6036  10.7539 N.3            1 <1>                0.0000
     10 C10         -0.1707 -15.6942  10.7516 C.3            1 <1>                0.0000
     11 C11         -0.3287 -16.2390  12.1703 C.3            1 <1>                0.0000
     12 C12          0.8668 -13.9751   9.5077 C.ar           1 <1>                0.0000
     13 C13          0.5319 -12.6320   9.3906 C.ar           1 <1>                0.0000
     14 C14          0.5863 -12.0136   8.1569 C.ar           1 <1>                0.0000
     15 C15          0.9736 -12.7297   7.0391 C.ar           1 <1>                0.0000
     16 C16          1.3077 -14.0669   7.1523 C.ar           1 <1>                0.0000
     17 C17          1.2605 -14.6902   8.3838 C.ar           1 <1>                0.0000
     18 H18          1.8664 -14.7746  13.2764 H              1 <1>                0.0000
     19 H19          3.0269 -16.0647  12.8651 H              1 <1>                0.0000
     20 H20          2.8586 -14.2664  11.0975 H              1 <1>                0.0000
     21 H21          2.4528 -15.8921  10.4953 H              1 <1>                0.0000
     22 H22         -1.1299 -15.3179  10.3963 H              1 <1>                0.0000
     23 H23          0.1731 -16.4931  10.0946 H              1 <1>                0.0000
     24 H24         -0.9694 -17.1206  12.1549 H              1 <1>                0.0000
     25 H25         -0.7693 -15.4738  12.8094 H              1 <1>                0.0000
     26 H26          0.2291 -12.0723  10.2631 H              1 <1>                0.0000
     27 H27          0.3256 -10.9695   8.0650 H              1 <1>                0.0000
     28 H28          1.0149 -12.2437   6.0755 H              1 <1>                0.0000
     29 H29          1.6097 -14.6232   6.2773 H              1 <1>                0.0000
     30 H30          1.5219 -15.7344   8.4715 H              1 <1>                0.0000
@<TRIPOS>BOND
    1    1    2 ar    
    2    2    3 ar    
    3    2    4 1     
    4    4    5 2     
    5    4    6 am    
    6    6    7 1     
    7    6   11 1     
    8    7    8 1     
    9    7   18 1     
   10    7   19 1     
   11    8    9 1     
   12    8   20 1     
   13    8   21 1     
   14    9   10 1     
   15    9   12 1     
   16   10   11 1     
   17   10   22 1     
   18   10   23 1     
   19   11   24 1     
   20   11   25 1     
   21   12   13 ar    
   22   12   17 ar    
   23   13   14 ar    
   24   13   26 1     
   25   14   15 ar    
   26   14   27 1     
   27   15   16 ar    
   28   15   28 1     
   29   16   17 ar    
   30   16   29 1     
   31   17   30 1     
@<TRIPOS>SUBSTRUCTURE
      1 ****           1
@<TRIPOS>COMMENT
> <Gold.Version>
2022.2.0

> <Gold.Id.Protein>
3pbl|protein|mol2

> <Gold.Protein.RotatedTorsions>
[ 1303 1298 1297 1294 ] final   98.74 input  179.99 | X-H torsion
[ 2461 2456 2455 2452 ] final  -70.27 input   30.03 | X-H torsion
[ 2515 2510 2509 2506 ] final  -91.76 input  -89.99 | X-H torsion
[ 3721 3712 3711 3710 ] final   25.63 input -179.91 | X-H torsion
[ 3841 3832 3831 3830 ] final  157.58 input -179.91 | X-H torsion
[ 3767 3762 3761 3758 ] final  177.83 input  -89.99 | X-H torsion
[ 2472 2467 2466 2463 ] final -152.80 input  -89.97 | X-H torsion

> <Gold.Protein.ActiveResidues>
 VAL82   VAL86   LEU89   PHE106  VAL107  ASP110  VAL111  MET112  CYS114  THR115 
 CYS181  SER182  ILE183  PHE188  VAL189  ILE190  SER192  SER193  SER196  TRP342 
 PHE345  PHE346  HIS349  VAL350  TYR365  THR369  GLY372  TYR373 

> <Gold.Protein.RotatedAtoms>
    4.5229  -10.0360    4.9007 H   0  0  0  0  0  0  0  0  0  0  0  0  # atno 1303 bound_to 1298
    0.3368   -8.6824    7.4784 H   0  0  0  0  0  0  0  0  0  0  0  0  # atno 2461 bound_to 2456
   -5.0192   -5.4562    9.3103 H   0  0  0  0  0  0  0  0  0  0  0  0  # atno 2472 bound_to 2467
    2.8175   -8.9535    4.6294 H   0  0  0  0  0  0  0  0  0  0  0  0  # atno 2515 bound_to 2510
   -2.4759  -18.0343   13.8663 H   0  0  0  0  0  0  0  0  0  0  0  0  # atno 3721 bound_to 3712
   -4.0755  -22.5594   11.5523 H   0  0  0  0  0  0  0  0  0  0  0  0  # atno 3767 bound_to 3762
    3.1005  -20.3157    8.5610 H   0  0  0  0  0  0  0  0  0  0  0  0  # atno 3841 bound_to 3832
    3.3296   -9.5679    3.8892 LP  0  0  0  0  0  0  0  0  0  0  0  0  # atno 4297 bound_to 1298
    4.5096   -8.5171    4.3014 LP  0  0  0  0  0  0  0  0  0  0  0  0  # atno 4298 bound_to 1298
    1.6066   -9.1528    8.3915 LP  0  0  0  0  0  0  0  0  0  0  0  0  # atno 4299 bound_to 2456
    1.7942   -7.9729    7.2782 LP  0  0  0  0  0  0  0  0  0  0  0  0  # atno 4300 bound_to 2456
    2.1352   -8.6163    6.0739 LP  0  0  0  0  0  0  0  0  0  0  0  0  # atno 4301 bound_to 2510
    2.3439   -7.4290    4.9723 LP  0  0  0  0  0  0  0  0  0  0  0  0  # atno 4302 bound_to 2510
   -3.2669  -16.9447   14.7407 LP  0  0  0  0  0  0  0  0  0  0  0  0  # atno 4306 bound_to 3712
   -3.4024  -16.9607   13.1135 LP  0  0  0  0  0  0  0  0  0  0  0  0  # atno 4307 bound_to 3712
    2.0360  -21.0169    9.5362 LP  0  0  0  0  0  0  0  0  0  0  0  0  # atno 4314 bound_to 3832
    1.6118  -19.7207    8.6382 LP  0  0  0  0  0  0  0  0  0  0  0  0  # atno 4315 bound_to 3832
   -4.5995  -23.2706   10.1788 LP  0  0  0  0  0  0  0  0  0  0  0  0  # atno 4318 bound_to 3762
   -5.4522  -22.0450   10.8403 LP  0  0  0  0  0  0  0  0  0  0  0  0  # atno 4319 bound_to 3762
   -5.0629   -4.9063    7.7733 LP  0  0  0  0  0  0  0  0  0  0  0  0  # atno 4320 bound_to 2467
   -3.6349   -5.0311    8.5557 LP  0  0  0  0  0  0  0  0  0  0  0  0  # atno 4321 bound_to 2467

> <Gold.Score>
     Score     S(PLP)   S(hbond)     S(cho)   S(metal)  DE(clash)   DE(tors)     intcor
     43.11     -40.65       1.00       0.00       0.00       0.00       0.94       1.34

> <Gold.PLP.Fitness>
43.1109

> <Gold.PLP.PLP>
-40.6527

> <Gold.PLP.part.hbond>
-0.9524

> <Gold.PLP.part.metal>
0.0000

> <Gold.PLP.part.buried>
-3.6542

> <Gold.PLP.part.nonpolar>
-36.6941

> <Gold.PLP.part.repulsive>
0.1558

> <Gold.PLP.ligand.clash>
0.0000

> <Gold.PLP.ligand.torsion>
0.9420

> <Gold.PLP.Chemscore.Hbond>
1.0000

> <Gold.PLP.Chemscore.CHOScore>
0.0000

> <Gold.PLP.Chemscore.Metal>
0.0000

> <Gold.Chemscore.Hbonds>
donor molecule, donor type, donor heavy atom, donor atom, acceptor molecule, acceptor atom, score
      P1  H  3712  3721       L1     3  1.00

> <Gold.PLP.Chemscore.Internal.Correction>
1.3420

