#       Name:                EN300-218565_i001
#       Creating user name   fsindt
#       Creation time:       Tue Feb 28 07:51:20 2023


#       File generated by GOLD software.
#

@<TRIPOS>MOLECULE
EN300-218565_i001|acide_2|mol2|3780|dock4
    30    31     1
SMALL
USER_CHARGES


@<TRIPOS>ATOM
      1 O1           1.8718 -10.8033   6.8961 O.co2          1 <1>               -1.0000
      2 C2           0.9970 -11.6438   7.0272 C.2            1 <1>                0.0000
      3 O3           0.8712 -12.5283   6.1961 O.co2          1 <1>                0.0000
      4 C4           0.0821 -11.5936   8.2109 C.2            1 <1>                0.0000
      5 O5          -0.3623 -10.5301   8.5892 O.2            1 <1>                0.0000
      6 N6          -0.2478 -12.7298   8.8564 N.am           1 <1>                0.0000
      7 C7           0.3010 -14.0264   8.4309 C.3            1 <1>                0.0000
      8 C8           0.8983 -14.7277   9.6555 C.3            1 <1>                0.0000
      9 N9          -0.1147 -14.8001  10.7168 N.3            1 <1>                0.0000
     10 C10         -0.5110 -13.4593  11.1677 C.3            1 <1>                0.0000
     11 C11         -1.1613 -12.7052  10.0088 C.3            1 <1>                0.0000
     12 C12          0.3367 -15.5750  11.7877 C.ar           1 <1>                0.0000
     13 C13         -0.4897 -16.5435  12.3432 C.ar           1 <1>                0.0000
     14 C14         -0.0399 -17.3083  13.4016 C.ar           1 <1>                0.0000
     15 C15          1.2315 -17.1108  13.9083 C.ar           1 <1>                0.0000
     16 C16          2.0569 -16.1476  13.3575 C.ar           1 <1>                0.0000
     17 C17          1.6153 -15.3829  12.2956 C.ar           1 <1>                0.0000
     18 H18         -0.4950 -14.6402   8.0094 H              1 <1>                0.0000
     19 H19          1.0790 -13.8674   7.6843 H              1 <1>                0.0000
     20 H20          1.2105 -15.7354   9.3813 H              1 <1>                0.0000
     21 H21          1.7601 -14.1641  10.0131 H              1 <1>                0.0000
     22 H22         -1.2209 -13.5472  11.9901 H              1 <1>                0.0000
     23 H23          0.3703 -12.9134  11.5041 H              1 <1>                0.0000
     24 H24         -1.3525 -11.6737  10.3045 H              1 <1>                0.0000
     25 H25         -2.0984 -13.1906   9.7360 H              1 <1>                0.0000
     26 H26         -1.4829 -16.6980  11.9482 H              1 <1>                0.0000
     27 H27         -0.6821 -18.0611  13.8343 H              1 <1>                0.0000
     28 H28          1.5806 -17.7100  14.7362 H              1 <1>                0.0000
     29 H29          3.0492 -15.9959  13.7556 H              1 <1>                0.0000
     30 H30          2.2605 -14.6310  11.8657 H              1 <1>                0.0000
@<TRIPOS>BOND
    1    1    2 ar    
    2    2    3 ar    
    3    2    4 1     
    4    4    5 2     
    5    4    6 am    
    6    6    7 1     
    7    6   11 1     
    8    7    8 1     
    9    7   18 1     
   10    7   19 1     
   11    8    9 1     
   12    8   20 1     
   13    8   21 1     
   14    9   10 1     
   15    9   12 1     
   16   10   11 1     
   17   10   22 1     
   18   10   23 1     
   19   11   24 1     
   20   11   25 1     
   21   12   13 ar    
   22   12   17 ar    
   23   13   14 ar    
   24   13   26 1     
   25   14   15 ar    
   26   14   27 1     
   27   15   16 ar    
   28   15   28 1     
   29   16   17 ar    
   30   16   29 1     
   31   17   30 1     
@<TRIPOS>SUBSTRUCTURE
      1 ****           1
@<TRIPOS>COMMENT
> <Gold.Version>
2022.2.0

> <Gold.Id.Protein>
3pbl|protein|mol2

> <Gold.Protein.RotatedTorsions>
[ 1303 1298 1297 1294 ] final   93.50 input  179.99 | X-H torsion
[ 2461 2456 2455 2452 ] final -115.63 input   30.03 | X-H torsion
[ 2515 2510 2509 2506 ] final -170.20 input  -89.99 | X-H torsion
[ 3721 3712 3711 3710 ] final   12.52 input -179.91 | X-H torsion
[ 3841 3832 3831 3830 ] final -162.34 input -179.91 | X-H torsion
[ 3767 3762 3761 3758 ] final  -81.17 input  -89.99 | X-H torsion
[ 2472 2467 2466 2463 ] final  -98.57 input  -89.97 | X-H torsion

> <Gold.Protein.ActiveResidues>
 VAL82   VAL86   LEU89   PHE106  VAL107  ASP110  VAL111  MET112  CYS114  THR115 
 CYS181  SER182  ILE183  PHE188  VAL189  ILE190  SER192  SER193  SER196  TRP342 
 PHE345  PHE346  HIS349  VAL350  TYR365  THR369  GLY372  TYR373 

> <Gold.Protein.RotatedAtoms>
    4.4590  -10.0887    4.8767 H   0  0  0  0  0  0  0  0  0  0  0  0  # atno 1303 bound_to 1298
    0.5300   -9.1436    8.0065 H   0  0  0  0  0  0  0  0  0  0  0  0  # atno 2461 bound_to 2456
   -4.1647   -5.3799    9.3594 H   0  0  0  0  0  0  0  0  0  0  0  0  # atno 2472 bound_to 2467
    2.3915   -9.1286    5.7286 H   0  0  0  0  0  0  0  0  0  0  0  0  # atno 2515 bound_to 2510
   -2.4707  -18.0128   14.0627 H   0  0  0  0  0  0  0  0  0  0  0  0  # atno 3721 bound_to 3712
   -5.3130  -21.9424   11.0991 H   0  0  0  0  0  0  0  0  0  0  0  0  # atno 3767 bound_to 3762
    2.7789  -19.8622    8.3540 H   0  0  0  0  0  0  0  0  0  0  0  0  # atno 3841 bound_to 3832
    3.3322   -9.4870    3.8596 LP  0  0  0  0  0  0  0  0  0  0  0  0  # atno 4297 bound_to 1298
    4.5709   -8.5454    4.3550 LP  0  0  0  0  0  0  0  0  0  0  0  0  # atno 4298 bound_to 1298
    2.0979   -8.6978    8.1084 LP  0  0  0  0  0  0  0  0  0  0  0  0  # atno 4299 bound_to 2456
    1.1096   -7.9670    7.0333 LP  0  0  0  0  0  0  0  0  0  0  0  0  # atno 4300 bound_to 2456
    2.1048   -7.5273    5.5892 LP  0  0  0  0  0  0  0  0  0  0  0  0  # atno 4301 bound_to 2510
    2.8004   -8.3428    4.3572 LP  0  0  0  0  0  0  0  0  0  0  0  0  # atno 4302 bound_to 2510
   -3.3632  -16.7965   14.6122 LP  0  0  0  0  0  0  0  0  0  0  0  0  # atno 4306 bound_to 3712
   -3.3120  -17.1337   13.0152 LP  0  0  0  0  0  0  0  0  0  0  0  0  # atno 4307 bound_to 3712
    2.6293  -21.1554    9.2928 LP  0  0  0  0  0  0  0  0  0  0  0  0  # atno 4314 bound_to 3832
    1.3900  -20.1061    9.1206 LP  0  0  0  0  0  0  0  0  0  0  0  0  # atno 4315 bound_to 3832
   -3.9502  -22.7938   11.3903 LP  0  0  0  0  0  0  0  0  0  0  0  0  # atno 4318 bound_to 3762
   -4.8643  -23.1385   10.0818 LP  0  0  0  0  0  0  0  0  0  0  0  0  # atno 4319 bound_to 3762
   -5.5075   -5.1984    8.4481 LP  0  0  0  0  0  0  0  0  0  0  0  0  # atno 4320 bound_to 2467
   -4.0446   -4.8153    7.8319 LP  0  0  0  0  0  0  0  0  0  0  0  0  # atno 4321 bound_to 2467

> <Gold.Score>
     Score     S(PLP)   S(hbond)     S(cho)   S(metal)  DE(clash)   DE(tors)     intcor
     47.35     -42.13       1.99       0.00       0.00       0.00       1.07       1.38

> <Gold.PLP.Fitness>
47.3531

> <Gold.PLP.PLP>
-42.1345

> <Gold.PLP.part.hbond>
-3.0000

> <Gold.PLP.part.metal>
0.0000

> <Gold.PLP.part.buried>
-0.7791

> <Gold.PLP.part.nonpolar>
-40.2686

> <Gold.PLP.part.repulsive>
0.1928

> <Gold.PLP.ligand.clash>
0.0000

> <Gold.PLP.ligand.torsion>
1.0668

> <Gold.PLP.Chemscore.Hbond>
1.9913

> <Gold.PLP.Chemscore.CHOScore>
0.0000

> <Gold.PLP.Chemscore.Metal>
0.0000

> <Gold.Chemscore.Hbonds>
donor molecule, donor type, donor heavy atom, donor atom, acceptor molecule, acceptor atom, score
      P1  H  2456  2461       L1     5  1.00
      P1  H  2510  2515       L1     1  0.99

> <Gold.PLP.Chemscore.Internal.Correction>
1.3785

