#       Name:                plp ligand
#       Creating user name   fsindt
#       Creation time:       Tue Feb 28 07:51:18 2023


#       File generated by GOLD software.
#

@<TRIPOS>MOLECULE
plp ligand
    30    31     1
SMALL
USER_CHARGES


@<TRIPOS>ATOM
      1 O1          -5.4781   0.5425  -1.0654 ACCEPTOR       1 <1>               -1.0000
      2 C2          -4.4205   0.6864  -0.4741 NONPOLAR       1 <1>                0.0000
      3 O3          -4.0221   1.8067  -0.2002 ACCEPTOR       1 <1>                0.0000
      4 C4          -3.6148  -0.5117  -0.0791 NONPOLAR       1 <1>                0.0000
      5 O5          -4.0683  -1.6260  -0.2356 ACCEPTOR       1 <1>                0.0000
      6 N6          -2.3857  -0.3526   0.4504 NONPOLAR       1 <1>                0.0000
      7 C7          -1.5666  -1.5168   0.8205 NONPOLAR       1 <1>                0.0000
      8 C8          -0.1816  -1.3598   0.1838 NONPOLAR       1 <1>                0.0000
      9 N9           0.3830  -0.0576   0.5623 ACCEPTOR       1 <1>                0.0000
     10 C10         -0.4325   1.0482   0.0425 NONPOLAR       1 <1>                0.0000
     11 C11         -1.8254   0.9898   0.6677 NONPOLAR       1 <1>                0.0000
     12 C12          1.7088   0.0557   0.1376 NONPOLAR       1 <1>                0.0000
     13 C13          2.4264   1.2162   0.3981 NONPOLAR       1 <1>                0.0000
     14 C14          3.7373   1.3246  -0.0228 NONPOLAR       1 <1>                0.0000
     15 C15          4.3356   0.2796  -0.7028 NONPOLAR       1 <1>                0.0000
     16 C16          3.6240  -0.8771  -0.9637 NONPOLAR       1 <1>                0.0000
     17 C17          2.3144  -0.9942  -0.5410 NONPOLAR       1 <1>                0.0000
     18 H18         -1.4678  -1.5651   1.9049                1 <1>                0.0000
     19 H19         -2.0378  -2.4280   0.4520                1 <1>                0.0000
     20 H20          0.4733  -2.1566   0.5365                1 <1>                0.0000
     21 H21         -0.2715  -1.4158  -0.9011                1 <1>                0.0000
     22 H22          0.0404   1.9978   0.2928                1 <1>                0.0000
     23 H23         -0.5190   0.9587  -1.0403                1 <1>                0.0000
     24 H24         -2.4679   1.7364   0.2010                1 <1>                0.0000
     25 H25         -1.7545   1.1815   1.7384                1 <1>                0.0000
     26 H26          1.9597   2.0328   0.9288                1 <1>                0.0000
     27 H27          4.2957   2.2268   0.1790                1 <1>                0.0000
     28 H28          5.3607   0.3672  -1.0311                1 <1>                0.0000
     29 H29          4.0942  -1.6913  -1.4950                1 <1>                0.0000
     30 H30          1.7594  -1.8980  -0.7448                1 <1>                0.0000
@<TRIPOS>BOND
    1    1    2 ar    
    2    2    3 ar    
    3    2    4 1     
    4    4    5 2     
    5    4    6 am    
    6    6    7 1     
    7    6   11 1     
    8    7    8 1     
    9    7   18 1     
   10    7   19 1     
   11    8    9 1     
   12    8   20 1     
   13    8   21 1     
   14    9   10 1     
   15    9   12 1     
   16   10   11 1     
   17   10   22 1     
   18   10   23 1     
   19   11   24 1     
   20   11   25 1     
   21   12   13 ar    
   22   12   17 ar    
   23   13   14 ar    
   24   13   26 1     
   25   14   15 ar    
   26   14   27 1     
   27   15   16 ar    
   28   15   28 1     
   29   16   17 ar    
   30   16   29 1     
   31   17   30 1     
@<TRIPOS>SUBSTRUCTURE
      1 ****           1
@<TRIPOS>SET
DONOR_HYDROGENS      STATIC     ATOMS    <user>   **** ""
0
ATOM$RED        STATIC     ATOMS    COLORGROUP SYSTEM
0
