#       Name:                EN300-160487_i001
#       Creating user name   aseyller
#       Creation time:       Fri Apr 21 16:47:17 2023


#       File generated by GOLD software.
#

@<TRIPOS>MOLECULE
EN300-160487_i001|aminophenols|mol2|123|dock17
    19    19     1
SMALL
USER_CHARGES


@<TRIPOS>ATOM
      1 N1          31.6814  33.2030  38.8476 N.pl3          1 <1>                0.0000
      2 C2          31.8011  34.4742  38.2675 C.ar           1 <1>                0.0000
      3 C3          32.7135  34.6875  37.2451 C.ar           1 <1>                0.0000
      4 C4          32.8314  35.9404  36.6734 C.ar           1 <1>                0.0000
      5 C5          32.0378  36.9864  37.1201 C.ar           1 <1>                0.0000
      6 O6          32.1561  38.2179  36.5556 O.3            1 <1>                0.0000
      7 C7          31.4580  38.4389  35.3284 C.3            1 <1>                0.0000
      8 F8          31.9983  37.6203  34.3308 F              1 <1>                0.0000
      9 F9          30.1039  38.1324  35.5004 F              1 <1>                0.0000
     10 F10         31.5885  39.7801  34.9526 F              1 <1>                0.0000
     11 C11         31.1233  36.7776  38.1416 C.ar           1 <1>                0.0000
     12 C12         30.9997  35.5223  38.7136 C.ar           1 <1>                0.0000
     13 O13         30.1031  35.3155  39.7151 O.3            1 <1>                0.0000
     14 H14         33.3325  33.8744  36.8957 H              1 <1>                0.0000
     15 H15         33.5428  36.1052  35.8777 H              1 <1>                0.0000
     16 H16         30.5057  37.5927  38.4889 H              1 <1>                0.0000
     17 H17         32.2370  32.4725  38.5337 H              1 <1>                0.0000
     18 H18         31.0460  33.0554  39.5654 H              1 <1>                0.0000
     19 H19         30.4808  35.3874  40.6024 H              1 <1>                0.0000
@<TRIPOS>BOND
    1    1    2 1     
    2    1   17 1     
    3    1   18 1     
    4    2    3 ar    
    5    2   12 ar    
    6    3    4 ar    
    7    3   14 1     
    8    4    5 ar    
    9    4   15 1     
   10    5    6 1     
   11    5   11 ar    
   12    6    7 1     
   13    7    8 1     
   14    7    9 1     
   15    7   10 1     
   16   11   12 ar    
   17   11   16 1     
   18   12   13 1     
   19   13   19 1     
@<TRIPOS>SUBSTRUCTURE
      1 ****           1
@<TRIPOS>SET
DONOR_HYDROGENS      STATIC     ATOMS    <user>   **** ""
3 17 18 19
ATOM$RED        STATIC     ATOMS    COLORGROUP SYSTEM
3 17 18 19
@<TRIPOS>COMMENT
> <Gold.Version>
2022.2.0

> <Gold.Id.Protein>
1qkm|1qkm_protein|mol2

> <Gold.Protein.RotatedTorsions>
[  496  491  490  487 ] final    4.53 input  -89.99 | X-H torsion

> <Gold.Protein.ActiveResidues>
 MET295  LEU298  THR299  LEU301  ALA302  GLU305  TRP335  MET336  LEU339  MET340 
 GLY342  LEU343  ARG346  PHE356  ILE373  ILE376  PHE377  LEU380  LYS471  GLY472 
 MET473  HIS475  LEU476  LEU477  ASN478  MET479  VAL484  VAL487 

> <Gold.Protein.RotatedAtoms>
   36.2639   34.1480   42.2712 H   0  0  0  0  0  0  0  0  0  0  0  0  # atno 496  bound_to 491 

> <Gold.Score>
     Score     S(PLP)   S(hbond)     S(cho)   S(metal)  DE(clash)   DE(tors)     intcor
     38.12     -35.14       1.00       0.00       0.00       0.00       0.33       0.65

> <Gold.PLP.Fitness>
38.1229

> <Gold.PLP.PLP>
-35.1431

> <Gold.PLP.part.hbond>
-1.0000

> <Gold.PLP.part.metal>
0.0000

> <Gold.PLP.part.buried>
-2.3655

> <Gold.PLP.part.nonpolar>
-32.6383

> <Gold.PLP.part.repulsive>
0.0466

> <Gold.PLP.ligand.clash>
0.0000

> <Gold.PLP.ligand.torsion>
0.3346

> <Gold.PLP.Chemscore.Hbond>
1.0000

> <Gold.PLP.Chemscore.CHOScore>
0.0000

> <Gold.PLP.Chemscore.Metal>
0.0000

> <Gold.Chemscore.Hbonds>
donor molecule, donor type, donor heavy atom, donor atom, acceptor molecule, acceptor atom, score
      L1  H    13    19       P1   470  1.00

> <Gold.PLP.Chemscore.Internal.Correction>
0.6490

