#       Name:                EN300-160487_i001
#       Creating user name   aseyller
#       Creation time:       Fri Apr 21 16:47:03 2023


#       File generated by GOLD software.
#

@<TRIPOS>MOLECULE
EN300-160487_i001|aminophenols|mol2|123|dock1
    19    19     1
SMALL
USER_CHARGES


@<TRIPOS>ATOM
      1 N1          25.4931  35.8361  41.0889 N.pl3          1 <1>                0.0000
      2 C2          26.7027  36.2379  40.5042 C.ar           1 <1>                0.0000
      3 C3          26.7029  36.8464  39.2580 C.ar           1 <1>                0.0000
      4 C4          27.8952  37.2425  38.6817 C.ar           1 <1>                0.0000
      5 C5          29.0933  37.0329  39.3479 C.ar           1 <1>                0.0000
      6 O6          30.2648  37.4237  38.7783 O.3            1 <1>                0.0000
      7 C7          30.8190  36.5646  37.7798 C.3            1 <1>                0.0000
      8 F8          30.9068  35.2619  38.2822 F              1 <1>                0.0000
      9 F9          29.9966  36.5736  36.6481 F              1 <1>                0.0000
     10 F10         32.0962  37.0173  37.4318 F              1 <1>                0.0000
     11 C11         29.0980  36.4255  40.5947 C.ar           1 <1>                0.0000
     12 C12         27.9047  36.0314  41.1768 C.ar           1 <1>                0.0000
     13 O13         27.9073  35.4361  42.3996 O.3            1 <1>                0.0000
     14 H14         25.7710  37.0107  38.7374 H              1 <1>                0.0000
     15 H15         27.8938  37.7157  37.7109 H              1 <1>                0.0000
     16 H16         30.0316  36.2626  41.1128 H              1 <1>                0.0000
     17 H17         24.6560  35.9838  40.6217 H              1 <1>                0.0000
     18 H18         25.4940  35.4068  41.9587 H              1 <1>                0.0000
     19 H19         27.0328  35.1560  42.7027 H              1 <1>                0.0000
@<TRIPOS>BOND
    1    1    2 1     
    2    1   17 1     
    3    1   18 1     
    4    2    3 ar    
    5    2   12 ar    
    6    3    4 ar    
    7    3   14 1     
    8    4    5 ar    
    9    4   15 1     
   10    5    6 1     
   11    5   11 ar    
   12    6    7 1     
   13    7    8 1     
   14    7    9 1     
   15    7   10 1     
   16   11   12 ar    
   17   11   16 1     
   18   12   13 1     
   19   13   19 1     
@<TRIPOS>SUBSTRUCTURE
      1 ****           1
@<TRIPOS>SET
DONOR_HYDROGENS      STATIC     ATOMS    <user>   **** ""
3 17 18 19
ATOM$RED        STATIC     ATOMS    COLORGROUP SYSTEM
3 17 18 19
@<TRIPOS>COMMENT
> <Gold.Version>
2022.2.0

> <Gold.Id.Protein>
1qkm|1qkm_protein|mol2

> <Gold.Protein.RotatedTorsions>
[  496  491  490  487 ] final  -59.45 input  -89.99 | X-H torsion

> <Gold.Protein.ActiveResidues>
 MET295  LEU298  THR299  LEU301  ALA302  GLU305  TRP335  MET336  LEU339  MET340 
 GLY342  LEU343  ARG346  PHE356  ILE373  ILE376  PHE377  LEU380  LYS471  GLY472 
 MET473  HIS475  LEU476  LEU477  ASN478  MET479  VAL484  VAL487 

> <Gold.Protein.RotatedAtoms>
   36.4928   34.7312   41.4927 H   0  0  0  0  0  0  0  0  0  0  0  0  # atno 496  bound_to 491 

> <Gold.Score>
     Score     S(PLP)   S(hbond)     S(cho)   S(metal)  DE(clash)   DE(tors)     intcor
     45.03     -38.49       2.19       0.00       0.00       0.02       0.33       0.65

> <Gold.PLP.Fitness>
45.0348

> <Gold.PLP.PLP>
-38.4852

> <Gold.PLP.part.hbond>
-2.0871

> <Gold.PLP.part.metal>
0.0000

> <Gold.PLP.part.buried>
-2.3337

> <Gold.PLP.part.nonpolar>
-34.6600

> <Gold.PLP.part.repulsive>
0.1270

> <Gold.PLP.ligand.clash>
0.0166

> <Gold.PLP.ligand.torsion>
0.3257

> <Gold.PLP.Chemscore.Hbond>
2.1895

> <Gold.PLP.Chemscore.CHOScore>
0.0000

> <Gold.PLP.Chemscore.Metal>
0.0000

> <Gold.Chemscore.Hbonds>
donor molecule, donor type, donor heavy atom, donor atom, acceptor molecule, acceptor atom, score
      L1  H     1    17       P1  1131  0.31
      L1  H     1    18       P1   582  0.88
      L1  H    13    19       P1   582  1.00

> <Gold.PLP.Chemscore.Internal.Correction>
0.6490

