#       Name:                EN300-160487_i001
#       Creating user name   aseyller
#       Creation time:       Fri Apr 21 16:47:04 2023


#       File generated by GOLD software.
#

@<TRIPOS>MOLECULE
EN300-160487_i001|aminophenols|mol2|123|dock2
    19    19     1
SMALL
USER_CHARGES


@<TRIPOS>ATOM
      1 N1          25.0702  35.9845  41.5131 N.pl3          1 <1>                0.0000
      2 C2          26.3087  36.3134  40.9435 C.ar           1 <1>                0.0000
      3 C3          27.4847  35.9745  41.5960 C.ar           1 <1>                0.0000
      4 C4          28.7055  36.2986  41.0344 C.ar           1 <1>                0.0000
      5 C5          28.7573  36.9626  39.8180 C.ar           1 <1>                0.0000
      6 O6          29.9599  37.2801  39.2681 O.3            1 <1>                0.0000
      7 C7          30.4395  36.4320  38.2226 C.3            1 <1>                0.0000
      8 F8          31.7590  36.7768  37.9109 F              1 <1>                0.0000
      9 F9          30.3930  35.0992  38.6450 F              1 <1>                0.0000
     10 F10         29.6358  36.5901  37.0885 F              1 <1>                0.0000
     11 C11         27.5840  37.3027  39.1614 C.ar           1 <1>                0.0000
     12 C12         26.3593  36.9755  39.7193 C.ar           1 <1>                0.0000
     13 O13         25.2076  37.3078  39.0767 O.3            1 <1>                0.0000
     14 H14         27.4466  35.4574  42.5434 H              1 <1>                0.0000
     15 H15         29.6204  36.0346  41.5440 H              1 <1>                0.0000
     16 H16         27.6254  37.8198  38.2142 H              1 <1>                0.0000
     17 H17         25.0358  35.5198  42.3638 H              1 <1>                0.0000
     18 H18         24.2480  36.2254  41.0583 H              1 <1>                0.0000
     19 H19         24.4663  36.7169  39.2672 H              1 <1>                0.0000
@<TRIPOS>BOND
    1    1    2 1     
    2    1   17 1     
    3    1   18 1     
    4    2    3 ar    
    5    2   12 ar    
    6    3    4 ar    
    7    3   14 1     
    8    4    5 ar    
    9    4   15 1     
   10    5    6 1     
   11    5   11 ar    
   12    6    7 1     
   13    7    8 1     
   14    7    9 1     
   15    7   10 1     
   16   11   12 ar    
   17   11   16 1     
   18   12   13 1     
   19   13   19 1     
@<TRIPOS>SUBSTRUCTURE
      1 ****           1
@<TRIPOS>SET
DONOR_HYDROGENS      STATIC     ATOMS    <user>   **** ""
3 17 18 19
ATOM$RED        STATIC     ATOMS    COLORGROUP SYSTEM
3 17 18 19
@<TRIPOS>COMMENT
> <Gold.Version>
2022.2.0

> <Gold.Id.Protein>
1qkm|1qkm_protein|mol2

> <Gold.Protein.RotatedTorsions>
[  496  491  490  487 ] final  119.04 input  -89.99 | X-H torsion

> <Gold.Protein.ActiveResidues>
 MET295  LEU298  THR299  LEU301  ALA302  GLU305  TRP335  MET336  LEU339  MET340 
 GLY342  LEU343  ARG346  PHE356  ILE373  ILE376  PHE377  LEU380  LYS471  GLY472 
 MET473  HIS475  LEU476  LEU477  ASN478  MET479  VAL484  VAL487 

> <Gold.Protein.RotatedAtoms>
   37.0731   32.9420   41.6326 H   0  0  0  0  0  0  0  0  0  0  0  0  # atno 496  bound_to 491 

> <Gold.Score>
     Score     S(PLP)   S(hbond)     S(cho)   S(metal)  DE(clash)   DE(tors)     intcor
     43.24     -37.72       1.93       0.00       0.00       0.26       0.33       0.65

> <Gold.PLP.Fitness>
43.2437

> <Gold.PLP.PLP>
-37.7167

> <Gold.PLP.part.hbond>
-2.6840

> <Gold.PLP.part.metal>
0.0000

> <Gold.PLP.part.buried>
-1.5159

> <Gold.PLP.part.nonpolar>
-34.1658

> <Gold.PLP.part.repulsive>
0.1932

> <Gold.PLP.ligand.clash>
0.2575

> <Gold.PLP.ligand.torsion>
0.3250

> <Gold.PLP.Chemscore.Hbond>
1.9285

> <Gold.PLP.Chemscore.CHOScore>
0.0000

> <Gold.PLP.Chemscore.Metal>
0.0000

> <Gold.Chemscore.Hbonds>
donor molecule, donor type, donor heavy atom, donor atom, acceptor molecule, acceptor atom, score
      L1  H     1    17       P1   582  0.96
      L1  H     1    18       P1  1131  0.68
      L1  H    13    19       P1  1131  0.29

> <Gold.PLP.Chemscore.Internal.Correction>
0.6490

