#       Name:                EN300-160487_i001
#       Creating user name   aseyller
#       Creation time:       Fri Apr 21 16:47:05 2023


#       File generated by GOLD software.
#

@<TRIPOS>MOLECULE
EN300-160487_i001|aminophenols|mol2|123|dock3
    19    19     1
SMALL
USER_CHARGES


@<TRIPOS>ATOM
      1 N1          25.7476  36.3109  42.0786 N.pl3          1 <1>                0.0000
      2 C2          26.5429  36.3143  40.9237 C.ar           1 <1>                0.0000
      3 C3          27.7691  35.6664  40.9233 C.ar           1 <1>                0.0000
      4 C4          28.5530  35.6698  39.7848 C.ar           1 <1>                0.0000
      5 C5          28.1153  36.3202  38.6408 C.ar           1 <1>                0.0000
      6 O6          28.8888  36.3218  37.5223 O.3            1 <1>                0.0000
      7 C7          29.7395  37.4526  37.3233 C.3            1 <1>                0.0000
      8 F8          30.5200  37.2535  36.1795 F              1 <1>                0.0000
      9 F9          28.9579  38.6014  37.1604 F              1 <1>                0.0000
     10 F10         30.5736  37.6100  38.4354 F              1 <1>                0.0000
     11 C11         26.8894  36.9687  38.6361 C.ar           1 <1>                0.0000
     12 C12         26.0997  36.9635  39.7739 C.ar           1 <1>                0.0000
     13 O13         24.8970  37.5984  39.7711 O.3            1 <1>                0.0000
     14 H14         28.1119  35.1592  41.8131 H              1 <1>                0.0000
     15 H15         29.5080  35.1654  39.7863 H              1 <1>                0.0000
     16 H16         26.5494  37.4750  37.7448 H              1 <1>                0.0000
     17 H17         26.0550  35.8552  42.8778 H              1 <1>                0.0000
     18 H18         24.8919  36.7677  42.0795 H              1 <1>                0.0000
     19 H19         24.1372  37.0022  39.8192 H              1 <1>                0.0000
@<TRIPOS>BOND
    1    1    2 1     
    2    1   17 1     
    3    1   18 1     
    4    2    3 ar    
    5    2   12 ar    
    6    3    4 ar    
    7    3   14 1     
    8    4    5 ar    
    9    4   15 1     
   10    5    6 1     
   11    5   11 ar    
   12    6    7 1     
   13    7    8 1     
   14    7    9 1     
   15    7   10 1     
   16   11   12 ar    
   17   11   16 1     
   18   12   13 1     
   19   13   19 1     
@<TRIPOS>SUBSTRUCTURE
      1 ****           1
@<TRIPOS>SET
DONOR_HYDROGENS      STATIC     ATOMS    <user>   **** ""
3 17 18 19
ATOM$RED        STATIC     ATOMS    COLORGROUP SYSTEM
3 17 18 19
@<TRIPOS>COMMENT
> <Gold.Version>
2022.2.0

> <Gold.Id.Protein>
1qkm|1qkm_protein|mol2

> <Gold.Protein.RotatedTorsions>
[  496  491  490  487 ] final  -74.30 input  -89.99 | X-H torsion

> <Gold.Protein.ActiveResidues>
 MET295  LEU298  THR299  LEU301  ALA302  GLU305  TRP335  MET336  LEU339  MET340 
 GLY342  LEU343  ARG346  PHE356  ILE373  ILE376  PHE377  LEU380  LYS471  GLY472 
 MET473  HIS475  LEU476  LEU477  ASN478  MET479  VAL484  VAL487 

> <Gold.Protein.RotatedAtoms>
   36.6153   34.7246   41.2821 H   0  0  0  0  0  0  0  0  0  0  0  0  # atno 496  bound_to 491 

> <Gold.Score>
     Score     S(PLP)   S(hbond)     S(cho)   S(metal)  DE(clash)   DE(tors)     intcor
     41.29     -35.38       1.99       0.00       0.00       0.00       0.36       0.65

> <Gold.PLP.Fitness>
41.2947

> <Gold.PLP.PLP>
-35.3846

> <Gold.PLP.part.hbond>
-1.7764

> <Gold.PLP.part.metal>
0.0000

> <Gold.PLP.part.buried>
1.4056

> <Gold.PLP.part.nonpolar>
-35.3549

> <Gold.PLP.part.repulsive>
0.0964

> <Gold.PLP.ligand.clash>
0.0000

> <Gold.PLP.ligand.torsion>
0.3575

> <Gold.PLP.Chemscore.Hbond>
1.9920

> <Gold.PLP.Chemscore.CHOScore>
0.0000

> <Gold.PLP.Chemscore.Metal>
0.0000

> <Gold.Chemscore.Hbonds>
donor molecule, donor type, donor heavy atom, donor atom, acceptor molecule, acceptor atom, score
      L1  H     1    17       P1   582  0.99
      L1  H    13    19       P1  1131  1.00

> <Gold.PLP.Chemscore.Internal.Correction>
0.6490

