#       Name:                EN300-160487_i001
#       Creating user name   aseyller
#       Creation time:       Fri Apr 21 16:47:11 2023


#       File generated by GOLD software.
#

@<TRIPOS>MOLECULE
EN300-160487_i001|aminophenols|mol2|123|dock10
    19    19     1
SMALL
USER_CHARGES


@<TRIPOS>ATOM
      1 N1          26.5338  36.2900  42.0467 N.pl3          1 <1>                0.0000
      2 C2          27.1756  36.5111  40.8196 C.ar           1 <1>                0.0000
      3 C3          26.4364  36.8835  39.7069 C.ar           1 <1>                0.0000
      4 C4          27.0691  37.1015  38.4974 C.ar           1 <1>                0.0000
      5 C5          28.4435  36.9489  38.3939 C.ar           1 <1>                0.0000
      6 O6          29.0631  37.1641  37.2025 O.3            1 <1>                0.0000
      7 C7          29.3859  38.5169  36.8742 C.3            1 <1>                0.0000
      8 F8          30.0816  38.5489  35.6609 F              1 <1>                0.0000
      9 F9          28.2078  39.2620  36.7560 F              1 <1>                0.0000
     10 F10         30.1844  39.0641  37.8842 F              1 <1>                0.0000
     11 C11         29.1870  36.5775  39.5041 C.ar           1 <1>                0.0000
     12 C12         28.5567  36.3625  40.7185 C.ar           1 <1>                0.0000
     13 O13         29.2841  35.9987  41.8085 O.3            1 <1>                0.0000
     14 H14         25.3658  37.0030  39.7853 H              1 <1>                0.0000
     15 H15         26.4920  37.3908  37.6315 H              1 <1>                0.0000
     16 H16         30.2574  36.4588  39.4226 H              1 <1>                0.0000
     17 H17         25.5724  36.3976  42.1175 H              1 <1>                0.0000
     18 H18         27.0508  36.0256  42.8237 H              1 <1>                0.0000
     19 H19         30.2136  35.8130  41.6171 H              1 <1>                0.0000
@<TRIPOS>BOND
    1    1    2 1     
    2    1   17 1     
    3    1   18 1     
    4    2    3 ar    
    5    2   12 ar    
    6    3    4 ar    
    7    3   14 1     
    8    4    5 ar    
    9    4   15 1     
   10    5    6 1     
   11    5   11 ar    
   12    6    7 1     
   13    7    8 1     
   14    7    9 1     
   15    7   10 1     
   16   11   12 ar    
   17   11   16 1     
   18   12   13 1     
   19   13   19 1     
@<TRIPOS>SUBSTRUCTURE
      1 ****           1
@<TRIPOS>SET
DONOR_HYDROGENS      STATIC     ATOMS    <user>   **** ""
3 17 18 19
ATOM$RED        STATIC     ATOMS    COLORGROUP SYSTEM
3 17 18 19
@<TRIPOS>COMMENT
> <Gold.Version>
2022.2.0

> <Gold.Id.Protein>
1qkm|1qkm_protein|mol2

> <Gold.Protein.RotatedTorsions>
[  496  491  490  487 ] final  179.80 input  -89.99 | X-H torsion

> <Gold.Protein.ActiveResidues>
 MET295  LEU298  THR299  LEU301  ALA302  GLU305  TRP335  MET336  LEU339  MET340 
 GLY342  LEU343  ARG346  PHE356  ILE373  ILE376  PHE377  LEU380  LYS471  GLY472 
 MET473  HIS475  LEU476  LEU477  ASN478  MET479  VAL484  VAL487 

> <Gold.Protein.RotatedAtoms>
   37.3180   33.4587   40.8691 H   0  0  0  0  0  0  0  0  0  0  0  0  # atno 496  bound_to 491 

> <Gold.Score>
     Score     S(PLP)   S(hbond)     S(cho)   S(metal)  DE(clash)   DE(tors)     intcor
     44.63     -41.10       1.19       0.00       0.00       0.02       0.34       0.65

> <Gold.PLP.Fitness>
44.6315

> <Gold.PLP.PLP>
-41.1034

> <Gold.PLP.part.hbond>
-1.8938

> <Gold.PLP.part.metal>
0.0000

> <Gold.PLP.part.buried>
-4.6096

> <Gold.PLP.part.nonpolar>
-35.1371

> <Gold.PLP.part.repulsive>
0.0611

> <Gold.PLP.ligand.clash>
0.0174

> <Gold.PLP.ligand.torsion>
0.3397

> <Gold.PLP.Chemscore.Hbond>
1.1920

> <Gold.PLP.Chemscore.CHOScore>
0.0000

> <Gold.PLP.Chemscore.Metal>
0.0000

> <Gold.Chemscore.Hbonds>
donor molecule, donor type, donor heavy atom, donor atom, acceptor molecule, acceptor atom, score
      L1  H     1    18       P1   582  0.19
      L1  H    13    19       P1   470  1.00

> <Gold.PLP.Chemscore.Internal.Correction>
0.6490

