#       Name:                EN300-160487_i001
#       Creating user name   aseyller
#       Creation time:       Fri Apr 21 16:47:10 2023


#       File generated by GOLD software.
#

@<TRIPOS>MOLECULE
EN300-160487_i001|aminophenols|mol2|123|dock9
    19    19     1
SMALL
USER_CHARGES


@<TRIPOS>ATOM
      1 N1          25.2972  36.7333  39.7882 N.pl3          1 <1>                0.0000
      2 C2          26.6816  36.7515  39.5653 C.ar           1 <1>                0.0000
      3 C3          27.1917  37.3329  38.4141 C.ar           1 <1>                0.0000
      4 C4          28.5562  37.3509  38.1944 C.ar           1 <1>                0.0000
      5 C5          29.4180  36.7886  39.1242 C.ar           1 <1>                0.0000
      6 O6          30.7601  36.8079  38.9052 O.3            1 <1>                0.0000
      7 C7          31.2910  35.8010  38.0413 C.3            1 <1>                0.0000
      8 F8          30.8988  34.5389  38.5001 F              1 <1>                0.0000
      9 F9          30.8064  35.9969  36.7437 F              1 <1>                0.0000
     10 F10         32.6877  35.8815  38.0346 F              1 <1>                0.0000
     11 C11         28.9126  36.2070  40.2773 C.ar           1 <1>                0.0000
     12 C12         27.5462  36.1910  40.5024 C.ar           1 <1>                0.0000
     13 O13         27.0487  35.6216  41.6329 O.3            1 <1>                0.0000
     14 H14         26.5223  37.7714  37.6887 H              1 <1>                0.0000
     15 H15         28.9519  37.8034  37.2972 H              1 <1>                0.0000
     16 H16         29.5845  35.7692  41.0008 H              1 <1>                0.0000
     17 H17         24.6959  37.1273  39.1371 H              1 <1>                0.0000
     18 H18         24.9408  36.3229  40.5916 H              1 <1>                0.0000
     19 H19         27.6108  34.9279  42.0041 H              1 <1>                0.0000
@<TRIPOS>BOND
    1    1    2 1     
    2    1   17 1     
    3    1   18 1     
    4    2    3 ar    
    5    2   12 ar    
    6    3    4 ar    
    7    3   14 1     
    8    4    5 ar    
    9    4   15 1     
   10    5    6 1     
   11    5   11 ar    
   12    6    7 1     
   13    7    8 1     
   14    7    9 1     
   15    7   10 1     
   16   11   12 ar    
   17   11   16 1     
   18   12   13 1     
   19   13   19 1     
@<TRIPOS>SUBSTRUCTURE
      1 ****           1
@<TRIPOS>SET
DONOR_HYDROGENS      STATIC     ATOMS    <user>   **** ""
3 17 18 19
ATOM$RED        STATIC     ATOMS    COLORGROUP SYSTEM
3 17 18 19
@<TRIPOS>COMMENT
> <Gold.Version>
2022.2.0

> <Gold.Id.Protein>
1qkm|1qkm_protein|mol2

> <Gold.Protein.RotatedTorsions>
[  496  491  490  487 ] final   37.04 input  -89.99 | X-H torsion

> <Gold.Protein.ActiveResidues>
 MET295  LEU298  THR299  LEU301  ALA302  GLU305  TRP335  MET336  LEU339  MET340 
 GLY342  LEU343  ARG346  PHE356  ILE373  ILE376  PHE377  LEU380  LYS471  GLY472 
 MET473  HIS475  LEU476  LEU477  ASN478  MET479  VAL484  VAL487 

> <Gold.Protein.RotatedAtoms>
   36.3854   33.6465   42.3826 H   0  0  0  0  0  0  0  0  0  0  0  0  # atno 496  bound_to 491 

> <Gold.Score>
     Score     S(PLP)   S(hbond)     S(cho)   S(metal)  DE(clash)   DE(tors)     intcor
     38.62     -38.63       0.00       0.00       0.00       0.00       0.33       0.65

> <Gold.PLP.Fitness>
38.6204

> <Gold.PLP.PLP>
-38.6323

> <Gold.PLP.part.hbond>
-2.0000

> <Gold.PLP.part.metal>
0.0000

> <Gold.PLP.part.buried>
-2.1279

> <Gold.PLP.part.nonpolar>
-35.5415

> <Gold.PLP.part.repulsive>
0.1888

> <Gold.PLP.ligand.clash>
0.0000

> <Gold.PLP.ligand.torsion>
0.3305

> <Gold.PLP.Chemscore.Hbond>
0.0000

> <Gold.PLP.Chemscore.CHOScore>
0.0000

> <Gold.PLP.Chemscore.Metal>
0.0000

> <Gold.PLP.Chemscore.Internal.Correction>
0.6490

