#       Name:                EN300-160487_i001
#       Creating user name   aseyller
#       Creation time:       Fri Apr 21 16:47:16 2023


#       File generated by GOLD software.
#

@<TRIPOS>MOLECULE
EN300-160487_i001|aminophenols|mol2|123|dock16
    19    19     1
SMALL
USER_CHARGES


@<TRIPOS>ATOM
      1 N1          34.5402  36.7003  34.9509 N.pl3          1 <1>                0.0000
      2 C2          33.2103  36.7628  35.3912 C.ar           1 <1>                0.0000
      3 C3          32.7753  35.9248  36.4071 C.ar           1 <1>                0.0000
      4 C4          31.4644  35.9865  36.8410 C.ar           1 <1>                0.0000
      5 C5          30.5817  36.8861  36.2625 C.ar           1 <1>                0.0000
      6 O6          29.2926  36.9445  36.6916 O.3            1 <1>                0.0000
      7 C7          28.9941  37.8877  37.7229 C.3            1 <1>                0.0000
      8 F8          27.6248  37.8504  38.0068 F              1 <1>                0.0000
      9 F9          29.7183  37.5636  38.8751 F              1 <1>                0.0000
     10 F10         29.3472  39.1724  37.2962 F              1 <1>                0.0000
     11 C11         31.0123  37.7268  35.2469 C.ar           1 <1>                0.0000
     12 C12         32.3263  37.6705  34.8128 C.ar           1 <1>                0.0000
     13 O13         32.7506  38.4944  33.8174 O.3            1 <1>                0.0000
     14 H14         33.4611  35.2235  36.8591 H              1 <1>                0.0000
     15 H15         31.1270  35.3329  37.6318 H              1 <1>                0.0000
     16 H16         30.3242  38.4270  34.7969 H              1 <1>                0.0000
     17 H17         35.1564  36.0708  35.3569 H              1 <1>                0.0000
     18 H18         34.8428  37.2838  34.2376 H              1 <1>                0.0000
     19 H19         33.7114  38.5937  33.7716 H              1 <1>                0.0000
@<TRIPOS>BOND
    1    1    2 1     
    2    1   17 1     
    3    1   18 1     
    4    2    3 ar    
    5    2   12 ar    
    6    3    4 ar    
    7    3   14 1     
    8    4    5 ar    
    9    4   15 1     
   10    5    6 1     
   11    5   11 ar    
   12    6    7 1     
   13    7    8 1     
   14    7    9 1     
   15    7   10 1     
   16   11   12 ar    
   17   11   16 1     
   18   12   13 1     
   19   13   19 1     
@<TRIPOS>SUBSTRUCTURE
      1 ****           1
@<TRIPOS>SET
DONOR_HYDROGENS      STATIC     ATOMS    <user>   **** ""
3 17 18 19
ATOM$RED        STATIC     ATOMS    COLORGROUP SYSTEM
3 17 18 19
@<TRIPOS>COMMENT
> <Gold.Version>
2022.2.0

> <Gold.Id.Protein>
1qkm|1qkm_protein|mol2

> <Gold.Protein.RotatedTorsions>
[  496  491  490  487 ] final  130.47 input  -89.99 | X-H torsion

> <Gold.Protein.ActiveResidues>
 MET295  LEU298  THR299  LEU301  ALA302  GLU305  TRP335  MET336  LEU339  MET340 
 GLY342  LEU343  ARG346  PHE356  ILE373  ILE376  PHE377  LEU380  LYS471  GLY472 
 MET473  HIS475  LEU476  LEU477  ASN478  MET479  VAL484  VAL487 

> <Gold.Protein.RotatedAtoms>
   37.1561   32.9731   41.4671 H   0  0  0  0  0  0  0  0  0  0  0  0  # atno 496  bound_to 491 

> <Gold.Score>
     Score     S(PLP)   S(hbond)     S(cho)   S(metal)  DE(clash)   DE(tors)     intcor
     39.23     -33.33       2.00       0.00       0.00       0.00       0.37       0.65

> <Gold.PLP.Fitness>
39.2325

> <Gold.PLP.PLP>
-33.3291

> <Gold.PLP.part.hbond>
-2.0000

> <Gold.PLP.part.metal>
0.0000

> <Gold.PLP.part.buried>
1.2819

> <Gold.PLP.part.nonpolar>
-32.2641

> <Gold.PLP.part.repulsive>
0.0759

> <Gold.PLP.ligand.clash>
0.0000

> <Gold.PLP.ligand.torsion>
0.3728

> <Gold.PLP.Chemscore.Hbond>
2.0000

> <Gold.PLP.Chemscore.CHOScore>
0.0000

> <Gold.PLP.Chemscore.Metal>
0.0000

> <Gold.Chemscore.Hbonds>
donor molecule, donor type, donor heavy atom, donor atom, acceptor molecule, acceptor atom, score
      L1  H     1    18       P1  3229  1.00
      L1  H    13    19       P1  3229  1.00

> <Gold.PLP.Chemscore.Internal.Correction>
0.6490

