#       Name:                EN300-160487_i001
#       Creating user name   aseyller
#       Creation time:       Fri Apr 21 16:47:20 2023


#       File generated by GOLD software.
#

@<TRIPOS>MOLECULE
EN300-160487_i001|aminophenols|mol2|123|dock20
    19    19     1
SMALL
USER_CHARGES


@<TRIPOS>ATOM
      1 N1          26.1144  35.7930  41.5223 N.pl3          1 <1>                0.0000
      2 C2          27.2434  36.2223  40.8098 C.ar           1 <1>                0.0000
      3 C3          28.4547  36.3902  41.4642 C.ar           1 <1>                0.0000
      4 C4          29.5675  36.8133  40.7619 C.ar           1 <1>                0.0000
      5 C5          29.4758  37.0703  39.4022 C.ar           1 <1>                0.0000
      6 O6          30.5724  37.4865  38.7140 O.3            1 <1>                0.0000
      7 C7          31.2656  36.5036  37.9423 C.3            1 <1>                0.0000
      8 F8          30.4662  36.1083  36.8644 F              1 <1>                0.0000
      9 F9          32.4618  37.0468  37.4613 F              1 <1>                0.0000
     10 F10         31.5474  35.3935  38.7457 F              1 <1>                0.0000
     11 C11         28.2669  36.9030  38.7434 C.ar           1 <1>                0.0000
     12 C12         27.1510  36.4750  39.4433 C.ar           1 <1>                0.0000
     13 O13         25.9648  36.3098  38.7989 O.3            1 <1>                0.0000
     14 H14         28.5283  36.1905  42.5230 H              1 <1>                0.0000
     15 H15         30.5099  36.9442  41.2729 H              1 <1>                0.0000
     16 H16         28.1963  37.1034  37.6845 H              1 <1>                0.0000
     17 H17         26.1804  35.6133  42.4731 H              1 <1>                0.0000
     18 H18         25.2666  35.6797  41.0649 H              1 <1>                0.0000
     19 H19         25.3740  35.6705  39.2199 H              1 <1>                0.0000
@<TRIPOS>BOND
    1    1    2 1     
    2    1   17 1     
    3    1   18 1     
    4    2    3 ar    
    5    2   12 ar    
    6    3    4 ar    
    7    3   14 1     
    8    4    5 ar    
    9    4   15 1     
   10    5    6 1     
   11    5   11 ar    
   12    6    7 1     
   13    7    8 1     
   14    7    9 1     
   15    7   10 1     
   16   11   12 ar    
   17   11   16 1     
   18   12   13 1     
   19   13   19 1     
@<TRIPOS>SUBSTRUCTURE
      1 ****           1
@<TRIPOS>SET
DONOR_HYDROGENS      STATIC     ATOMS    <user>   **** ""
3 17 18 19
ATOM$RED        STATIC     ATOMS    COLORGROUP SYSTEM
3 17 18 19
@<TRIPOS>COMMENT
> <Gold.Version>
2022.2.0

> <Gold.Id.Protein>
1qkm|1qkm_protein|mol2

> <Gold.Protein.RotatedTorsions>
[  496  491  490  487 ] final  125.78 input  -89.99 | X-H torsion

> <Gold.Protein.ActiveResidues>
 MET295  LEU298  THR299  LEU301  ALA302  GLU305  TRP335  MET336  LEU339  MET340 
 GLY342  LEU343  ARG346  PHE356  ILE373  ILE376  PHE377  LEU380  LYS471  GLY472 
 MET473  HIS475  LEU476  LEU477  ASN478  MET479  VAL484  VAL487 

> <Gold.Protein.RotatedAtoms>
   37.1236   32.9561   41.5349 H   0  0  0  0  0  0  0  0  0  0  0  0  # atno 496  bound_to 491 

> <Gold.Score>
     Score     S(PLP)   S(hbond)     S(cho)   S(metal)  DE(clash)   DE(tors)     intcor
     39.27     -36.46       1.00       0.00       0.00       0.19       0.32       0.65

> <Gold.PLP.Fitness>
39.2706

> <Gold.PLP.PLP>
-36.4597

> <Gold.PLP.part.hbond>
-1.0000

> <Gold.PLP.part.metal>
0.0000

> <Gold.PLP.part.buried>
-1.0450

> <Gold.PLP.part.nonpolar>
-35.6621

> <Gold.PLP.part.repulsive>
0.0881

> <Gold.PLP.ligand.clash>
0.1896

> <Gold.PLP.ligand.torsion>
0.3243

> <Gold.PLP.Chemscore.Hbond>
1.0000

> <Gold.PLP.Chemscore.CHOScore>
0.0000

> <Gold.PLP.Chemscore.Metal>
0.0000

> <Gold.Chemscore.Hbonds>
donor molecule, donor type, donor heavy atom, donor atom, acceptor molecule, acceptor atom, score
      L1  H     1    17       P1   582  1.00

> <Gold.PLP.Chemscore.Internal.Correction>
0.6490

