#       Name:                EN300-160487_i001
#       Creating user name   aseyller
#       Creation time:       Fri Apr 21 16:47:14 2023


#       File generated by GOLD software.
#

@<TRIPOS>MOLECULE
EN300-160487_i001|aminophenols|mol2|123|dock14
    19    19     1
SMALL
USER_CHARGES


@<TRIPOS>ATOM
      1 N1          32.9081  35.7643  37.1818 N.pl3          1 <1>                0.0000
      2 C2          31.7279  36.0586  37.8796 C.ar           1 <1>                0.0000
      3 C3          31.1300  37.3021  37.7389 C.ar           1 <1>                0.0000
      4 C4          29.9667  37.5921  38.4268 C.ar           1 <1>                0.0000
      5 C5          29.3946  36.6410  39.2582 C.ar           1 <1>                0.0000
      6 O6          28.2499  36.9294  39.9336 O.3            1 <1>                0.0000
      7 C7          27.0203  36.7737  39.2223 C.3            1 <1>                0.0000
      8 F8          26.9660  35.4942  38.6594 F              1 <1>                0.0000
      9 F9          25.9471  36.9413  40.1040 F              1 <1>                0.0000
     10 F10         26.9441  37.7334  38.2073 F              1 <1>                0.0000
     11 C11         29.9883  35.3958  39.4014 C.ar           1 <1>                0.0000
     12 C12         31.1516  35.1005  38.7103 C.ar           1 <1>                0.0000
     13 O13         31.7351  33.8799  38.8489 O.3            1 <1>                0.0000
     14 H14         31.5738  38.0442  37.0919 H              1 <1>                0.0000
     15 H15         29.5026  38.5611  38.3167 H              1 <1>                0.0000
     16 H16         29.5421  34.6558  40.0491 H              1 <1>                0.0000
     17 H17         33.3067  36.4305  36.6004 H              1 <1>                0.0000
     18 H18         33.3280  34.8958  37.2838 H              1 <1>                0.0000
     19 H19         32.5585  33.7787  38.3522 H              1 <1>                0.0000
@<TRIPOS>BOND
    1    1    2 1     
    2    1   17 1     
    3    1   18 1     
    4    2    3 ar    
    5    2   12 ar    
    6    3    4 ar    
    7    3   14 1     
    8    4    5 ar    
    9    4   15 1     
   10    5    6 1     
   11    5   11 ar    
   12    6    7 1     
   13    7    8 1     
   14    7    9 1     
   15    7   10 1     
   16   11   12 ar    
   17   11   16 1     
   18   12   13 1     
   19   13   19 1     
@<TRIPOS>SUBSTRUCTURE
      1 ****           1
@<TRIPOS>SET
DONOR_HYDROGENS      STATIC     ATOMS    <user>   **** ""
3 17 18 19
ATOM$RED        STATIC     ATOMS    COLORGROUP SYSTEM
3 17 18 19
@<TRIPOS>COMMENT
> <Gold.Version>
2022.2.0

> <Gold.Id.Protein>
1qkm|1qkm_protein|mol2

> <Gold.Protein.RotatedTorsions>
[  496  491  490  487 ] final  -69.69 input  -89.99 | X-H torsion

> <Gold.Protein.ActiveResidues>
 MET295  LEU298  THR299  LEU301  ALA302  GLU305  TRP335  MET336  LEU339  MET340 
 GLY342  LEU343  ARG346  PHE356  ILE373  ILE376  PHE377  LEU380  LYS471  GLY472 
 MET473  HIS475  LEU476  LEU477  ASN478  MET479  VAL484  VAL487 

> <Gold.Protein.RotatedAtoms>
   36.5756   34.7331   41.3462 H   0  0  0  0  0  0  0  0  0  0  0  0  # atno 496  bound_to 491 

> <Gold.Score>
     Score     S(PLP)   S(hbond)     S(cho)   S(metal)  DE(clash)   DE(tors)     intcor
     42.23     -42.32       0.00       0.00       0.00       0.00       0.37       0.65

> <Gold.PLP.Fitness>
42.2282

> <Gold.PLP.PLP>
-42.3157

> <Gold.PLP.part.hbond>
0.0000

> <Gold.PLP.part.metal>
0.0000

> <Gold.PLP.part.buried>
-3.5653

> <Gold.PLP.part.nonpolar>
-38.9811

> <Gold.PLP.part.repulsive>
0.0358

> <Gold.PLP.ligand.clash>
0.0000

> <Gold.PLP.ligand.torsion>
0.3682

> <Gold.PLP.Chemscore.Hbond>
0.0000

> <Gold.PLP.Chemscore.CHOScore>
0.0000

> <Gold.PLP.Chemscore.Metal>
0.0000

> <Gold.PLP.Chemscore.Internal.Correction>
0.6490

