#       Name:                EN300-160487_i001
#       Creating user name   aseyller
#       Creation time:       Fri Apr 21 16:47:12 2023


#       File generated by GOLD software.
#

@<TRIPOS>MOLECULE
EN300-160487_i001|aminophenols|mol2|123|dock12
    19    19     1
SMALL
USER_CHARGES


@<TRIPOS>ATOM
      1 N1          32.0631  33.3997  38.2018 N.pl3          1 <1>                0.0000
      2 C2          31.9595  34.7440  37.8164 C.ar           1 <1>                0.0000
      3 C3          32.6018  35.1890  36.6706 C.ar           1 <1>                0.0000
      4 C4          32.4996  36.5141  36.2906 C.ar           1 <1>                0.0000
      5 C5          31.7549  37.4010  37.0534 C.ar           1 <1>                0.0000
      6 O6          31.6562  38.7041  36.6770 O.3            1 <1>                0.0000
      7 C7          30.4752  39.0875  35.9696 C.3            1 <1>                0.0000
      8 F8          29.3671  38.9728  36.8157 F              1 <1>                0.0000
      9 F9          30.5986  40.4130  35.5397 F              1 <1>                0.0000
     10 F10         30.3039  38.2517  34.8608 F              1 <1>                0.0000
     11 C11         31.1101  36.9604  38.1995 C.ar           1 <1>                0.0000
     12 C12         31.2069  35.6325  38.5806 C.ar           1 <1>                0.0000
     13 O13         30.5749  35.1984  39.7039 O.3            1 <1>                0.0000
     14 H14         33.1823  34.4999  36.0750 H              1 <1>                0.0000
     15 H15         33.0009  36.8593  35.3984 H              1 <1>                0.0000
     16 H16         30.5304  37.6519  38.7930 H              1 <1>                0.0000
     17 H17         32.5841  32.7806  37.6670 H              1 <1>                0.0000
     18 H18         31.6170  33.0900  39.0056 H              1 <1>                0.0000
     19 H19         31.0658  35.3642  40.5205 H              1 <1>                0.0000
@<TRIPOS>BOND
    1    1    2 1     
    2    1   17 1     
    3    1   18 1     
    4    2    3 ar    
    5    2   12 ar    
    6    3    4 ar    
    7    3   14 1     
    8    4    5 ar    
    9    4   15 1     
   10    5    6 1     
   11    5   11 ar    
   12    6    7 1     
   13    7    8 1     
   14    7    9 1     
   15    7   10 1     
   16   11   12 ar    
   17   11   16 1     
   18   12   13 1     
   19   13   19 1     
@<TRIPOS>SUBSTRUCTURE
      1 ****           1
@<TRIPOS>SET
DONOR_HYDROGENS      STATIC     ATOMS    <user>   **** ""
3 17 18 19
ATOM$RED        STATIC     ATOMS    COLORGROUP SYSTEM
3 17 18 19
@<TRIPOS>COMMENT
> <Gold.Version>
2022.2.0

> <Gold.Id.Protein>
1qkm|1qkm_protein|mol2

> <Gold.Protein.RotatedTorsions>
[  496  491  490  487 ] final    8.90 input  -89.99 | X-H torsion

> <Gold.Protein.ActiveResidues>
 MET295  LEU298  THR299  LEU301  ALA302  GLU305  TRP335  MET336  LEU339  MET340 
 GLY342  LEU343  ARG346  PHE356  ILE373  ILE376  PHE377  LEU380  LYS471  GLY472 
 MET473  HIS475  LEU476  LEU477  ASN478  MET479  VAL484  VAL487 

> <Gold.Protein.RotatedAtoms>
   36.2710   34.0828   42.3009 H   0  0  0  0  0  0  0  0  0  0  0  0  # atno 496  bound_to 491 

> <Gold.Score>
     Score     S(PLP)   S(hbond)     S(cho)   S(metal)  DE(clash)   DE(tors)     intcor
     40.13     -37.15       1.00       0.00       0.00       0.00       0.33       0.65

> <Gold.PLP.Fitness>
40.1304

> <Gold.PLP.PLP>
-37.1460

> <Gold.PLP.part.hbond>
-1.0000

> <Gold.PLP.part.metal>
0.0000

> <Gold.PLP.part.buried>
-1.9501

> <Gold.PLP.part.nonpolar>
-33.9328

> <Gold.PLP.part.repulsive>
0.0302

> <Gold.PLP.ligand.clash>
0.0000

> <Gold.PLP.ligand.torsion>
0.3323

> <Gold.PLP.Chemscore.Hbond>
1.0000

> <Gold.PLP.Chemscore.CHOScore>
0.0000

> <Gold.PLP.Chemscore.Metal>
0.0000

> <Gold.Chemscore.Hbonds>
donor molecule, donor type, donor heavy atom, donor atom, acceptor molecule, acceptor atom, score
      L1  H    13    19       P1   470  1.00

> <Gold.PLP.Chemscore.Internal.Correction>
0.6490

