#       Name:                EN300-160487_i001
#       Creating user name   aseyller
#       Creation time:       Fri Apr 21 16:47:15 2023


#       File generated by GOLD software.
#

@<TRIPOS>MOLECULE
EN300-160487_i001|aminophenols|mol2|123|dock15
    19    19     1
SMALL
USER_CHARGES


@<TRIPOS>ATOM
      1 N1          26.4471  36.5137  41.9727 N.pl3          1 <1>                0.0000
      2 C2          27.1873  36.5004  40.7817 C.ar           1 <1>                0.0000
      3 C3          26.6318  37.0009  39.6136 C.ar           1 <1>                0.0000
      4 C4          27.3614  36.9878  38.4397 C.ar           1 <1>                0.0000
      5 C5          28.6499  36.4752  38.4271 C.ar           1 <1>                0.0000
      6 O6          29.3653  36.4637  37.2706 O.3            1 <1>                0.0000
      7 C7          30.3339  37.4999  37.0966 C.3            1 <1>                0.0000
      8 F8          30.8446  37.4470  35.7952 F              1 <1>                0.0000
      9 F9          29.7300  38.7436  37.3104 F              1 <1>                0.0000
     10 F10         31.3754  37.3234  38.0138 F              1 <1>                0.0000
     11 C11         29.2100  35.9745  39.5929 C.ar           1 <1>                0.0000
     12 C12         28.4831  35.9900  40.7718 C.ar           1 <1>                0.0000
     13 O13         29.0308  35.5000  41.9161 O.3            1 <1>                0.0000
     14 H14         25.6285  37.4006  39.6211 H              1 <1>                0.0000
     15 H15         26.9273  37.3773  37.5307 H              1 <1>                0.0000
     16 H16         30.2135  35.5754  39.5822 H              1 <1>                0.0000
     17 H17         25.5462  36.8730  41.9798 H              1 <1>                0.0000
     18 H18         26.8347  36.1598  42.7884 H              1 <1>                0.0000
     19 H19         29.9959  35.4424  41.8971 H              1 <1>                0.0000
@<TRIPOS>BOND
    1    1    2 1     
    2    1   17 1     
    3    1   18 1     
    4    2    3 ar    
    5    2   12 ar    
    6    3    4 ar    
    7    3   14 1     
    8    4    5 ar    
    9    4   15 1     
   10    5    6 1     
   11    5   11 ar    
   12    6    7 1     
   13    7    8 1     
   14    7    9 1     
   15    7   10 1     
   16   11   12 ar    
   17   11   16 1     
   18   12   13 1     
   19   13   19 1     
@<TRIPOS>SUBSTRUCTURE
      1 ****           1
@<TRIPOS>SET
DONOR_HYDROGENS      STATIC     ATOMS    <user>   **** ""
3 17 18 19
ATOM$RED        STATIC     ATOMS    COLORGROUP SYSTEM
3 17 18 19
@<TRIPOS>COMMENT
> <Gold.Version>
2022.2.0

> <Gold.Id.Protein>
1qkm|1qkm_protein|mol2

> <Gold.Protein.RotatedTorsions>
[  496  491  490  487 ] final   29.83 input  -89.99 | X-H torsion

> <Gold.Protein.ActiveResidues>
 MET295  LEU298  THR299  LEU301  ALA302  GLU305  TRP335  MET336  LEU339  MET340 
 GLY342  LEU343  ARG346  PHE356  ILE373  ILE376  PHE377  LEU380  LYS471  GLY472 
 MET473  HIS475  LEU476  LEU477  ASN478  MET479  VAL484  VAL487 

> <Gold.Protein.RotatedAtoms>
   36.3455   33.7580   42.3804 H   0  0  0  0  0  0  0  0  0  0  0  0  # atno 496  bound_to 491 

> <Gold.Score>
     Score     S(PLP)   S(hbond)     S(cho)   S(metal)  DE(clash)   DE(tors)     intcor
     43.23     -38.83       1.48       0.00       0.00       0.02       0.33       0.65

> <Gold.PLP.Fitness>
43.2349

> <Gold.PLP.PLP>
-38.8317

> <Gold.PLP.part.hbond>
-2.9756

> <Gold.PLP.part.metal>
0.0000

> <Gold.PLP.part.buried>
-3.6920

> <Gold.PLP.part.nonpolar>
-33.3371

> <Gold.PLP.part.repulsive>
0.0682

> <Gold.PLP.ligand.clash>
0.0218

> <Gold.PLP.ligand.torsion>
0.3257

> <Gold.PLP.Chemscore.Hbond>
1.4758

> <Gold.PLP.Chemscore.CHOScore>
0.0000

> <Gold.PLP.Chemscore.Metal>
0.0000

> <Gold.Chemscore.Hbonds>
donor molecule, donor type, donor heavy atom, donor atom, acceptor molecule, acceptor atom, score
      L1  H     1    18       P1   582  0.48
      L1  H    13    19       P1   470  1.00

> <Gold.PLP.Chemscore.Internal.Correction>
0.6490

