#       Name:                EN300-160487_i001
#       Creating user name   aseyller
#       Creation time:       Fri Apr 21 16:47:07 2023


#       File generated by GOLD software.
#

@<TRIPOS>MOLECULE
EN300-160487_i001|aminophenols|mol2|123|dock6
    19    19     1
SMALL
USER_CHARGES


@<TRIPOS>ATOM
      1 N1          25.1959  36.0645  41.4384 N.pl3          1 <1>                0.0000
      2 C2          26.2662  36.0837  40.5325 C.ar           1 <1>                0.0000
      3 C3          26.0395  36.3791  39.1965 C.ar           1 <1>                0.0000
      4 C4          27.0945  36.3980  38.3036 C.ar           1 <1>                0.0000
      5 C5          28.3813  36.1224  38.7412 C.ar           1 <1>                0.0000
      6 O6          29.4171  36.1418  37.8602 O.3            1 <1>                0.0000
      7 C7          29.9971  37.4150  37.5688 C.3            1 <1>                0.0000
      8 F8          30.3359  38.0576  38.7644 F              1 <1>                0.0000
      9 F9          31.1475  37.2368  36.7929 F              1 <1>                0.0000
     10 F10         29.0757  38.1968  36.8639 F              1 <1>                0.0000
     11 C11         28.6129  35.8274  40.0764 C.ar           1 <1>                0.0000
     12 C12         27.5587  35.8118  40.9744 C.ar           1 <1>                0.0000
     13 O13         27.7839  35.5232  42.2842 O.3            1 <1>                0.0000
     14 H14         25.0382  36.5941  38.8536 H              1 <1>                0.0000
     15 H15         26.9163  36.6277  37.2634 H              1 <1>                0.0000
     16 H16         29.6153  35.6127  40.4162 H              1 <1>                0.0000
     17 H17         24.2966  36.2579  41.1308 H              1 <1>                0.0000
     18 H18         25.3545  35.8538  42.3719 H              1 <1>                0.0000
     19 H19         27.0080  35.1846  42.7516 H              1 <1>                0.0000
@<TRIPOS>BOND
    1    1    2 1     
    2    1   17 1     
    3    1   18 1     
    4    2    3 ar    
    5    2   12 ar    
    6    3    4 ar    
    7    3   14 1     
    8    4    5 ar    
    9    4   15 1     
   10    5    6 1     
   11    5   11 ar    
   12    6    7 1     
   13    7    8 1     
   14    7    9 1     
   15    7   10 1     
   16   11   12 ar    
   17   11   16 1     
   18   12   13 1     
   19   13   19 1     
@<TRIPOS>SUBSTRUCTURE
      1 ****           1
@<TRIPOS>SET
DONOR_HYDROGENS      STATIC     ATOMS    <user>   **** ""
3 17 18 19
ATOM$RED        STATIC     ATOMS    COLORGROUP SYSTEM
3 17 18 19
@<TRIPOS>COMMENT
> <Gold.Version>
2022.2.0

> <Gold.Id.Protein>
1qkm|1qkm_protein|mol2

> <Gold.Protein.RotatedTorsions>
[  496  491  490  487 ] final  171.10 input  -89.99 | X-H torsion

> <Gold.Protein.ActiveResidues>
 MET295  LEU298  THR299  LEU301  ALA302  GLU305  TRP335  MET336  LEU339  MET340 
 GLY342  LEU343  ARG346  PHE356  ILE373  ILE376  PHE377  LEU380  LYS471  GLY472 
 MET473  HIS475  LEU476  LEU477  ASN478  MET479  VAL484  VAL487 

> <Gold.Protein.RotatedAtoms>
   37.3163   33.3399   40.9488 H   0  0  0  0  0  0  0  0  0  0  0  0  # atno 496  bound_to 491 

> <Gold.Score>
     Score     S(PLP)   S(hbond)     S(cho)   S(metal)  DE(clash)   DE(tors)     intcor
     45.26     -38.02       2.45       0.00       0.00       0.00       0.37       0.65

> <Gold.PLP.Fitness>
45.2590

> <Gold.PLP.PLP>
-38.0215

> <Gold.PLP.part.hbond>
-2.4434

> <Gold.PLP.part.metal>
0.0000

> <Gold.PLP.part.buried>
-4.4754

> <Gold.PLP.part.nonpolar>
-32.1108

> <Gold.PLP.part.repulsive>
0.1260

> <Gold.PLP.ligand.clash>
0.0000

> <Gold.PLP.ligand.torsion>
0.3745

> <Gold.PLP.Chemscore.Hbond>
2.4458

> <Gold.PLP.Chemscore.CHOScore>
0.0000

> <Gold.PLP.Chemscore.Metal>
0.0000

> <Gold.Chemscore.Hbonds>
donor molecule, donor type, donor heavy atom, donor atom, acceptor molecule, acceptor atom, score
      L1  H     1    17       P1  1131  0.47
      L1  H     1    18       P1   582  0.98
      L1  H    13    19       P1   582  0.99

> <Gold.PLP.Chemscore.Internal.Correction>
0.6490

