#       Name:                EN300-160487_i001
#       Creating user name   aseyller
#       Creation time:       Fri Apr 21 16:47:06 2023


#       File generated by GOLD software.
#

@<TRIPOS>MOLECULE
EN300-160487_i001|aminophenols|mol2|123|dock5
    19    19     1
SMALL
USER_CHARGES


@<TRIPOS>ATOM
      1 N1          25.4970  36.4906  42.0761 N.pl3          1 <1>                0.0000
      2 C2          26.2053  36.5724  40.8686 C.ar           1 <1>                0.0000
      3 C3          25.6900  37.3053  39.8099 C.ar           1 <1>                0.0000
      4 C4          26.3882  37.3860  38.6197 C.ar           1 <1>                0.0000
      5 C5          27.6050  36.7352  38.4815 C.ar           1 <1>                0.0000
      6 O6          28.2896  36.8166  37.3092 O.3            1 <1>                0.0000
      7 C7          29.2048  37.9047  37.1666 C.3            1 <1>                0.0000
      8 F8          29.9449  37.7404  35.9908 F              1 <1>                0.0000
      9 F9          28.4932  39.1077  37.1054 F              1 <1>                0.0000
     10 F10         30.0723  37.9314  38.2638 F              1 <1>                0.0000
     11 C11         28.1247  36.0019  39.5377 C.ar           1 <1>                0.0000
     12 C12         27.4297  35.9226  40.7330 C.ar           1 <1>                0.0000
     13 O13         27.9380  35.2044  41.7701 O.3            1 <1>                0.0000
     14 H14         24.7426  37.8130  39.9154 H              1 <1>                0.0000
     15 H15         25.9853  37.9566  37.7959 H              1 <1>                0.0000
     16 H16         29.0724  35.4954  39.4291 H              1 <1>                0.0000
     17 H17         24.6463  36.9467  42.1712 H              1 <1>                0.0000
     18 H18         25.8560  35.9745  42.8148 H              1 <1>                0.0000
     19 H19         27.2702  34.8856  42.3925 H              1 <1>                0.0000
@<TRIPOS>BOND
    1    1    2 1     
    2    1   17 1     
    3    1   18 1     
    4    2    3 ar    
    5    2   12 ar    
    6    3    4 ar    
    7    3   14 1     
    8    4    5 ar    
    9    4   15 1     
   10    5    6 1     
   11    5   11 ar    
   12    6    7 1     
   13    7    8 1     
   14    7    9 1     
   15    7   10 1     
   16   11   12 ar    
   17   11   16 1     
   18   12   13 1     
   19   13   19 1     
@<TRIPOS>SUBSTRUCTURE
      1 ****           1
@<TRIPOS>SET
DONOR_HYDROGENS      STATIC     ATOMS    <user>   **** ""
3 17 18 19
ATOM$RED        STATIC     ATOMS    COLORGROUP SYSTEM
3 17 18 19
@<TRIPOS>COMMENT
> <Gold.Version>
2022.2.0

> <Gold.Id.Protein>
1qkm|1qkm_protein|mol2

> <Gold.Protein.RotatedTorsions>
[  496  491  490  487 ] final   53.04 input  -89.99 | X-H torsion

> <Gold.Protein.ActiveResidues>
 MET295  LEU298  THR299  LEU301  ALA302  GLU305  TRP335  MET336  LEU339  MET340 
 GLY342  LEU343  ARG346  PHE356  ILE373  ILE376  PHE377  LEU380  LYS471  GLY472 
 MET473  HIS475  LEU476  LEU477  ASN478  MET479  VAL484  VAL487 

> <Gold.Protein.RotatedAtoms>
   36.4958   33.4119   42.3407 H   0  0  0  0  0  0  0  0  0  0  0  0  # atno 496  bound_to 491 

> <Gold.Score>
     Score     S(PLP)   S(hbond)     S(cho)   S(metal)  DE(clash)   DE(tors)     intcor
     48.23     -42.42       2.00       0.00       0.00       0.00       0.42       0.65

> <Gold.PLP.Fitness>
48.2275

> <Gold.PLP.PLP>
-42.4189

> <Gold.PLP.part.hbond>
-2.0000

> <Gold.PLP.part.metal>
0.0000

> <Gold.PLP.part.buried>
-4.2382

> <Gold.PLP.part.nonpolar>
-38.4171

> <Gold.PLP.part.repulsive>
1.3676

> <Gold.PLP.ligand.clash>
0.0000

> <Gold.PLP.ligand.torsion>
0.4202

> <Gold.PLP.Chemscore.Hbond>
2.0000

> <Gold.PLP.Chemscore.CHOScore>
0.0000

> <Gold.PLP.Chemscore.Metal>
0.0000

> <Gold.Chemscore.Hbonds>
donor molecule, donor type, donor heavy atom, donor atom, acceptor molecule, acceptor atom, score
      L1  H     1    18       P1   582  1.00
      L1  H    13    19       P1   582  1.00

> <Gold.PLP.Chemscore.Internal.Correction>
0.6490

