#       Name:                EN300-160487_i001
#       Creating user name   aseyller
#       Creation time:       Fri Apr 21 16:47:11 2023


#       File generated by GOLD software.
#

@<TRIPOS>MOLECULE
EN300-160487_i001|aminophenols|mol2|123|dock11
    19    19     1
SMALL
USER_CHARGES


@<TRIPOS>ATOM
      1 N1          26.5389  35.4937  41.0464 N.pl3          1 <1>                0.0000
      2 C2          27.5343  36.0921  40.2605 C.ar           1 <1>                0.0000
      3 C3          27.2680  36.4302  38.9421 C.ar           1 <1>                0.0000
      4 C4          28.2492  37.0201  38.1675 C.ar           1 <1>                0.0000
      5 C5          29.5012  37.2756  38.7065 C.ar           1 <1>                0.0000
      6 O6          30.4644  37.8561  37.9419 O.3            1 <1>                0.0000
      7 C7          31.3329  36.9818  37.2183 C.3            1 <1>                0.0000
      8 F8          31.9790  36.1215  38.1125 F              1 <1>                0.0000
      9 F9          30.5840  36.2301  36.3066 F              1 <1>                0.0000
     10 F10         32.2859  37.7380  36.5275 F              1 <1>                0.0000
     11 C11         29.7718  36.9401  40.0247 C.ar           1 <1>                0.0000
     12 C12         28.7896  36.3528  40.8047 C.ar           1 <1>                0.0000
     13 O13         29.0529  36.0235  42.0978 O.3            1 <1>                0.0000
     14 H14         26.2937  36.2323  38.5203 H              1 <1>                0.0000
     15 H15         28.0405  37.2823  37.1408 H              1 <1>                0.0000
     16 H16         30.7471  37.1393  40.4436 H              1 <1>                0.0000
     17 H17         25.6637  35.3161  40.6679 H              1 <1>                0.0000
     18 H18         26.7271  35.2537  41.9672 H              1 <1>                0.0000
     19 H19         29.8536  35.4939  42.2136 H              1 <1>                0.0000
@<TRIPOS>BOND
    1    1    2 1     
    2    1   17 1     
    3    1   18 1     
    4    2    3 ar    
    5    2   12 ar    
    6    3    4 ar    
    7    3   14 1     
    8    4    5 ar    
    9    4   15 1     
   10    5    6 1     
   11    5   11 ar    
   12    6    7 1     
   13    7    8 1     
   14    7    9 1     
   15    7   10 1     
   16   11   12 ar    
   17   11   16 1     
   18   12   13 1     
   19   13   19 1     
@<TRIPOS>SUBSTRUCTURE
      1 ****           1
@<TRIPOS>SET
DONOR_HYDROGENS      STATIC     ATOMS    <user>   **** ""
3 17 18 19
ATOM$RED        STATIC     ATOMS    COLORGROUP SYSTEM
3 17 18 19
@<TRIPOS>COMMENT
> <Gold.Version>
2022.2.0

> <Gold.Id.Protein>
1qkm|1qkm_protein|mol2

> <Gold.Protein.RotatedTorsions>
[  496  491  490  487 ] final  131.58 input  -89.99 | X-H torsion

> <Gold.Protein.ActiveResidues>
 MET295  LEU298  THR299  LEU301  ALA302  GLU305  TRP335  MET336  LEU339  MET340 
 GLY342  LEU343  ARG346  PHE356  ILE373  ILE376  PHE377  LEU380  LYS471  GLY472 
 MET473  HIS475  LEU476  LEU477  ASN478  MET479  VAL484  VAL487 

> <Gold.Protein.RotatedAtoms>
   37.1634   32.9779   41.4510 H   0  0  0  0  0  0  0  0  0  0  0  0  # atno 496  bound_to 491 

> <Gold.Score>
     Score     S(PLP)   S(hbond)     S(cho)   S(metal)  DE(clash)   DE(tors)     intcor
     41.95     -36.20       1.95       0.00       0.00       0.00       0.38       0.65

> <Gold.PLP.Fitness>
41.9529

> <Gold.PLP.PLP>
-36.2048

> <Gold.PLP.part.hbond>
-2.0000

> <Gold.PLP.part.metal>
0.0000

> <Gold.PLP.part.buried>
-3.6141

> <Gold.PLP.part.nonpolar>
-30.8771

> <Gold.PLP.part.repulsive>
0.0137

> <Gold.PLP.ligand.clash>
0.0000

> <Gold.PLP.ligand.torsion>
0.3771

> <Gold.PLP.Chemscore.Hbond>
1.9511

> <Gold.PLP.Chemscore.CHOScore>
0.0000

> <Gold.PLP.Chemscore.Metal>
0.0000

> <Gold.Chemscore.Hbonds>
donor molecule, donor type, donor heavy atom, donor atom, acceptor molecule, acceptor atom, score
      L1  H     1    18       P1   582  0.95
      L1  H    13    19       P1   470  1.00

> <Gold.PLP.Chemscore.Internal.Correction>
0.6490

