#       Name:                EN300-160487_i001
#       Creating user name   aseyller
#       Creation time:       Fri Apr 21 16:47:09 2023


#       File generated by GOLD software.
#

@<TRIPOS>MOLECULE
EN300-160487_i001|aminophenols|mol2|123|dock8
    19    19     1
SMALL
USER_CHARGES


@<TRIPOS>ATOM
      1 N1          26.7207  36.2211  41.8267 N.pl3          1 <1>                0.0000
      2 C2          27.2806  36.4531  40.5621 C.ar           1 <1>                0.0000
      3 C3          28.6108  36.1411  40.3241 C.ar           1 <1>                0.0000
      4 C4          29.1626  36.3697  39.0776 C.ar           1 <1>                0.0000
      5 C5          28.3879  36.9108  38.0625 C.ar           1 <1>                0.0000
      6 O6          28.9337  37.1345  36.8371 O.3            1 <1>                0.0000
      7 C7          29.6055  38.3809  36.6439 C.3            1 <1>                0.0000
      8 F8          30.7139  38.4500  37.4947 F              1 <1>                0.0000
      9 F9          30.0309  38.4804  35.3149 F              1 <1>                0.0000
     10 F10         28.7294  39.4326  36.9330 F              1 <1>                0.0000
     11 C11         27.0570  37.2235  38.2955 C.ar           1 <1>                0.0000
     12 C12         26.4999  36.9917  39.5421 C.ar           1 <1>                0.0000
     13 O13         25.1948  37.2972  39.7724 O.3            1 <1>                0.0000
     14 H14         29.2158  35.7196  41.1132 H              1 <1>                0.0000
     15 H15         30.1988  36.1268  38.8939 H              1 <1>                0.0000
     16 H16         26.4545  37.6449  37.5044 H              1 <1>                0.0000
     17 H17         27.2638  35.8423  42.5354 H              1 <1>                0.0000
     18 H18         25.7914  36.4433  41.9937 H              1 <1>                0.0000
     19 H19         24.6214  36.5248  39.8709 H              1 <1>                0.0000
@<TRIPOS>BOND
    1    1    2 1     
    2    1   17 1     
    3    1   18 1     
    4    2    3 ar    
    5    2   12 ar    
    6    3    4 ar    
    7    3   14 1     
    8    4    5 ar    
    9    4   15 1     
   10    5    6 1     
   11    5   11 ar    
   12    6    7 1     
   13    7    8 1     
   14    7    9 1     
   15    7   10 1     
   16   11   12 ar    
   17   11   16 1     
   18   12   13 1     
   19   13   19 1     
@<TRIPOS>SUBSTRUCTURE
      1 ****           1
@<TRIPOS>SET
DONOR_HYDROGENS      STATIC     ATOMS    <user>   **** ""
3 17 18 19
ATOM$RED        STATIC     ATOMS    COLORGROUP SYSTEM
3 17 18 19
@<TRIPOS>COMMENT
> <Gold.Version>
2022.2.0

> <Gold.Id.Protein>
1qkm|1qkm_protein|mol2

> <Gold.Protein.RotatedTorsions>
[  496  491  490  487 ] final  -82.12 input  -89.99 | X-H torsion

> <Gold.Protein.ActiveResidues>
 MET295  LEU298  THR299  LEU301  ALA302  GLU305  TRP335  MET336  LEU339  MET340 
 GLY342  LEU343  ARG346  PHE356  ILE373  ILE376  PHE377  LEU380  LYS471  GLY472 
 MET473  HIS475  LEU476  LEU477  ASN478  MET479  VAL484  VAL487 

> <Gold.Protein.RotatedAtoms>
   36.6851   34.6972   41.1775 H   0  0  0  0  0  0  0  0  0  0  0  0  # atno 496  bound_to 491 

> <Gold.Score>
     Score     S(PLP)   S(hbond)     S(cho)   S(metal)  DE(clash)   DE(tors)     intcor
     40.40     -38.87       0.54       0.00       0.00       0.00       0.37       0.65

> <Gold.PLP.Fitness>
40.3990

> <Gold.PLP.PLP>
-38.8725

> <Gold.PLP.part.hbond>
-2.0000

> <Gold.PLP.part.metal>
0.0000

> <Gold.PLP.part.buried>
-2.9190

> <Gold.PLP.part.nonpolar>
-34.5955

> <Gold.PLP.part.repulsive>
0.0479

> <Gold.PLP.ligand.clash>
0.0000

> <Gold.PLP.ligand.torsion>
0.3710

> <Gold.PLP.Chemscore.Hbond>
0.5398

> <Gold.PLP.Chemscore.CHOScore>
0.0000

> <Gold.PLP.Chemscore.Metal>
0.0000

> <Gold.Chemscore.Hbonds>
donor molecule, donor type, donor heavy atom, donor atom, acceptor molecule, acceptor atom, score
      L1  H     1    17       P1   582  0.16
      L1  H    13    19       P1  1131  0.38

> <Gold.PLP.Chemscore.Internal.Correction>
0.6490

