#       Name:                EN300-160487_i001
#       Creating user name   aseyller
#       Creation time:       Fri Apr 21 16:47:19 2023


#       File generated by GOLD software.
#

@<TRIPOS>MOLECULE
EN300-160487_i001|aminophenols|mol2|123|dock19
    19    19     1
SMALL
USER_CHARGES


@<TRIPOS>ATOM
      1 N1          28.8433  35.4573  40.2014 N.pl3          1 <1>                0.0000
      2 C2          29.5879  36.1654  39.2472 C.ar           1 <1>                0.0000
      3 C3          29.0788  37.3314  38.6952 C.ar           1 <1>                0.0000
      4 C4          29.8128  38.0295  37.7547 C.ar           1 <1>                0.0000
      5 C5          31.0593  37.5662  37.3613 C.ar           1 <1>                0.0000
      6 O6          31.7791  38.2552  36.4357 O.3            1 <1>                0.0000
      7 C7          31.7413  37.7702  35.0920 C.3            1 <1>                0.0000
      8 F8          32.3837  38.6829  34.2486 F              1 <1>                0.0000
      9 F9          32.3928  36.5340  35.0240 F              1 <1>                0.0000
     10 F10         30.4105  37.6187  34.6882 F              1 <1>                0.0000
     11 C11         31.5730  36.4012  37.9112 C.ar           1 <1>                0.0000
     12 C12         30.8419  35.7017  38.8570 C.ar           1 <1>                0.0000
     13 O13         31.3441  34.5594  39.3977 O.3            1 <1>                0.0000
     14 H14         28.1083  37.6940  39.0002 H              1 <1>                0.0000
     15 H15         29.4147  38.9370  37.3253 H              1 <1>                0.0000
     16 H16         32.5438  36.0411  37.6041 H              1 <1>                0.0000
     17 H17         27.9718  35.7829  40.4757 H              1 <1>                0.0000
     18 H18         29.1982  34.6396  40.5841 H              1 <1>                0.0000
     19 H19         31.5707  34.6342  40.3348 H              1 <1>                0.0000
@<TRIPOS>BOND
    1    1    2 1     
    2    1   17 1     
    3    1   18 1     
    4    2    3 ar    
    5    2   12 ar    
    6    3    4 ar    
    7    3   14 1     
    8    4    5 ar    
    9    4   15 1     
   10    5    6 1     
   11    5   11 ar    
   12    6    7 1     
   13    7    8 1     
   14    7    9 1     
   15    7   10 1     
   16   11   12 ar    
   17   11   16 1     
   18   12   13 1     
   19   13   19 1     
@<TRIPOS>SUBSTRUCTURE
      1 ****           1
@<TRIPOS>SET
DONOR_HYDROGENS      STATIC     ATOMS    <user>   **** ""
3 17 18 19
ATOM$RED        STATIC     ATOMS    COLORGROUP SYSTEM
3 17 18 19
@<TRIPOS>COMMENT
> <Gold.Version>
2022.2.0

> <Gold.Id.Protein>
1qkm|1qkm_protein|mol2

> <Gold.Protein.RotatedTorsions>
[  496  491  490  487 ] final  -80.97 input  -89.99 | X-H torsion

> <Gold.Protein.ActiveResidues>
 MET295  LEU298  THR299  LEU301  ALA302  GLU305  TRP335  MET336  LEU339  MET340 
 GLY342  LEU343  ARG346  PHE356  ILE373  ILE376  PHE377  LEU380  LYS471  GLY472 
 MET473  HIS475  LEU476  LEU477  ASN478  MET479  VAL484  VAL487 

> <Gold.Protein.RotatedAtoms>
   36.6747   34.7022   41.1924 H   0  0  0  0  0  0  0  0  0  0  0  0  # atno 496  bound_to 491 

> <Gold.Score>
     Score     S(PLP)   S(hbond)     S(cho)   S(metal)  DE(clash)   DE(tors)     intcor
     40.19     -37.21       1.00       0.00       0.00       0.00       0.33       0.65

> <Gold.PLP.Fitness>
40.1914

> <Gold.PLP.PLP>
-37.2055

> <Gold.PLP.part.hbond>
-1.0000

> <Gold.PLP.part.metal>
0.0000

> <Gold.PLP.part.buried>
-2.5875

> <Gold.PLP.part.nonpolar>
-34.3203

> <Gold.PLP.part.repulsive>
0.0397

> <Gold.PLP.ligand.clash>
0.0000

> <Gold.PLP.ligand.torsion>
0.3315

> <Gold.PLP.Chemscore.Hbond>
1.0000

> <Gold.PLP.Chemscore.CHOScore>
0.0000

> <Gold.PLP.Chemscore.Metal>
0.0000

> <Gold.Chemscore.Hbonds>
donor molecule, donor type, donor heavy atom, donor atom, acceptor molecule, acceptor atom, score
      L1  H    13    19       P1   470  1.00

> <Gold.PLP.Chemscore.Internal.Correction>
0.6490

