#       Name:                plp ligand
#       Creating user name   aseyller
#       Creation time:       Fri Apr 21 16:47:02 2023


#       File generated by GOLD software.
#

@<TRIPOS>MOLECULE
plp ligand
    19    19     1
SMALL
USER_CHARGES


@<TRIPOS>ATOM
      1 N1           2.9210   1.0539   0.0444 DONOR          1 <1>                0.0000
      2 C2           1.6313   0.5033   0.0469 NONPOLAR       1 <1>                0.0000
      3 C3           0.5215   1.3349   0.0326 NONPOLAR       1 <1>                0.0000
      4 C4          -0.7497   0.7921   0.0350 NONPOLAR       1 <1>                0.0000
      5 C5          -0.9184  -0.5843   0.0512 NONPOLAR       1 <1>                0.0000
      6 O6          -2.1704  -1.1153   0.0535 ACCEPTOR       1 <1>                0.0000
      7 C7          -3.2648  -0.1965   0.0387 NONPOLAR       1 <1>                0.0000
      8 F8          -3.1940   0.5944  -1.1131 NONPOLAR       1 <1>                0.0000
      9 F9          -4.4701  -0.9067   0.0434 NONPOLAR       1 <1>                0.0000
     10 F10         -3.2016   0.6223   1.1713 NONPOLAR       1 <1>                0.0000
     11 C11          0.1884  -1.4199   0.0646 NONPOLAR       1 <1>                0.0000
     12 C12          1.4635  -0.8793   0.0579 NONPOLAR       1 <1>                0.0000
     13 O13          2.5501  -1.6971   0.0705 DONACC         1 <1>                0.0000
     14 H14          0.6506   2.4071   0.0199                1 <1>                0.0000
     15 H15         -1.6130   1.4410   0.0245                1 <1>                0.0000
     16 H16          0.0561  -2.4917   0.0773                1 <1>                0.0000
     17 H17          3.0372   2.0168   0.0326                1 <1>                0.0000
     18 H18          3.6968   0.4718   0.0585                1 <1>                0.0000
     19 H19          2.8651  -1.9464  -0.8091                1 <1>                0.0000
@<TRIPOS>BOND
    1    1    2 1     
    2    1   17 1     
    3    1   18 1     
    4    2    3 ar    
    5    2   12 ar    
    6    3    4 ar    
    7    3   14 1     
    8    4    5 ar    
    9    4   15 1     
   10    5    6 1     
   11    5   11 ar    
   12    6    7 1     
   13    7    8 1     
   14    7    9 1     
   15    7   10 1     
   16   11   12 ar    
   17   11   16 1     
   18   12   13 1     
   19   13   19 1     
@<TRIPOS>SUBSTRUCTURE
      1 ****           1
@<TRIPOS>SET
DONOR_HYDROGENS      STATIC     ATOMS    <user>   **** ""
3 17 18 19
ATOM$RED        STATIC     ATOMS    COLORGROUP SYSTEM
3 17 18 19
