#       Name:                EN300-141346_i001
#       Creating user name   fsindt
#       Creation time:       Wed Mar  1 05:09:09 2023


#       File generated by GOLD software.
#

@<TRIPOS>MOLECULE
EN300-141346_i001|amine_4|mol2|10279|dock11
    17    16     1
SMALL
USER_CHARGES


@<TRIPOS>ATOM
      1 C1           1.2614 -14.0807   9.6708 C.3            1 <1>                0.0000
      2 C2           0.9717 -14.2303   8.1760 C.3            1 <1>                0.0000
      3 C3           1.4222 -12.9668   7.4401 C.3            1 <1>                0.0000
      4 N4           1.7024 -15.3907   7.6493 N.4            1 <1>                1.0000
      5 C5          -0.5300 -14.4348   7.9656 C.3            1 <1>                0.0000
      6 F6          -0.7936 -14.5830   6.5997 F              1 <1>                0.0000
      7 H7           0.7192 -13.2196  10.0617 H              1 <1>                0.0000
      8 H8           0.9404 -14.9808  10.1951 H              1 <1>                0.0000
      9 H9           2.3312 -13.9349   9.8207 H              1 <1>                0.0000
     10 H10          2.4920 -12.8211   7.5900 H              1 <1>                0.0000
     11 H11          1.2157 -13.0735   6.3752 H              1 <1>                0.0000
     12 H12          0.8799 -12.1058   7.8310 H              1 <1>                0.0000
     13 H13         -0.8527 -15.3300   8.4972 H              1 <1>                0.0000
     14 H14         -1.0717 -13.5699   8.3485 H              1 <1>                0.0000
     15 H15          2.5901 -15.0884   7.2768 H              1 <1>                0.0000
     16 H16          1.8582 -16.0555   8.3922 H              1 <1>                0.0000
     17 H17          1.1608 -15.8252   6.9172 H              1 <1>                0.0000
@<TRIPOS>BOND
    1    1    2 1     
    2    1    7 1     
    3    1    8 1     
    4    1    9 1     
    5    2    3 1     
    6    2    4 1     
    7    2    5 1     
    8    3   10 1     
    9    3   11 1     
   10    3   12 1     
   11    4   15 1     
   12    4   16 1     
   13    4   17 1     
   14    5    6 1     
   15    5   13 1     
   16    5   14 1     
@<TRIPOS>SUBSTRUCTURE
      1 ****           1
@<TRIPOS>SET
DONOR_HYDROGENS      STATIC     ATOMS    <user>   **** ""
3 15 16 17
ATOM$RED        STATIC     ATOMS    COLORGROUP SYSTEM
3 15 16 17
@<TRIPOS>COMMENT
> <Gold.Version>
2022.2.0

> <Gold.Id.Protein>
3pbl|protein|mol2

> <Gold.Protein.RotatedTorsions>
[ 1303 1298 1297 1294 ] final  153.41 input  179.99 | X-H torsion
[ 2461 2456 2455 2452 ] final  111.94 input   30.03 | X-H torsion
[ 2515 2510 2509 2506 ] final  -62.68 input  -89.99 | X-H torsion
[ 3721 3712 3711 3710 ] final  -46.62 input -179.91 | X-H torsion
[ 3841 3832 3831 3830 ] final -146.75 input -179.91 | X-H torsion
[ 3767 3762 3761 3758 ] final  -24.39 input  -89.99 | X-H torsion
[ 2472 2467 2466 2463 ] final  -97.70 input  -89.97 | X-H torsion

> <Gold.Protein.ActiveResidues>
 VAL82   VAL86   LEU89   PHE106  VAL107  ASP110  VAL111  MET112  CYS114  THR115 
 CYS181  SER182  ILE183  PHE188  VAL189  ILE190  SER192  SER193  SER196  TRP342 
 PHE345  PHE346  HIS349  VAL350  TYR365  THR369  GLY372  TYR373 

> <Gold.Protein.RotatedAtoms>
    4.9089   -9.2618    4.8686 H   0  0  0  0  0  0  0  0  0  0  0  0  # atno 1303 bound_to 1298
    2.1502   -8.5493    7.9783 H   0  0  0  0  0  0  0  0  0  0  0  0  # atno 2461 bound_to 2456
   -4.1519   -5.3765    9.3538 H   0  0  0  0  0  0  0  0  0  0  0  0  # atno 2472 bound_to 2467
    2.8275   -8.5422    4.3955 H   0  0  0  0  0  0  0  0  0  0  0  0  # atno 2515 bound_to 2510
   -2.7052  -17.5034   14.7079 H   0  0  0  0  0  0  0  0  0  0  0  0  # atno 3721 bound_to 3712
   -5.4814  -22.4175   10.3573 H   0  0  0  0  0  0  0  0  0  0  0  0  # atno 3767 bound_to 3762
    2.5864  -19.7276    8.3527 H   0  0  0  0  0  0  0  0  0  0  0  0  # atno 3841 bound_to 3832
    3.6696  -10.2017    4.3714 LP  0  0  0  0  0  0  0  0  0  0  0  0  # atno 4297 bound_to 1298
    3.7833   -8.6579    3.8514 LP  0  0  0  0  0  0  0  0  0  0  0  0  # atno 4298 bound_to 1298
    0.9179   -8.0373    7.0367 LP  0  0  0  0  0  0  0  0  0  0  0  0  # atno 4299 bound_to 2456
    0.6699   -9.2216    8.1332 LP  0  0  0  0  0  0  0  0  0  0  0  0  # atno 4300 bound_to 2456
    2.3055   -9.0085    5.8705 LP  0  0  0  0  0  0  0  0  0  0  0  0  # atno 4301 bound_to 2510
    2.1636   -7.4484    5.4096 LP  0  0  0  0  0  0  0  0  0  0  0  0  # atno 4302 bound_to 2510
   -3.5662  -16.5814   13.7148 LP  0  0  0  0  0  0  0  0  0  0  0  0  # atno 4306 bound_to 3712
   -2.8382  -17.9369   13.1677 LP  0  0  0  0  0  0  0  0  0  0  0  0  # atno 4307 bound_to 3712
    2.8271  -21.1109    9.1305 LP  0  0  0  0  0  0  0  0  0  0  0  0  # atno 4314 bound_to 3832
    1.4146  -20.3060    9.2845 LP  0  0  0  0  0  0  0  0  0  0  0  0  # atno 4315 bound_to 3832
   -4.5104  -22.1401   11.6407 LP  0  0  0  0  0  0  0  0  0  0  0  0  # atno 4318 bound_to 3762
   -4.1358  -23.3174   10.5729 LP  0  0  0  0  0  0  0  0  0  0  0  0  # atno 4319 bound_to 3762
   -5.5085   -5.2033    8.4616 LP  0  0  0  0  0  0  0  0  0  0  0  0  # atno 4320 bound_to 2467
   -4.0565   -4.8138    7.8239 LP  0  0  0  0  0  0  0  0  0  0  0  0  # atno 4321 bound_to 2467

> <Gold.Score>
     Score     S(PLP)   S(hbond)     S(cho)   S(metal)  DE(clash)   DE(tors)     intcor
     28.92     -19.94       2.99       0.00       0.00       0.00       0.00       0.00

> <Gold.PLP.Fitness>
28.9161

> <Gold.PLP.PLP>
-19.9426

> <Gold.PLP.part.hbond>
-2.0000

> <Gold.PLP.part.metal>
0.0000

> <Gold.PLP.part.buried>
-2.0314

> <Gold.PLP.part.nonpolar>
-16.3611

> <Gold.PLP.part.repulsive>
0.0599

> <Gold.PLP.ligand.clash>
0.0000

> <Gold.PLP.ligand.torsion>
0.0001

> <Gold.PLP.Chemscore.Hbond>
2.9913

> <Gold.PLP.Chemscore.CHOScore>
0.0000

> <Gold.PLP.Chemscore.Metal>
0.0000

> <Gold.Chemscore.Hbonds>
donor molecule, donor type, donor heavy atom, donor atom, acceptor molecule, acceptor atom, score
      L1  H     4    15       P1  1223  0.99
      L1  H     4    16       P1  1227  2.00

> <Gold.PLP.Chemscore.Internal.Correction>
0.0000

