#       Name:                EN300-141346_i001
#       Creating user name   fsindt
#       Creation time:       Wed Mar  1 05:09:13 2023


#       File generated by GOLD software.
#

@<TRIPOS>MOLECULE
EN300-141346_i001|amine_4|mol2|10279|dock20
    17    16     1
SMALL
USER_CHARGES


@<TRIPOS>ATOM
      1 C1           1.0147 -18.1800  12.8444 C.3            1 <1>                0.0000
      2 C2           1.8799 -16.9773  13.2263 C.3            1 <1>                0.0000
      3 C3           2.2971 -17.0943  14.6936 C.3            1 <1>                0.0000
      4 N4           3.0784 -16.9470  12.3773 N.4            1 <1>                1.0000
      5 C5           1.0796 -15.6889  13.0248 C.3            1 <1>                0.0000
      6 F6          -0.0889 -15.7408  13.7924 F              1 <1>                0.0000
      7 H7           0.1254 -18.2025  13.4744 H              1 <1>                0.0000
      8 H8           0.7175 -18.0966  11.7991 H              1 <1>                0.0000
      9 H9           1.5848 -19.0978  12.9880 H              1 <1>                0.0000
     10 H10          2.8671 -18.0121  14.8371 H              1 <1>                0.0000
     11 H11          2.9134 -16.2374  14.9655 H              1 <1>                0.0000
     12 H12          1.4077 -17.1167  15.3235 H              1 <1>                0.0000
     13 H13          1.6813 -14.8350  13.3364 H              1 <1>                0.0000
     14 H14          0.8182 -15.5843  11.9719 H              1 <1>                0.0000
     15 H15          2.8040 -16.8480  11.4114 H              1 <1>                0.0000
     16 H16          3.6595 -16.1663  12.6436 H              1 <1>                0.0000
     17 H17          3.5949 -17.8059  12.4939 H              1 <1>                0.0000
@<TRIPOS>BOND
    1    1    2 1     
    2    1    7 1     
    3    1    8 1     
    4    1    9 1     
    5    2    3 1     
    6    2    4 1     
    7    2    5 1     
    8    3   10 1     
    9    3   11 1     
   10    3   12 1     
   11    4   15 1     
   12    4   16 1     
   13    4   17 1     
   14    5    6 1     
   15    5   13 1     
   16    5   14 1     
@<TRIPOS>SUBSTRUCTURE
      1 ****           1
@<TRIPOS>SET
DONOR_HYDROGENS      STATIC     ATOMS    <user>   **** ""
3 15 16 17
ATOM$RED        STATIC     ATOMS    COLORGROUP SYSTEM
3 15 16 17
@<TRIPOS>COMMENT
> <Gold.Version>
2022.2.0

> <Gold.Id.Protein>
3pbl|protein|mol2

> <Gold.Protein.RotatedTorsions>
[ 1303 1298 1297 1294 ] final  -97.89 input  179.99 | X-H torsion
[ 2461 2456 2455 2452 ] final   73.16 input   30.03 | X-H torsion
[ 2515 2510 2509 2506 ] final   53.23 input  -89.99 | X-H torsion
[ 3721 3712 3711 3710 ] final   36.75 input -179.91 | X-H torsion
[ 3841 3832 3831 3830 ] final   -7.67 input -179.91 | X-H torsion
[ 3767 3762 3761 3758 ] final  133.63 input  -89.99 | X-H torsion
[ 2472 2467 2466 2463 ] final -173.61 input  -89.97 | X-H torsion

> <Gold.Protein.ActiveResidues>
 VAL82   VAL86   LEU89   PHE106  VAL107  ASP110  VAL111  MET112  CYS114  THR115 
 CYS181  SER182  ILE183  PHE188  VAL189  ILE190  SER192  SER193  SER196  TRP342 
 PHE345  PHE346  HIS349  VAL350  TYR365  THR369  GLY372  TYR373 

> <Gold.Protein.RotatedAtoms>
    3.9300   -8.5654    3.9181 H   0  0  0  0  0  0  0  0  0  0  0  0  # atno 1303 bound_to 1298
    2.0406   -8.1327    7.5240 H   0  0  0  0  0  0  0  0  0  0  0  0  # atno 2461 bound_to 2456
   -5.2831   -5.4094    9.0999 H   0  0  0  0  0  0  0  0  0  0  0  0  # atno 2472 bound_to 2467
    2.1860   -7.4317    5.3483 H   0  0  0  0  0  0  0  0  0  0  0  0  # atno 2515 bound_to 2510
   -2.4978  -18.0218   13.7003 H   0  0  0  0  0  0  0  0  0  0  0  0  # atno 3721 bound_to 3712
   -3.9115  -23.0713   11.0890 H   0  0  0  0  0  0  0  0  0  0  0  0  # atno 3767 bound_to 3762
    1.6761  -20.3976    9.5162 H   0  0  0  0  0  0  0  0  0  0  0  0  # atno 3841 bound_to 3832
    4.8812   -9.4389    4.9174 LP  0  0  0  0  0  0  0  0  0  0  0  0  # atno 4297 bound_to 1298
    3.5510  -10.1173    4.2563 LP  0  0  0  0  0  0  0  0  0  0  0  0  # atno 4298 bound_to 1298
    0.4551   -8.4050    7.2424 LP  0  0  0  0  0  0  0  0  0  0  0  0  # atno 4299 bound_to 2456
    1.2423   -9.2704    8.3817 LP  0  0  0  0  0  0  0  0  0  0  0  0  # atno 4300 bound_to 2456
    2.8323   -8.6062    4.4162 LP  0  0  0  0  0  0  0  0  0  0  0  0  # atno 4301 bound_to 2510
    2.2785   -8.9617    5.9107 LP  0  0  0  0  0  0  0  0  0  0  0  0  # atno 4302 bound_to 2510
   -3.1776  -17.0888   14.8161 LP  0  0  0  0  0  0  0  0  0  0  0  0  # atno 4306 bound_to 3712
   -3.4664  -16.8310   13.2297 LP  0  0  0  0  0  0  0  0  0  0  0  0  # atno 4307 bound_to 3712
    2.2606  -19.6834    8.2031 LP  0  0  0  0  0  0  0  0  0  0  0  0  # atno 4314 bound_to 3832
    3.0325  -20.9596    8.8679 LP  0  0  0  0  0  0  0  0  0  0  0  0  # atno 4315 bound_to 3832
   -5.1845  -22.8806   10.0841 LP  0  0  0  0  0  0  0  0  0  0  0  0  # atno 4318 bound_to 3762
   -5.0310  -21.9233   11.3981 LP  0  0  0  0  0  0  0  0  0  0  0  0  # atno 4319 bound_to 3762
   -4.7468   -4.8339    7.6689 LP  0  0  0  0  0  0  0  0  0  0  0  0  # atno 4320 bound_to 2467
   -3.6872   -5.1503    8.8705 LP  0  0  0  0  0  0  0  0  0  0  0  0  # atno 4321 bound_to 2467

> <Gold.Score>
     Score     S(PLP)   S(hbond)     S(cho)   S(metal)  DE(clash)   DE(tors)     intcor
     26.38     -20.39       2.00       0.00       0.00       0.00       0.00       0.00

> <Gold.PLP.Fitness>
26.3826

> <Gold.PLP.PLP>
-20.3914

> <Gold.PLP.part.hbond>
-1.0000

> <Gold.PLP.part.metal>
0.0000

> <Gold.PLP.part.buried>
-2.8117

> <Gold.PLP.part.nonpolar>
-16.7531

> <Gold.PLP.part.repulsive>
0.0018

> <Gold.PLP.ligand.clash>
0.0000

> <Gold.PLP.ligand.torsion>
0.0044

> <Gold.PLP.Chemscore.Hbond>
2.0000

> <Gold.PLP.Chemscore.CHOScore>
0.0000

> <Gold.PLP.Chemscore.Metal>
0.0000

> <Gold.Chemscore.Hbonds>
donor molecule, donor type, donor heavy atom, donor atom, acceptor molecule, acceptor atom, score
      L1  H     4    15       P1  1227  2.00

> <Gold.PLP.Chemscore.Internal.Correction>
0.0000

