#       Name:                EN300-141346_i001
#       Creating user name   fsindt
#       Creation time:       Wed Mar  1 05:09:12 2023


#       File generated by GOLD software.
#

@<TRIPOS>MOLECULE
EN300-141346_i001|amine_4|mol2|10279|dock17
    17    16     1
SMALL
USER_CHARGES


@<TRIPOS>ATOM
      1 C1          -0.1345 -14.3977   6.6010 C.3            1 <1>                0.0000
      2 C2           0.7668 -14.7274   7.7926 C.3            1 <1>                0.0000
      3 C3          -0.0979 -15.0349   9.0167 C.3            1 <1>                0.0000
      4 N4           1.5947 -15.8976   7.4713 N.4            1 <1>                1.0000
      5 C5           1.6709 -13.5305   8.0946 C.3            1 <1>                0.0000
      6 F6           0.8940 -12.3707   8.1866 F              1 <1>                0.0000
      7 H7          -0.7489 -13.5294   6.8394 H              1 <1>                0.0000
      8 H8           0.4816 -14.1786   5.7289 H              1 <1>                0.0000
      9 H9          -0.7786 -15.2503   6.3859 H              1 <1>                0.0000
     10 H10         -0.7420 -15.8875   8.8015 H              1 <1>                0.0000
     11 H11          0.5443 -15.2697   9.8655 H              1 <1>                0.0000
     12 H12         -0.7122 -14.1665   9.2550 H              1 <1>                0.0000
     13 H13          2.1896 -13.6962   9.0389 H              1 <1>                0.0000
     14 H14          2.4016 -13.4158   7.2940 H              1 <1>                0.0000
     15 H15          2.4955 -15.5905   7.1360 H              1 <1>                0.0000
     16 H16          1.7182 -16.4598   8.3000 H              1 <1>                0.0000
     17 H17          1.1392 -16.4461   6.7574 H              1 <1>                0.0000
@<TRIPOS>BOND
    1    1    2 1     
    2    1    7 1     
    3    1    8 1     
    4    1    9 1     
    5    2    3 1     
    6    2    4 1     
    7    2    5 1     
    8    3   10 1     
    9    3   11 1     
   10    3   12 1     
   11    4   15 1     
   12    4   16 1     
   13    4   17 1     
   14    5    6 1     
   15    5   13 1     
   16    5   14 1     
@<TRIPOS>SUBSTRUCTURE
      1 ****           1
@<TRIPOS>SET
DONOR_HYDROGENS      STATIC     ATOMS    <user>   **** ""
3 15 16 17
ATOM$RED        STATIC     ATOMS    COLORGROUP SYSTEM
3 15 16 17
@<TRIPOS>COMMENT
> <Gold.Version>
2022.2.0

> <Gold.Id.Protein>
3pbl|protein|mol2

> <Gold.Protein.RotatedTorsions>
[ 1303 1298 1297 1294 ] final  -64.05 input  179.99 | X-H torsion
[ 2461 2456 2455 2452 ] final  147.78 input   30.03 | X-H torsion
[ 2515 2510 2509 2506 ] final -145.24 input  -89.99 | X-H torsion
[ 3721 3712 3711 3710 ] final   56.11 input -179.91 | X-H torsion
[ 3841 3832 3831 3830 ] final   31.75 input -179.91 | X-H torsion
[ 3767 3762 3761 3758 ] final   56.25 input  -89.99 | X-H torsion
[ 2472 2467 2466 2463 ] final -155.35 input  -89.97 | X-H torsion

> <Gold.Protein.ActiveResidues>
 VAL82   VAL86   LEU89   PHE106  VAL107  ASP110  VAL111  MET112  CYS114  THR115 
 CYS181  SER182  ILE183  PHE188  VAL189  ILE190  SER192  SER193  SER196  TRP342 
 PHE345  PHE346  HIS349  VAL350  TYR365  THR369  GLY372  TYR373 

> <Gold.Protein.RotatedAtoms>
    3.5347   -8.9204    3.7811 H   0  0  0  0  0  0  0  0  0  0  0  0  # atno 1303 bound_to 1298
    1.8951   -8.9599    8.2995 H   0  0  0  0  0  0  0  0  0  0  0  0  # atno 2461 bound_to 2456
   -5.0556   -5.4526    9.2893 H   0  0  0  0  0  0  0  0  0  0  0  0  # atno 2472 bound_to 2467
    2.5647   -9.2529    5.3815 H   0  0  0  0  0  0  0  0  0  0  0  0  # atno 2515 bound_to 2510
   -2.5715  -17.9347   13.4323 H   0  0  0  0  0  0  0  0  0  0  0  0  # atno 3721 bound_to 3712
   -4.6211  -23.2617   10.1671 H   0  0  0  0  0  0  0  0  0  0  0  0  # atno 3767 bound_to 3762
    2.0886  -20.7978    9.6191 H   0  0  0  0  0  0  0  0  0  0  0  0  # atno 3841 bound_to 3832
    4.8744   -8.9290    4.7148 LP  0  0  0  0  0  0  0  0  0  0  0  0  # atno 4297 bound_to 1298
    3.9533  -10.2721    4.5959 LP  0  0  0  0  0  0  0  0  0  0  0  0  # atno 4298 bound_to 1298
    1.4804   -7.9171    7.1129 LP  0  0  0  0  0  0  0  0  0  0  0  0  # atno 4299 bound_to 2456
    0.3625   -8.9314    7.7359 LP  0  0  0  0  0  0  0  0  0  0  0  0  # atno 4300 bound_to 2456
    2.0357   -7.7942    5.8894 LP  0  0  0  0  0  0  0  0  0  0  0  0  # atno 4301 bound_to 2510
    2.6962   -7.9516    4.4043 LP  0  0  0  0  0  0  0  0  0  0  0  0  # atno 4302 bound_to 2510
   -3.0161  -17.3630   14.8653 LP  0  0  0  0  0  0  0  0  0  0  0  0  # atno 4306 bound_to 3712
   -3.5427  -16.6574   13.4899 LP  0  0  0  0  0  0  0  0  0  0  0  0  # atno 4307 bound_to 3712
    1.7082  -19.6747    8.5374 LP  0  0  0  0  0  0  0  0  0  0  0  0  # atno 4314 bound_to 3832
    3.1084  -20.5059    8.4146 LP  0  0  0  0  0  0  0  0  0  0  0  0  # atno 4315 bound_to 3832
   -5.4436  -22.0340   10.8620 LP  0  0  0  0  0  0  0  0  0  0  0  0  # atno 4318 bound_to 3762
   -4.0626  -22.5795   11.5417 LP  0  0  0  0  0  0  0  0  0  0  0  0  # atno 4319 bound_to 3762
   -5.0267   -4.8956    7.7547 LP  0  0  0  0  0  0  0  0  0  0  0  0  # atno 4320 bound_to 2467
   -3.6347   -5.0454    8.5953 LP  0  0  0  0  0  0  0  0  0  0  0  0  # atno 4321 bound_to 2467

> <Gold.Score>
     Score     S(PLP)   S(hbond)     S(cho)   S(metal)  DE(clash)   DE(tors)     intcor
     28.76     -19.90       3.00       0.00       0.00       0.00       0.07       0.00

> <Gold.PLP.Fitness>
28.7648

> <Gold.PLP.PLP>
-19.9039

> <Gold.PLP.part.hbond>
-2.1180

> <Gold.PLP.part.metal>
0.0000

> <Gold.PLP.part.buried>
-0.9555

> <Gold.PLP.part.nonpolar>
-17.0636

> <Gold.PLP.part.repulsive>
0.0437

> <Gold.PLP.ligand.clash>
0.0000

> <Gold.PLP.ligand.torsion>
0.0695

> <Gold.PLP.Chemscore.Hbond>
3.0000

> <Gold.PLP.Chemscore.CHOScore>
0.0000

> <Gold.PLP.Chemscore.Metal>
0.0000

> <Gold.Chemscore.Hbonds>
donor molecule, donor type, donor heavy atom, donor atom, acceptor molecule, acceptor atom, score
      L1  H     4    15       P1  1223  1.00
      L1  H     4    16       P1  1227  2.00

> <Gold.PLP.Chemscore.Internal.Correction>
0.0000

