#       Name:                EN300-141346_i001
#       Creating user name   fsindt
#       Creation time:       Wed Mar  1 05:09:06 2023


#       File generated by GOLD software.
#

@<TRIPOS>MOLECULE
EN300-141346_i001|amine_4|mol2|10279|dock3
    17    16     1
SMALL
USER_CHARGES


@<TRIPOS>ATOM
      1 C1           1.4130 -13.1076   7.3506 C.3            1 <1>                0.0000
      2 C2           0.7503 -14.4164   7.7849 C.3            1 <1>                0.0000
      3 C3          -0.5433 -14.6203   6.9938 C.3            1 <1>                0.0000
      4 N4           1.6641 -15.5372   7.5267 N.4            1 <1>                1.0000
      5 C5           0.4293 -14.3540   9.2797 C.3            1 <1>                0.0000
      6 F6           1.6189 -14.4024  10.0145 F              1 <1>                0.0000
      7 H7           0.7349 -12.2759   7.5422 H              1 <1>                0.0000
      8 H8           2.3346 -12.9623   7.9143 H              1 <1>                0.0000
      9 H9           1.6416 -13.1520   6.2858 H              1 <1>                0.0000
     10 H10         -0.3147 -14.6647   5.9290 H              1 <1>                0.0000
     11 H11         -1.0153 -15.5527   7.3033 H              1 <1>                0.0000
     12 H12         -1.2213 -13.7886   7.1855 H              1 <1>                0.0000
     13 H13         -0.0962 -13.4247   9.4999 H              1 <1>                0.0000
     14 H14         -0.2006 -15.2008   9.5518 H              1 <1>                0.0000
     15 H15          1.8399 -16.0331   8.3877 H              1 <1>                0.0000
     16 H16          1.2456 -16.1648   6.8565 H              1 <1>                0.0000
     17 H17          2.5344 -15.1836   7.1586 H              1 <1>                0.0000
@<TRIPOS>BOND
    1    1    2 1     
    2    1    7 1     
    3    1    8 1     
    4    1    9 1     
    5    2    3 1     
    6    2    4 1     
    7    2    5 1     
    8    3   10 1     
    9    3   11 1     
   10    3   12 1     
   11    4   15 1     
   12    4   16 1     
   13    4   17 1     
   14    5    6 1     
   15    5   13 1     
   16    5   14 1     
@<TRIPOS>SUBSTRUCTURE
      1 ****           1
@<TRIPOS>SET
DONOR_HYDROGENS      STATIC     ATOMS    <user>   **** ""
3 15 16 17
ATOM$RED        STATIC     ATOMS    COLORGROUP SYSTEM
3 15 16 17
@<TRIPOS>COMMENT
> <Gold.Version>
2022.2.0

> <Gold.Id.Protein>
3pbl|protein|mol2

> <Gold.Protein.RotatedTorsions>
[ 1303 1298 1297 1294 ] final   38.12 input  179.99 | X-H torsion
[ 2461 2456 2455 2452 ] final   -3.80 input   30.03 | X-H torsion
[ 2515 2510 2509 2506 ] final   17.90 input  -89.99 | X-H torsion
[ 3721 3712 3711 3710 ] final   36.09 input -179.91 | X-H torsion
[ 3841 3832 3831 3830 ] final   78.49 input -179.91 | X-H torsion
[ 3767 3762 3761 3758 ] final -143.83 input  -89.99 | X-H torsion
[ 2472 2467 2466 2463 ] final  -23.74 input  -89.97 | X-H torsion

> <Gold.Protein.ActiveResidues>
 VAL82   VAL86   LEU89   PHE106  VAL107  ASP110  VAL111  MET112  CYS114  THR115 
 CYS181  SER182  ILE183  PHE188  VAL189  ILE190  SER192  SER193  SER196  TRP342 
 PHE345  PHE346  HIS349  VAL350  TYR365  THR369  GLY372  TYR373 

> <Gold.Protein.RotatedAtoms>
    3.7243  -10.2271    4.4200 H   0  0  0  0  0  0  0  0  0  0  0  0  # atno 1303 bound_to 1298
    0.9822   -8.0098    7.0317 H   0  0  0  0  0  0  0  0  0  0  0  0  # atno 2461 bound_to 2456
   -3.6504   -4.9832    8.4156 H   0  0  0  0  0  0  0  0  0  0  0  0  # atno 2472 bound_to 2467
    2.4162   -7.4790    4.8268 H   0  0  0  0  0  0  0  0  0  0  0  0  # atno 2515 bound_to 2510
   -2.4960  -18.0234   13.7100 H   0  0  0  0  0  0  0  0  0  0  0  0  # atno 3721 bound_to 3712
   -4.5175  -22.1345   11.6393 H   0  0  0  0  0  0  0  0  0  0  0  0  # atno 3767 bound_to 3762
    2.7107  -20.9521    9.3721 H   0  0  0  0  0  0  0  0  0  0  0  0  # atno 3841 bound_to 3832
    3.7259   -8.7047    3.8296 LP  0  0  0  0  0  0  0  0  0  0  0  0  # atno 4297 bound_to 1298
    4.9121   -9.1891    4.8419 LP  0  0  0  0  0  0  0  0  0  0  0  0  # atno 4298 bound_to 1298
    0.6186   -9.1979    8.0917 LP  0  0  0  0  0  0  0  0  0  0  0  0  # atno 4299 bound_to 2456
    2.1368   -8.6003    8.0245 LP  0  0  0  0  0  0  0  0  0  0  0  0  # atno 4300 bound_to 2456
    2.7896   -9.0668    4.7530 LP  0  0  0  0  0  0  0  0  0  0  0  0  # atno 4301 bound_to 2510
    2.0909   -8.4538    6.0956 LP  0  0  0  0  0  0  0  0  0  0  0  0  # atno 4302 bound_to 2510
   -3.1830  -17.0799   14.8126 LP  0  0  0  0  0  0  0  0  0  0  0  0  # atno 4306 bound_to 3712
   -3.4630  -16.8381   13.2220 LP  0  0  0  0  0  0  0  0  0  0  0  0  # atno 4307 bound_to 3712
    1.3916  -20.0801    9.0964 LP  0  0  0  0  0  0  0  0  0  0  0  0  # atno 4314 bound_to 3832
    2.7065  -19.9223    8.1410 LP  0  0  0  0  0  0  0  0  0  0  0  0  # atno 4315 bound_to 3832
   -4.1303  -23.3158   10.5802 LP  0  0  0  0  0  0  0  0  0  0  0  0  # atno 4318 bound_to 3762
   -5.4795  -22.4246   10.3519 LP  0  0  0  0  0  0  0  0  0  0  0  0  # atno 4319 bound_to 3762
   -4.8839   -5.4628    9.3720 LP  0  0  0  0  0  0  0  0  0  0  0  0  # atno 4320 bound_to 2467
   -5.1824   -4.9476    7.8515 LP  0  0  0  0  0  0  0  0  0  0  0  0  # atno 4321 bound_to 2467

> <Gold.Score>
     Score     S(PLP)   S(hbond)     S(cho)   S(metal)  DE(clash)   DE(tors)     intcor
     30.84     -22.07       2.97       0.00       0.00       0.00       0.08       0.00

> <Gold.PLP.Fitness>
30.8381

> <Gold.PLP.PLP>
-22.0742

> <Gold.PLP.part.hbond>
-2.0000

> <Gold.PLP.part.metal>
0.0000

> <Gold.PLP.part.buried>
-1.7533

> <Gold.PLP.part.nonpolar>
-19.4703

> <Gold.PLP.part.repulsive>
0.0546

> <Gold.PLP.ligand.clash>
0.0000

> <Gold.PLP.ligand.torsion>
0.0798

> <Gold.PLP.Chemscore.Hbond>
2.9745

> <Gold.PLP.Chemscore.CHOScore>
0.0000

> <Gold.PLP.Chemscore.Metal>
0.0000

> <Gold.Chemscore.Hbonds>
donor molecule, donor type, donor heavy atom, donor atom, acceptor molecule, acceptor atom, score
      L1  H     4    15       P1  1227  1.98
      L1  H     4    17       P1  1223  0.99

> <Gold.PLP.Chemscore.Internal.Correction>
0.0001

