#       Name:                EN300-141346_i001
#       Creating user name   fsindt
#       Creation time:       Wed Mar  1 05:09:07 2023


#       File generated by GOLD software.
#

@<TRIPOS>MOLECULE
EN300-141346_i001|amine_4|mol2|10279|dock5
    17    16     1
SMALL
USER_CHARGES


@<TRIPOS>ATOM
      1 C1           1.1001 -15.7563   6.8934 C.3            1 <1>                0.0000
      2 C2           0.4996 -14.8092   7.9343 C.3            1 <1>                0.0000
      3 C3          -0.9081 -14.3983   7.4982 C.3            1 <1>                0.0000
      4 N4           0.4304 -15.4904   9.2339 N.4            1 <1>                1.0000
      5 C5           1.3793 -13.5633   8.0576 C.3            1 <1>                0.0000
      6 F6           1.2510 -12.7856   6.9018 F              1 <1>                0.0000
      7 H7           1.1514 -15.2509   5.9290 H              1 <1>                0.0000
      8 H8           2.1030 -16.0490   7.2041 H              1 <1>                0.0000
      9 H9           0.4734 -16.6438   6.8054 H              1 <1>                0.0000
     10 H10         -1.5347 -15.2858   7.4102 H              1 <1>                0.0000
     11 H11         -1.3357 -13.7236   8.2397 H              1 <1>                0.0000
     12 H12         -0.8567 -13.8928   6.5338 H              1 <1>                0.0000
     13 H13          1.0651 -12.9812   8.9240 H              1 <1>                0.0000
     14 H14          2.4198 -13.8638   8.1798 H              1 <1>                0.0000
     15 H15          1.2707 -16.0307   9.3757 H              1 <1>                0.0000
     16 H16          0.3435 -14.8045   9.9689 H              1 <1>                0.0000
     17 H17         -0.3705 -16.1039   9.2499 H              1 <1>                0.0000
@<TRIPOS>BOND
    1    1    2 1     
    2    1    7 1     
    3    1    8 1     
    4    1    9 1     
    5    2    3 1     
    6    2    4 1     
    7    2    5 1     
    8    3   10 1     
    9    3   11 1     
   10    3   12 1     
   11    4   15 1     
   12    4   16 1     
   13    4   17 1     
   14    5    6 1     
   15    5   13 1     
   16    5   14 1     
@<TRIPOS>SUBSTRUCTURE
      1 ****           1
@<TRIPOS>SET
DONOR_HYDROGENS      STATIC     ATOMS    <user>   **** ""
3 15 16 17
ATOM$RED        STATIC     ATOMS    COLORGROUP SYSTEM
3 15 16 17
@<TRIPOS>COMMENT
> <Gold.Version>
2022.2.0

> <Gold.Id.Protein>
3pbl|protein|mol2

> <Gold.Protein.RotatedTorsions>
[ 1303 1298 1297 1294 ] final  172.46 input  179.99 | X-H torsion
[ 2461 2456 2455 2452 ] final  177.56 input   30.03 | X-H torsion
[ 2515 2510 2509 2506 ] final -160.11 input  -89.99 | X-H torsion
[ 3721 3712 3711 3710 ] final -134.68 input -179.91 | X-H torsion
[ 3841 3832 3831 3830 ] final -123.40 input -179.91 | X-H torsion
[ 3767 3762 3761 3758 ] final   38.15 input  -89.99 | X-H torsion
[ 2472 2467 2466 2463 ] final   29.15 input  -89.97 | X-H torsion

> <Gold.Protein.ActiveResidues>
 VAL82   VAL86   LEU89   PHE106  VAL107  ASP110  VAL111  MET112  CYS114  THR115 
 CYS181  SER182  ILE183  PHE188  VAL189  ILE190  SER192  SER193  SER196  TRP342 
 PHE345  PHE346  HIS349  VAL350  TYR365  THR369  GLY372  TYR373 

> <Gold.Protein.RotatedAtoms>
    4.8872   -8.9771    4.7430 H   0  0  0  0  0  0  0  0  0  0  0  0  # atno 1303 bound_to 1298
    1.4886   -9.2037    8.4011 H   0  0  0  0  0  0  0  0  0  0  0  0  # atno 2461 bound_to 2456
   -4.1535   -4.8049    7.7673 H   0  0  0  0  0  0  0  0  0  0  0  0  # atno 2472 bound_to 2467
    2.4624   -9.1988    5.5963 H   0  0  0  0  0  0  0  0  0  0  0  0  # atno 2515 bound_to 2510
   -3.2836  -16.5710   14.2120 H   0  0  0  0  0  0  0  0  0  0  0  0  # atno 3721 bound_to 3712
   -4.8732  -23.1323   10.0793 H   0  0  0  0  0  0  0  0  0  0  0  0  # atno 3767 bound_to 3762
    2.2701  -19.6028    8.4369 H   0  0  0  0  0  0  0  0  0  0  0  0  # atno 3841 bound_to 3832
    3.9065  -10.2702    4.5626 LP  0  0  0  0  0  0  0  0  0  0  0  0  # atno 4297 bound_to 1298
    3.5682   -8.8742    3.7858 LP  0  0  0  0  0  0  0  0  0  0  0  0  # atno 4298 bound_to 1298
    1.8889   -8.0158    7.3542 LP  0  0  0  0  0  0  0  0  0  0  0  0  # atno 4299 bound_to 2456
    0.3603   -8.5888    7.3930 LP  0  0  0  0  0  0  0  0  0  0  0  0  # atno 4300 bound_to 2456
    2.0685   -7.6193    5.7223 LP  0  0  0  0  0  0  0  0  0  0  0  0  # atno 4301 bound_to 2510
    2.7658   -8.1806    4.3565 LP  0  0  0  0  0  0  0  0  0  0  0  0  # atno 4302 bound_to 2510
   -3.0683  -17.5660   12.9705 LP  0  0  0  0  0  0  0  0  0  0  0  0  # atno 4306 bound_to 3712
   -2.6684  -18.0288   14.4846 LP  0  0  0  0  0  0  0  0  0  0  0  0  # atno 4307 bound_to 3712
    3.0414  -20.9478    8.8518 LP  0  0  0  0  0  0  0  0  0  0  0  0  # atno 4314 bound_to 3832
    1.5657  -20.6133    9.4660 LP  0  0  0  0  0  0  0  0  0  0  0  0  # atno 4315 bound_to 3832
   -5.3070  -21.9408   11.1083 LP  0  0  0  0  0  0  0  0  0  0  0  0  # atno 4318 bound_to 3762
   -3.9472  -22.8021   11.3832 LP  0  0  0  0  0  0  0  0  0  0  0  0  # atno 4319 bound_to 3762
   -4.0550   -5.3472    9.3044 LP  0  0  0  0  0  0  0  0  0  0  0  0  # atno 4320 bound_to 2467
   -5.5084   -5.2414    8.5673 LP  0  0  0  0  0  0  0  0  0  0  0  0  # atno 4321 bound_to 2467

> <Gold.Score>
     Score     S(PLP)   S(hbond)     S(cho)   S(metal)  DE(clash)   DE(tors)     intcor
     28.32     -22.50       2.00       0.00       0.00       0.00       0.09       0.00

> <Gold.PLP.Fitness>
28.3235

> <Gold.PLP.PLP>
-22.4955

> <Gold.PLP.part.hbond>
-1.0000

> <Gold.PLP.part.metal>
0.0000

> <Gold.PLP.part.buried>
-2.3367

> <Gold.PLP.part.nonpolar>
-19.4017

> <Gold.PLP.part.repulsive>
0.0000

> <Gold.PLP.ligand.clash>
0.0000

> <Gold.PLP.ligand.torsion>
0.0860

> <Gold.PLP.Chemscore.Hbond>
2.0000

> <Gold.PLP.Chemscore.CHOScore>
0.0000

> <Gold.PLP.Chemscore.Metal>
0.0000

> <Gold.Chemscore.Hbonds>
donor molecule, donor type, donor heavy atom, donor atom, acceptor molecule, acceptor atom, score
      L1  H     4    15       P1  1227  2.00

> <Gold.PLP.Chemscore.Internal.Correction>
0.0001

