#       Name:                EN300-141346_i001
#       Creating user name   fsindt
#       Creation time:       Wed Mar  1 05:09:09 2023


#       File generated by GOLD software.
#

@<TRIPOS>MOLECULE
EN300-141346_i001|amine_4|mol2|10279|dock9
    17    16     1
SMALL
USER_CHARGES


@<TRIPOS>ATOM
      1 C1           0.7537 -13.4011   6.8977 C.3            1 <1>                0.0000
      2 C2           0.6830 -14.3374   8.1057 C.3            1 <1>                0.0000
      3 C3          -0.2617 -15.5002   7.7953 C.3            1 <1>                0.0000
      4 N4           2.0240 -14.8607   8.3988 N.4            1 <1>                1.0000
      5 C5           0.1602 -13.5657   9.3191 C.3            1 <1>                0.0000
      6 F6           0.1711 -14.3997  10.4423 F              1 <1>                0.0000
      7 H7          -0.2414 -13.0128   6.6802 H              1 <1>                0.0000
      8 H8           1.4267 -12.5727   7.1189 H              1 <1>                0.0000
      9 H9           1.1260 -13.9509   6.0333 H              1 <1>                0.0000
     10 H10          0.1107 -16.0499   6.9309 H              1 <1>                0.0000
     11 H11         -0.3120 -16.1671   8.6559 H              1 <1>                0.0000
     12 H12         -1.2567 -15.1118   7.5778 H              1 <1>                0.0000
     13 H13          0.7984 -12.7012   9.5023 H              1 <1>                0.0000
     14 H14         -0.8586 -13.2306   9.1252 H              1 <1>                0.0000
     15 H15          1.9439 -15.6979   8.9563 H              1 <1>                0.0000
     16 H16          2.4972 -15.0764   7.5341 H              1 <1>                0.0000
     17 H17          2.5519 -14.1673   8.9073 H              1 <1>                0.0000
@<TRIPOS>BOND
    1    1    2 1     
    2    1    7 1     
    3    1    8 1     
    4    1    9 1     
    5    2    3 1     
    6    2    4 1     
    7    2    5 1     
    8    3   10 1     
    9    3   11 1     
   10    3   12 1     
   11    4   15 1     
   12    4   16 1     
   13    4   17 1     
   14    5    6 1     
   15    5   13 1     
   16    5   14 1     
@<TRIPOS>SUBSTRUCTURE
      1 ****           1
@<TRIPOS>SET
DONOR_HYDROGENS      STATIC     ATOMS    <user>   **** ""
3 15 16 17
ATOM$RED        STATIC     ATOMS    COLORGROUP SYSTEM
3 15 16 17
@<TRIPOS>COMMENT
> <Gold.Version>
2022.2.0

> <Gold.Id.Protein>
3pbl|protein|mol2

> <Gold.Protein.RotatedTorsions>
[ 1303 1298 1297 1294 ] final -152.10 input  179.99 | X-H torsion
[ 2461 2456 2455 2452 ] final   94.95 input   30.03 | X-H torsion
[ 2515 2510 2509 2506 ] final  -10.57 input  -89.99 | X-H torsion
[ 3721 3712 3711 3710 ] final -170.38 input -179.91 | X-H torsion
[ 3841 3832 3831 3830 ] final  158.69 input -179.91 | X-H torsion
[ 3767 3762 3761 3758 ] final   21.88 input  -89.99 | X-H torsion
[ 2472 2467 2466 2463 ] final   73.17 input  -89.97 | X-H torsion

> <Gold.Protein.ActiveResidues>
 VAL82   VAL86   LEU89   PHE106  VAL107  ASP110  VAL111  MET112  CYS114  THR115 
 CYS181  SER182  ILE183  PHE188  VAL189  ILE190  SER192  SER193  SER196  TRP342 
 PHE345  PHE346  HIS349  VAL350  TYR365  THR369  GLY372  TYR373 

> <Gold.Protein.RotatedAtoms>
    4.6319   -8.5833    4.4128 H   0  0  0  0  0  0  0  0  0  0  0  0  # atno 1303 bound_to 1298
    2.1526   -8.3518    7.7819 H   0  0  0  0  0  0  0  0  0  0  0  0  # atno 2461 bound_to 2456
   -4.8542   -4.8542    7.6904 H   0  0  0  0  0  0  0  0  0  0  0  0  # atno 2472 bound_to 2467
    2.6104   -7.7509    4.5056 H   0  0  0  0  0  0  0  0  0  0  0  0  # atno 2515 bound_to 2510
   -3.3361  -16.5614   13.6836 H   0  0  0  0  0  0  0  0  0  0  0  0  # atno 3721 bound_to 3712
   -5.0866  -22.9727   10.0659 H   0  0  0  0  0  0  0  0  0  0  0  0  # atno 3767 bound_to 3762
    3.0960  -20.3024    8.5518 H   0  0  0  0  0  0  0  0  0  0  0  0  # atno 3841 bound_to 3832
    4.3879  -10.1386    4.8461 LP  0  0  0  0  0  0  0  0  0  0  0  0  # atno 4297 bound_to 1298
    3.3422   -9.3997    3.8327 LP  0  0  0  0  0  0  0  0  0  0  0  0  # atno 4298 bound_to 1298
    0.6826   -8.1753    7.0924 LP  0  0  0  0  0  0  0  0  0  0  0  0  # atno 4299 bound_to 2456
    0.9028   -9.2810    8.2738 LP  0  0  0  0  0  0  0  0  0  0  0  0  # atno 4300 bound_to 2456
    2.6569   -9.2464    5.1593 LP  0  0  0  0  0  0  0  0  0  0  0  0  # atno 4301 bound_to 2510
    2.0294   -8.0021    6.0107 LP  0  0  0  0  0  0  0  0  0  0  0  0  # atno 4302 bound_to 2510
   -2.7918  -18.0062   13.2431 LP  0  0  0  0  0  0  0  0  0  0  0  0  # atno 4306 bound_to 3712
   -2.8843  -17.5996   14.8220 LP  0  0  0  0  0  0  0  0  0  0  0  0  # atno 4307 bound_to 3712
    2.0522  -21.0253    9.5337 LP  0  0  0  0  0  0  0  0  0  0  0  0  # atno 4314 bound_to 3832
    1.6007  -19.7276    8.6513 LP  0  0  0  0  0  0  0  0  0  0  0  0  # atno 4315 bound_to 3832
   -5.1333  -21.9147   11.3091 LP  0  0  0  0  0  0  0  0  0  0  0  0  # atno 4318 bound_to 3762
   -3.9076  -22.9878   11.1958 LP  0  0  0  0  0  0  0  0  0  0  0  0  # atno 4319 bound_to 3762
   -3.6568   -5.1110    8.7705 LP  0  0  0  0  0  0  0  0  0  0  0  0  # atno 4320 bound_to 2467
   -5.2059   -5.4283    9.1781 LP  0  0  0  0  0  0  0  0  0  0  0  0  # atno 4321 bound_to 2467

> <Gold.Score>
     Score     S(PLP)   S(hbond)     S(cho)   S(metal)  DE(clash)   DE(tors)     intcor
     27.45     -20.23       2.41       0.00       0.00       0.00       0.01       0.00

> <Gold.PLP.Fitness>
27.4459

> <Gold.PLP.PLP>
-20.2342

> <Gold.PLP.part.hbond>
-1.7169

> <Gold.PLP.part.metal>
0.0000

> <Gold.PLP.part.buried>
-1.5240

> <Gold.PLP.part.nonpolar>
-17.7838

> <Gold.PLP.part.repulsive>
0.0850

> <Gold.PLP.ligand.clash>
0.0000

> <Gold.PLP.ligand.torsion>
0.0094

> <Gold.PLP.Chemscore.Hbond>
2.4102

> <Gold.PLP.Chemscore.CHOScore>
0.0000

> <Gold.PLP.Chemscore.Metal>
0.0000

> <Gold.Chemscore.Hbonds>
donor molecule, donor type, donor heavy atom, donor atom, acceptor molecule, acceptor atom, score
      L1  H     4    15       P1  1227  2.00
      L1  H     4    16       P1  1223  0.41

> <Gold.PLP.Chemscore.Internal.Correction>
0.0000

