#       Name:                EN300-141346_i001
#       Creating user name   fsindt
#       Creation time:       Wed Mar  1 05:09:07 2023


#       File generated by GOLD software.
#

@<TRIPOS>MOLECULE
EN300-141346_i001|amine_4|mol2|10279|dock4
    17    16     1
SMALL
USER_CHARGES


@<TRIPOS>ATOM
      1 C1          -1.1206 -12.0931  11.0144 C.3            1 <1>                0.0000
      2 C2          -0.9678 -10.7092  10.3802 C.3            1 <1>                0.0000
      3 C3          -0.1101  -9.8243  11.2869 C.3            1 <1>                0.0000
      4 N4          -0.3194 -10.8405   9.0686 N.4            1 <1>                1.0000
      5 C5          -2.3485 -10.0732  10.2051 C.3            1 <1>                0.0000
      6 F6          -3.2126 -10.9933   9.6019 F              1 <1>                0.0000
      7 H7          -1.6018 -11.9957  11.9877 H              1 <1>                0.0000
      8 H8          -1.7316 -12.7235  10.3685 H              1 <1>                0.0000
      9 H9          -0.1371 -12.5461  11.1392 H              1 <1>                0.0000
     10 H10          0.8733 -10.2773  11.4116 H              1 <1>                0.0000
     11 H11         -0.0014  -8.8384  10.8350 H              1 <1>                0.0000
     12 H12         -0.5914  -9.7268  12.2601 H              1 <1>                0.0000
     13 H13         -2.7437  -9.7889  11.1803 H              1 <1>                0.0000
     14 H14         -2.2635  -9.1877   9.5753 H              1 <1>                0.0000
     15 H15         -1.0080 -11.0965   8.3770 H              1 <1>                0.0000
     16 H16          0.1032  -9.9606   8.8128 H              1 <1>                0.0000
     17 H17          0.3921 -11.5544   9.1152 H              1 <1>                0.0000
@<TRIPOS>BOND
    1    1    2 1     
    2    1    7 1     
    3    1    8 1     
    4    1    9 1     
    5    2    3 1     
    6    2    4 1     
    7    2    5 1     
    8    3   10 1     
    9    3   11 1     
   10    3   12 1     
   11    4   15 1     
   12    4   16 1     
   13    4   17 1     
   14    5    6 1     
   15    5   13 1     
   16    5   14 1     
@<TRIPOS>SUBSTRUCTURE
      1 ****           1
@<TRIPOS>SET
DONOR_HYDROGENS      STATIC     ATOMS    <user>   **** ""
3 15 16 17
ATOM$RED        STATIC     ATOMS    COLORGROUP SYSTEM
3 15 16 17
@<TRIPOS>COMMENT
> <Gold.Version>
2022.2.0

> <Gold.Id.Protein>
3pbl|protein|mol2

> <Gold.Protein.RotatedTorsions>
[ 1303 1298 1297 1294 ] final  110.79 input  179.99 | X-H torsion
[ 2461 2456 2455 2452 ] final   10.16 input   30.03 | X-H torsion
[ 2515 2510 2509 2506 ] final  -11.63 input  -89.99 | X-H torsion
[ 3721 3712 3711 3710 ] final  -44.88 input -179.91 | X-H torsion
[ 3841 3832 3831 3830 ] final -132.41 input -179.91 | X-H torsion
[ 3767 3762 3761 3758 ] final   46.89 input  -89.99 | X-H torsion
[ 2472 2467 2466 2463 ] final  -82.09 input  -89.97 | X-H torsion

> <Gold.Protein.ActiveResidues>
 VAL82   VAL86   LEU89   PHE106  VAL107  ASP110  VAL111  MET112  CYS114  THR115 
 CYS181  SER182  ILE183  PHE188  VAL189  ILE190  SER192  SER193  SER196  TRP342 
 PHE345  PHE346  HIS349  VAL350  TYR365  THR369  GLY372  TYR373 

> <Gold.Protein.RotatedAtoms>
    4.6561   -9.8949    4.9386 H   0  0  0  0  0  0  0  0  0  0  0  0  # atno 1303 bound_to 1298
    1.2017   -7.9440    7.0426 H   0  0  0  0  0  0  0  0  0  0  0  0  # atno 2461 bound_to 2456
   -3.9418   -5.3069    9.2250 H   0  0  0  0  0  0  0  0  0  0  0  0  # atno 2472 bound_to 2467
    2.6170   -7.7643    4.4967 H   0  0  0  0  0  0  0  0  0  0  0  0  # atno 2515 bound_to 2510
   -2.6936  -17.5251   14.6988 H   0  0  0  0  0  0  0  0  0  0  0  0  # atno 3721 bound_to 3712
   -4.7519  -23.2021   10.1125 H   0  0  0  0  0  0  0  0  0  0  0  0  # atno 3767 bound_to 3762
    2.3935  -19.6388    8.3927 H   0  0  0  0  0  0  0  0  0  0  0  0  # atno 3841 bound_to 3832
    3.3486   -9.7467    3.9718 LP  0  0  0  0  0  0  0  0  0  0  0  0  # atno 4297 bound_to 1298
    4.3572   -8.4796    4.1810 LP  0  0  0  0  0  0  0  0  0  0  0  0  # atno 4298 bound_to 1298
    0.4763   -9.0981    7.9422 LP  0  0  0  0  0  0  0  0  0  0  0  0  # atno 4299 bound_to 2456
    2.0598   -8.7659    8.1631 LP  0  0  0  0  0  0  0  0  0  0  0  0  # atno 4300 bound_to 2456
    2.6506   -9.2489    5.1753 LP  0  0  0  0  0  0  0  0  0  0  0  0  # atno 4301 bound_to 2510
    2.0290   -7.9863    6.0036 LP  0  0  0  0  0  0  0  0  0  0  0  0  # atno 4302 bound_to 2510
   -3.5671  -16.5755   13.7431 LP  0  0  0  0  0  0  0  0  0  0  0  0  # atno 4306 bound_to 3712
   -2.8507  -17.9178   13.1499 LP  0  0  0  0  0  0  0  0  0  0  0  0  # atno 4307 bound_to 3712
    2.9724  -21.0233    8.9621 LP  0  0  0  0  0  0  0  0  0  0  0  0  # atno 4314 bound_to 3832
    1.4921  -20.4962    9.4068 LP  0  0  0  0  0  0  0  0  0  0  0  0  # atno 4315 bound_to 3832
   -5.3814  -21.9778   10.9909 LP  0  0  0  0  0  0  0  0  0  0  0  0  # atno 4318 bound_to 3762
   -3.9941  -22.6954   11.4674 LP  0  0  0  0  0  0  0  0  0  0  0  0  # atno 4319 bound_to 3762
   -5.4887   -5.2880    8.7024 LP  0  0  0  0  0  0  0  0  0  0  0  0  # atno 4320 bound_to 2467
   -4.2862   -4.7987    7.7119 LP  0  0  0  0  0  0  0  0  0  0  0  0  # atno 4321 bound_to 2467

> <Gold.Score>
     Score     S(PLP)   S(hbond)     S(cho)   S(metal)  DE(clash)   DE(tors)     intcor
     30.16     -27.80       0.85       0.00       0.00       0.00       0.10       0.00

> <Gold.PLP.Fitness>
30.1573

> <Gold.PLP.PLP>
-27.8018

> <Gold.PLP.part.hbond>
-1.0000

> <Gold.PLP.part.metal>
0.0000

> <Gold.PLP.part.buried>
-2.4074

> <Gold.PLP.part.nonpolar>
-25.2086

> <Gold.PLP.part.repulsive>
0.0152

> <Gold.PLP.ligand.clash>
0.0000

> <Gold.PLP.ligand.torsion>
0.0973

> <Gold.PLP.Chemscore.Hbond>
0.8500

> <Gold.PLP.Chemscore.CHOScore>
0.0000

> <Gold.PLP.Chemscore.Metal>
0.0000

> <Gold.Chemscore.Hbonds>
donor molecule, donor type, donor heavy atom, donor atom, acceptor molecule, acceptor atom, score
      L1  H     4    16       P1  2456  0.85

> <Gold.PLP.Chemscore.Internal.Correction>
0.0001

