#       Name:                EN300-141346_i001
#       Creating user name   fsindt
#       Creation time:       Wed Mar  1 05:09:06 2023


#       File generated by GOLD software.
#

@<TRIPOS>MOLECULE
EN300-141346_i001|amine_4|mol2|10279|dock1
    17    16     1
SMALL
USER_CHARGES


@<TRIPOS>ATOM
      1 C1          -0.5912 -14.6203   7.4400 C.3            1 <1>                0.0000
      2 C2           0.8807 -14.3593   7.7658 C.3            1 <1>                0.0000
      3 C3           1.0161 -13.9720   9.2398 C.3            1 <1>                0.0000
      4 N4           1.6629 -15.5752   7.5051 N.4            1 <1>                1.0000
      5 C5           1.4027 -13.2193   6.8890 C.3            1 <1>                0.0000
      6 F6           0.7798 -12.0228   7.2600 F              1 <1>                0.0000
      7 H7          -1.1717 -13.7181   7.6335 H              1 <1>                0.0000
      8 H8          -0.6877 -14.8962   6.3900 H              1 <1>                0.0000
      9 H9          -0.9631 -15.4324   8.0647 H              1 <1>                0.0000
     10 H10          0.6442 -14.7841   9.8644 H              1 <1>                0.0000
     11 H11          2.0648 -13.7861   9.4717 H              1 <1>                0.0000
     12 H12          0.4357 -13.0698   9.4331 H              1 <1>                0.0000
     13 H13          2.4806 -13.1239   7.0208 H              1 <1>                0.0000
     14 H14          1.1823 -13.4347   5.8435 H              1 <1>                0.0000
     15 H15          1.1500 -16.1772   6.8786 H              1 <1>                0.0000
     16 H16          2.5445 -15.3239   7.0835 H              1 <1>                0.0000
     17 H17          1.8315 -16.0594   8.3741 H              1 <1>                0.0000
@<TRIPOS>BOND
    1    1    2 1     
    2    1    7 1     
    3    1    8 1     
    4    1    9 1     
    5    2    3 1     
    6    2    4 1     
    7    2    5 1     
    8    3   10 1     
    9    3   11 1     
   10    3   12 1     
   11    4   15 1     
   12    4   16 1     
   13    4   17 1     
   14    5    6 1     
   15    5   13 1     
   16    5   14 1     
@<TRIPOS>SUBSTRUCTURE
      1 ****           1
@<TRIPOS>SET
DONOR_HYDROGENS      STATIC     ATOMS    <user>   **** ""
3 15 16 17
ATOM$RED        STATIC     ATOMS    COLORGROUP SYSTEM
3 15 16 17
@<TRIPOS>COMMENT
> <Gold.Version>
2022.2.0

> <Gold.Id.Protein>
3pbl|protein|mol2

> <Gold.Protein.RotatedTorsions>
[ 1303 1298 1297 1294 ] final  -35.13 input  179.99 | X-H torsion
[ 2461 2456 2455 2452 ] final  119.95 input   30.03 | X-H torsion
[ 2515 2510 2509 2506 ] final  -98.43 input  -89.99 | X-H torsion
[ 3721 3712 3711 3710 ] final  -79.07 input -179.91 | X-H torsion
[ 3841 3832 3831 3830 ] final   17.73 input -179.91 | X-H torsion
[ 3767 3762 3761 3758 ] final  166.68 input  -89.99 | X-H torsion
[ 2472 2467 2466 2463 ] final -164.78 input  -89.97 | X-H torsion

> <Gold.Protein.ActiveResidues>
 VAL82   VAL86   LEU89   PHE106  VAL107  ASP110  VAL111  MET112  CYS114  THR115 
 CYS181  SER182  ILE183  PHE188  VAL189  ILE190  SER192  SER193  SER196  TRP342 
 PHE345  PHE346  HIS349  VAL350  TYR365  THR369  GLY372  TYR373 

> <Gold.Protein.RotatedAtoms>
    3.3507   -9.3518    3.8207 H   0  0  0  0  0  0  0  0  0  0  0  0  # atno 1303 bound_to 1298
    2.1214   -8.6452    8.0641 H   0  0  0  0  0  0  0  0  0  0  0  0  # atno 2461 bound_to 2456
   -5.1806   -5.4341    9.1999 H   0  0  0  0  0  0  0  0  0  0  0  0  # atno 2472 bound_to 2467
    2.8008   -9.0289    4.7073 H   0  0  0  0  0  0  0  0  0  0  0  0  # atno 2515 bound_to 2510
   -2.9435  -17.0830   14.7366 H   0  0  0  0  0  0  0  0  0  0  0  0  # atno 3721 bound_to 3712
   -3.9922  -22.6975   11.4653 H   0  0  0  0  0  0  0  0  0  0  0  0  # atno 3767 bound_to 3762
    1.9165  -20.6753    9.6160 H   0  0  0  0  0  0  0  0  0  0  0  0  # atno 3841 bound_to 3832
    4.6636   -8.6070    4.4434 LP  0  0  0  0  0  0  0  0  0  0  0  0  # atno 4297 bound_to 1298
    4.3482  -10.1625    4.8277 LP  0  0  0  0  0  0  0  0  0  0  0  0  # atno 4298 bound_to 1298
    1.0403   -7.9887    7.0308 LP  0  0  0  0  0  0  0  0  0  0  0  0  # atno 4299 bound_to 2456
    0.5763   -9.1743    8.0533 LP  0  0  0  0  0  0  0  0  0  0  0  0  # atno 4300 bound_to 2456
    2.1054   -8.5121    6.0911 LP  0  0  0  0  0  0  0  0  0  0  0  0  # atno 4301 bound_to 2510
    2.3903   -7.4578    4.8771 LP  0  0  0  0  0  0  0  0  0  0  0  0  # atno 4302 bound_to 2510
   -3.4725  -16.8180   13.2440 LP  0  0  0  0  0  0  0  0  0  0  0  0  # atno 4306 bound_to 3712
   -2.6568  -18.1857   13.6053 LP  0  0  0  0  0  0  0  0  0  0  0  0  # atno 4307 bound_to 3712
    1.8876  -19.6369    8.3925 LP  0  0  0  0  0  0  0  0  0  0  0  0  # atno 4314 bound_to 3832
    3.1279  -20.6853    8.5632 LP  0  0  0  0  0  0  0  0  0  0  0  0  # atno 4315 bound_to 3832
   -4.7552  -23.2009   10.1120 LP  0  0  0  0  0  0  0  0  0  0  0  0  # atno 4318 bound_to 3762
   -5.3797  -21.9766   10.9940 LP  0  0  0  0  0  0  0  0  0  0  0  0  # atno 4319 bound_to 3762
   -4.8863   -4.8603    7.6997 LP  0  0  0  0  0  0  0  0  0  0  0  0  # atno 4320 bound_to 2467
   -3.6501   -5.0991    8.7397 LP  0  0  0  0  0  0  0  0  0  0  0  0  # atno 4321 bound_to 2467

> <Gold.Score>
     Score     S(PLP)   S(hbond)     S(cho)   S(metal)  DE(clash)   DE(tors)     intcor
     32.91     -24.00       3.00       0.00       0.00       0.00       0.05       0.00

> <Gold.PLP.Fitness>
32.9141

> <Gold.PLP.PLP>
-24.0043

> <Gold.PLP.part.hbond>
-2.0000

> <Gold.PLP.part.metal>
0.0000

> <Gold.PLP.part.buried>
-2.0982

> <Gold.PLP.part.nonpolar>
-20.4403

> <Gold.PLP.part.repulsive>
0.0537

> <Gold.PLP.ligand.clash>
0.0000

> <Gold.PLP.ligand.torsion>
0.0451

> <Gold.PLP.Chemscore.Hbond>
3.0000

> <Gold.PLP.Chemscore.CHOScore>
0.0000

> <Gold.PLP.Chemscore.Metal>
0.0000

> <Gold.Chemscore.Hbonds>
donor molecule, donor type, donor heavy atom, donor atom, acceptor molecule, acceptor atom, score
      L1  H     4    16       P1  1223  1.00
      L1  H     4    17       P1  1227  2.00

> <Gold.PLP.Chemscore.Internal.Correction>
0.0001

