#       Name:                EN300-141346_i001
#       Creating user name   fsindt
#       Creation time:       Wed Mar  1 05:09:08 2023


#       File generated by GOLD software.
#

@<TRIPOS>MOLECULE
EN300-141346_i001|amine_4|mol2|10279|dock7
    17    16     1
SMALL
USER_CHARGES


@<TRIPOS>ATOM
      1 C1          -0.2267 -15.8500   8.0819 C.3            1 <1>                0.0000
      2 C2           0.5843 -14.5527   8.0934 C.3            1 <1>                0.0000
      3 C3           0.0777 -13.6442   9.2154 C.3            1 <1>                0.0000
      4 N4           2.0024 -14.8637   8.3178 N.4            1 <1>                1.0000
      5 C5           0.4251 -13.8399   6.7489 C.3            1 <1>                0.0000
      6 F6           1.1361 -12.6352   6.7727 F              1 <1>                0.0000
      7 H7          -1.2790 -15.6193   7.9155 H              1 <1>                0.0000
      8 H8           0.1342 -16.4972   7.2826 H              1 <1>                0.0000
      9 H9          -0.1133 -16.3578   9.0397 H              1 <1>                0.0000
     10 H10          0.1910 -14.1521  10.1731 H              1 <1>                0.0000
     11 H11          0.6555 -12.7201   9.2234 H              1 <1>                0.0000
     12 H12         -0.9746 -13.4135   9.0488 H              1 <1>                0.0000
     13 H13          0.8131 -14.4752   5.9527 H              1 <1>                0.0000
     14 H14         -0.6303 -13.6354   6.5688 H              1 <1>                0.0000
     15 H15          2.4404 -15.0903   7.4375 H              1 <1>                0.0000
     16 H16          2.4617 -14.0633   8.7259 H              1 <1>                0.0000
     17 H17          2.0790 -15.6511   8.9441 H              1 <1>                0.0000
@<TRIPOS>BOND
    1    1    2 1     
    2    1    7 1     
    3    1    8 1     
    4    1    9 1     
    5    2    3 1     
    6    2    4 1     
    7    2    5 1     
    8    3   10 1     
    9    3   11 1     
   10    3   12 1     
   11    4   15 1     
   12    4   16 1     
   13    4   17 1     
   14    5    6 1     
   15    5   13 1     
   16    5   14 1     
@<TRIPOS>SUBSTRUCTURE
      1 ****           1
@<TRIPOS>SET
DONOR_HYDROGENS      STATIC     ATOMS    <user>   **** ""
3 15 16 17
ATOM$RED        STATIC     ATOMS    COLORGROUP SYSTEM
3 15 16 17
@<TRIPOS>COMMENT
> <Gold.Version>
2022.2.0

> <Gold.Id.Protein>
3pbl|protein|mol2

> <Gold.Protein.RotatedTorsions>
[ 1303 1298 1297 1294 ] final  -80.80 input  179.99 | X-H torsion
[ 2461 2456 2455 2452 ] final   45.60 input   30.03 | X-H torsion
[ 2515 2510 2509 2506 ] final -116.59 input  -89.99 | X-H torsion
[ 3721 3712 3711 3710 ] final  113.78 input -179.91 | X-H torsion
[ 3841 3832 3831 3830 ] final -130.91 input -179.91 | X-H torsion
[ 3767 3762 3761 3758 ] final   94.37 input  -89.99 | X-H torsion
[ 2472 2467 2466 2463 ] final -109.10 input  -89.97 | X-H torsion

> <Gold.Protein.ActiveResidues>
 VAL82   VAL86   LEU89   PHE106  VAL107  ASP110  VAL111  MET112  CYS114  THR115 
 CYS181  SER182  ILE183  PHE188  VAL189  ILE190  SER192  SER193  SER196  TRP342 
 PHE345  PHE346  HIS349  VAL350  TYR365  THR369  GLY372  TYR373 

> <Gold.Protein.RotatedAtoms>
    3.7127   -8.7162    3.8256 H   0  0  0  0  0  0  0  0  0  0  0  0  # atno 1303 bound_to 1298
    1.7401   -7.9548    7.2413 H   0  0  0  0  0  0  0  0  0  0  0  0  # atno 2461 bound_to 2456
   -4.3260   -5.4161    9.4107 H   0  0  0  0  0  0  0  0  0  0  0  0  # atno 2472 bound_to 2467
    2.7313   -9.1839    4.9514 H   0  0  0  0  0  0  0  0  0  0  0  0  # atno 2515 bound_to 2510
   -2.9624  -17.3149   13.0309 H   0  0  0  0  0  0  0  0  0  0  0  0  # atno 3721 bound_to 3712
   -4.1475  -23.3203   10.5565 H   0  0  0  0  0  0  0  0  0  0  0  0  # atno 3767 bound_to 3762
    2.3729  -19.6317    8.3990 H   0  0  0  0  0  0  0  0  0  0  0  0  # atno 3841 bound_to 3832
    4.9120   -9.1727    4.8355 LP  0  0  0  0  0  0  0  0  0  0  0  0  # atno 4297 bound_to 1298
    3.7376  -10.2327    4.4307 LP  0  0  0  0  0  0  0  0  0  0  0  0  # atno 4298 bound_to 1298
    0.3316   -8.7312    7.5252 LP  0  0  0  0  0  0  0  0  0  0  0  0  # atno 4299 bound_to 2456
    1.6662   -9.1219    8.3814 LP  0  0  0  0  0  0  0  0  0  0  0  0  # atno 4300 bound_to 2456
    2.0478   -8.2205    6.0786 LP  0  0  0  0  0  0  0  0  0  0  0  0  # atno 4301 bound_to 2510
    2.5175   -7.5944    4.6454 LP  0  0  0  0  0  0  0  0  0  0  0  0  # atno 4302 bound_to 2510
   -2.6479  -18.0764   14.4090 LP  0  0  0  0  0  0  0  0  0  0  0  0  # atno 4306 bound_to 3712
   -3.4597  -16.6595   14.4097 LP  0  0  0  0  0  0  0  0  0  0  0  0  # atno 4307 bound_to 3712
    2.9851  -21.0117    8.9439 LP  0  0  0  0  0  0  0  0  0  0  0  0  # atno 4314 bound_to 3832
    1.5031  -20.5160    9.4176 LP  0  0  0  0  0  0  0  0  0  0  0  0  # atno 4315 bound_to 3832
   -5.4861  -22.4034   10.3713 LP  0  0  0  0  0  0  0  0  0  0  0  0  # atno 4318 bound_to 3762
   -4.4935  -22.1516   11.6432 LP  0  0  0  0  0  0  0  0  0  0  0  0  # atno 4319 bound_to 3762
   -5.4791   -5.1378    8.2885 LP  0  0  0  0  0  0  0  0  0  0  0  0  # atno 4320 bound_to 2467
   -3.9118   -4.8397    7.9401 LP  0  0  0  0  0  0  0  0  0  0  0  0  # atno 4321 bound_to 2467

> <Gold.Score>
     Score     S(PLP)   S(hbond)     S(cho)   S(metal)  DE(clash)   DE(tors)     intcor
     29.51     -22.26       2.42       0.00       0.00       0.00       0.00       0.00

> <Gold.PLP.Fitness>
29.5097

> <Gold.PLP.PLP>
-22.2568

> <Gold.PLP.part.hbond>
-1.8195

> <Gold.PLP.part.metal>
0.0000

> <Gold.PLP.part.buried>
-1.8767

> <Gold.PLP.part.nonpolar>
-19.9463

> <Gold.PLP.part.repulsive>
0.0841

> <Gold.PLP.ligand.clash>
0.0000

> <Gold.PLP.ligand.torsion>
0.0022

> <Gold.PLP.Chemscore.Hbond>
2.4191

> <Gold.PLP.Chemscore.CHOScore>
0.0000

> <Gold.PLP.Chemscore.Metal>
0.0000

> <Gold.Chemscore.Hbonds>
donor molecule, donor type, donor heavy atom, donor atom, acceptor molecule, acceptor atom, score
      L1  H     4    15       P1  1223  0.42
      L1  H     4    17       P1  1227  2.00

> <Gold.PLP.Chemscore.Internal.Correction>
0.0000

