#       Name:                EN300-141346_i001
#       Creating user name   fsindt
#       Creation time:       Wed Mar  1 05:09:10 2023


#       File generated by GOLD software.
#

@<TRIPOS>MOLECULE
EN300-141346_i001|amine_4|mol2|10279|dock12
    17    16     1
SMALL
USER_CHARGES


@<TRIPOS>ATOM
      1 C1           1.4016 -13.2373   6.8214 C.3            1 <1>                0.0000
      2 C2           0.8934 -14.3455   7.7457 C.3            1 <1>                0.0000
      3 C3          -0.5801 -14.6260   7.4437 C.3            1 <1>                0.0000
      4 N4           1.6796 -15.5665   7.5245 N.4            1 <1>                1.0000
      5 C5           1.0398 -13.9016   9.2026 C.3            1 <1>                0.0000
      6 F6           0.3174 -12.7207   9.4051 F              1 <1>                0.0000
      7 H7           0.8181 -12.3312   6.9854 H              1 <1>                0.0000
      8 H8           2.4513 -13.0374   7.0365 H              1 <1>                0.0000
      9 H9           1.2972 -13.5535   5.7835 H              1 <1>                0.0000
     10 H10         -0.6844 -14.9422   6.4059 H              1 <1>                0.0000
     11 H11         -0.9420 -15.4155   8.1023 H              1 <1>                0.0000
     12 H12         -1.1634 -13.7199   7.6079 H              1 <1>                0.0000
     13 H13          0.6543 -14.6807   9.8602 H              1 <1>                0.0000
     14 H14          2.0923 -13.7263   9.4251 H              1 <1>                0.0000
     15 H15          1.1551 -16.2039   6.9441 H              1 <1>                0.0000
     16 H16          2.5466 -15.3298   7.0657 H              1 <1>                0.0000
     17 H17          1.8772 -16.0046   8.4117 H              1 <1>                0.0000
@<TRIPOS>BOND
    1    1    2 1     
    2    1    7 1     
    3    1    8 1     
    4    1    9 1     
    5    2    3 1     
    6    2    4 1     
    7    2    5 1     
    8    3   10 1     
    9    3   11 1     
   10    3   12 1     
   11    4   15 1     
   12    4   16 1     
   13    4   17 1     
   14    5    6 1     
   15    5   13 1     
   16    5   14 1     
@<TRIPOS>SUBSTRUCTURE
      1 ****           1
@<TRIPOS>SET
DONOR_HYDROGENS      STATIC     ATOMS    <user>   **** ""
3 15 16 17
ATOM$RED        STATIC     ATOMS    COLORGROUP SYSTEM
3 15 16 17
@<TRIPOS>COMMENT
> <Gold.Version>
2022.2.0

> <Gold.Id.Protein>
3pbl|protein|mol2

> <Gold.Protein.RotatedTorsions>
[ 1303 1298 1297 1294 ] final -122.98 input  179.99 | X-H torsion
[ 2461 2456 2455 2452 ] final  140.80 input   30.03 | X-H torsion
[ 2515 2510 2509 2506 ] final  -36.95 input  -89.99 | X-H torsion
[ 3721 3712 3711 3710 ] final  -31.77 input -179.91 | X-H torsion
[ 3841 3832 3831 3830 ] final  -85.88 input -179.91 | X-H torsion
[ 3767 3762 3761 3758 ] final  159.40 input  -89.99 | X-H torsion
[ 2472 2467 2466 2463 ] final    6.49 input  -89.97 | X-H torsion

> <Gold.Protein.ActiveResidues>
 VAL82   VAL86   LEU89   PHE106  VAL107  ASP110  VAL111  MET112  CYS114  THR115 
 CYS181  SER182  ILE183  PHE188  VAL189  ILE190  SER192  SER193  SER196  TRP342 
 PHE345  PHE346  HIS349  VAL350  TYR365  THR369  GLY372  TYR373 

> <Gold.Protein.RotatedAtoms>
    4.2736   -8.4756    4.1220 H   0  0  0  0  0  0  0  0  0  0  0  0  # atno 1303 bound_to 1298
    1.9688   -8.8860    8.2514 H   0  0  0  0  0  0  0  0  0  0  0  0  # atno 2461 bound_to 2456
   -3.8625   -4.8536    7.9914 H   0  0  0  0  0  0  0  0  0  0  0  0  # atno 2472 bound_to 2467
    2.7527   -8.1306    4.3622 H   0  0  0  0  0  0  0  0  0  0  0  0  # atno 2515 bound_to 2510
   -2.6129  -17.6802   14.6065 H   0  0  0  0  0  0  0  0  0  0  0  0  # atno 3721 bound_to 3712
   -3.9523  -22.7865   11.3959 H   0  0  0  0  0  0  0  0  0  0  0  0  # atno 3767 bound_to 3762
    1.8096  -19.6325    8.7486 H   0  0  0  0  0  0  0  0  0  0  0  0  # atno 3841 bound_to 3832
    4.7166   -9.8127    4.9480 LP  0  0  0  0  0  0  0  0  0  0  0  0  # atno 4297 bound_to 1298
    3.3719   -9.8333    4.0216 LP  0  0  0  0  0  0  0  0  0  0  0  0  # atno 4298 bound_to 1298
    1.3711   -7.9201    7.0779 LP  0  0  0  0  0  0  0  0  0  0  0  0  # atno 4299 bound_to 2456
    0.3981   -9.0021    7.8190 LP  0  0  0  0  0  0  0  0  0  0  0  0  # atno 4300 bound_to 2456
    2.4845   -9.2157    5.5523 LP  0  0  0  0  0  0  0  0  0  0  0  0  # atno 4301 bound_to 2510
    2.0594   -7.6529    5.7611 LP  0  0  0  0  0  0  0  0  0  0  0  0  # atno 4302 bound_to 2510
   -3.5593  -16.5554   13.9606 LP  0  0  0  0  0  0  0  0  0  0  0  0  # atno 4306 bound_to 3712
   -2.9517  -17.7588   13.0390 LP  0  0  0  0  0  0  0  0  0  0  0  0  # atno 4307 bound_to 3712
    3.1103  -20.5137    8.4204 LP  0  0  0  0  0  0  0  0  0  0  0  0  # atno 4314 bound_to 3832
    2.0287  -21.0131    9.5373 LP  0  0  0  0  0  0  0  0  0  0  0  0  # atno 4315 bound_to 3832
   -4.8562  -23.1435   10.0835 LP  0  0  0  0  0  0  0  0  0  0  0  0  # atno 4318 bound_to 3762
   -5.3185  -21.9451   11.0919 LP  0  0  0  0  0  0  0  0  0  0  0  0  # atno 4319 bound_to 3762
   -4.3963   -5.4278    9.4238 LP  0  0  0  0  0  0  0  0  0  0  0  0  # atno 4320 bound_to 2467
   -5.4580   -5.1121    8.2239 LP  0  0  0  0  0  0  0  0  0  0  0  0  # atno 4321 bound_to 2467

> <Gold.Score>
     Score     S(PLP)   S(hbond)     S(cho)   S(metal)  DE(clash)   DE(tors)     intcor
     31.06     -22.06       3.00       0.00       0.00       0.00       0.00       0.00

> <Gold.PLP.Fitness>
31.0594

> <Gold.PLP.PLP>
-22.0628

> <Gold.PLP.part.hbond>
-2.0000

> <Gold.PLP.part.metal>
0.0000

> <Gold.PLP.part.buried>
-1.7731

> <Gold.PLP.part.nonpolar>
-18.9192

> <Gold.PLP.part.repulsive>
0.0549

> <Gold.PLP.ligand.clash>
0.0000

> <Gold.PLP.ligand.torsion>
0.0017

> <Gold.PLP.Chemscore.Hbond>
3.0000

> <Gold.PLP.Chemscore.CHOScore>
0.0000

> <Gold.PLP.Chemscore.Metal>
0.0000

> <Gold.Chemscore.Hbonds>
donor molecule, donor type, donor heavy atom, donor atom, acceptor molecule, acceptor atom, score
      L1  H     4    16       P1  1223  1.00
      L1  H     4    17       P1  1227  2.00

> <Gold.PLP.Chemscore.Internal.Correction>
0.0000

