#       Name:                EN300-141346_i001
#       Creating user name   fsindt
#       Creation time:       Wed Mar  1 05:09:10 2023


#       File generated by GOLD software.
#

@<TRIPOS>MOLECULE
EN300-141346_i001|amine_4|mol2|10279|dock13
    17    16     1
SMALL
USER_CHARGES


@<TRIPOS>ATOM
      1 C1          -0.6988  -9.7737  11.1615 C.3            1 <1>                0.0000
      2 C2          -1.3880 -10.5013  10.0055 C.3            1 <1>                0.0000
      3 C3          -2.4739  -9.6020   9.4116 C.3            1 <1>                0.0000
      4 N4          -0.3975 -10.8227   8.9693 N.4            1 <1>                1.0000
      5 C5          -2.0228 -11.7939  10.5226 C.3            1 <1>                0.0000
      6 F6          -1.0352 -12.6010  11.0975 F              1 <1>                0.0000
      7 H7          -1.4338  -9.5351  11.9304 H              1 <1>                0.0000
      8 H8           0.0748 -10.4144  11.5846 H              1 <1>                0.0000
      9 H9          -0.2466  -8.8528  10.7931 H              1 <1>                0.0000
     10 H10         -2.0217  -8.6812   9.0432 H              1 <1>                0.0000
     11 H11         -2.9648 -10.1205   8.5881 H              1 <1>                0.0000
     12 H12         -3.2088  -9.3635  10.1805 H              1 <1>                0.0000
     13 H13         -2.7772 -11.5536  11.2718 H              1 <1>                0.0000
     14 H14         -2.4901 -12.3260   9.6941 H              1 <1>                0.0000
     15 H15          0.3301 -11.3981   9.3663 H              1 <1>                0.0000
     16 H16         -0.8479 -11.3217   8.2168 H              1 <1>                0.0000
     17 H17          0.0056  -9.9691   8.6130 H              1 <1>                0.0000
@<TRIPOS>BOND
    1    1    2 1     
    2    1    7 1     
    3    1    8 1     
    4    1    9 1     
    5    2    3 1     
    6    2    4 1     
    7    2    5 1     
    8    3   10 1     
    9    3   11 1     
   10    3   12 1     
   11    4   15 1     
   12    4   16 1     
   13    4   17 1     
   14    5    6 1     
   15    5   13 1     
   16    5   14 1     
@<TRIPOS>SUBSTRUCTURE
      1 ****           1
@<TRIPOS>SET
DONOR_HYDROGENS      STATIC     ATOMS    <user>   **** ""
3 15 16 17
ATOM$RED        STATIC     ATOMS    COLORGROUP SYSTEM
3 15 16 17
@<TRIPOS>COMMENT
> <Gold.Version>
2022.2.0

> <Gold.Id.Protein>
3pbl|protein|mol2

> <Gold.Protein.RotatedTorsions>
[ 1303 1298 1297 1294 ] final -116.99 input  179.99 | X-H torsion
[ 2461 2456 2455 2452 ] final  123.86 input   30.03 | X-H torsion
[ 2515 2510 2509 2506 ] final -104.85 input  -89.99 | X-H torsion
[ 3721 3712 3711 3710 ] final   49.13 input -179.91 | X-H torsion
[ 3841 3832 3831 3830 ] final   16.47 input -179.91 | X-H torsion
[ 3767 3762 3761 3758 ] final  -11.70 input  -89.99 | X-H torsion
[ 2472 2467 2466 2463 ] final  -27.95 input  -89.97 | X-H torsion

> <Gold.Protein.ActiveResidues>
 VAL82   VAL86   LEU89   PHE106  VAL107  ASP110  VAL111  MET112  CYS114  THR115 
 CYS181  SER182  ILE183  PHE188  VAL189  ILE190  SER192  SER193  SER196  TRP342 
 PHE345  PHE346  HIS349  VAL350  TYR365  THR369  GLY372  TYR373 

> <Gold.Protein.RotatedAtoms>
    4.1918   -8.4818    4.0675 H   0  0  0  0  0  0  0  0  0  0  0  0  # atno 1303 bound_to 1298
    2.1011   -8.6917    8.1035 H   0  0  0  0  0  0  0  0  0  0  0  0  # atno 2461 bound_to 2456
   -3.6403   -5.0054    8.4803 H   0  0  0  0  0  0  0  0  0  0  0  0  # atno 2472 bound_to 2467
    2.7802   -9.0926    4.7889 H   0  0  0  0  0  0  0  0  0  0  0  0  # atno 2515 bound_to 2510
   -2.5401  -17.9753   13.5244 H   0  0  0  0  0  0  0  0  0  0  0  0  # atno 3721 bound_to 3712
   -5.4150  -22.5719   10.2340 H   0  0  0  0  0  0  0  0  0  0  0  0  # atno 3767 bound_to 3762
    1.9022  -20.6630    9.6139 H   0  0  0  0  0  0  0  0  0  0  0  0  # atno 3841 bound_to 3832
    4.7677   -9.7285    4.9509 LP  0  0  0  0  0  0  0  0  0  0  0  0  # atno 4297 bound_to 1298
    3.4027   -9.9113    4.0733 LP  0  0  0  0  0  0  0  0  0  0  0  0  # atno 4298 bound_to 1298
    1.1016   -7.9693    7.0328 LP  0  0  0  0  0  0  0  0  0  0  0  0  # atno 4299 bound_to 2456
    0.5354   -9.1472    8.0119 LP  0  0  0  0  0  0  0  0  0  0  0  0  # atno 4300 bound_to 2456
    2.0810   -8.4095    6.0967 LP  0  0  0  0  0  0  0  0  0  0  0  0  # atno 4301 bound_to 2510
    2.4354   -7.4967    4.7899 LP  0  0  0  0  0  0  0  0  0  0  0  0  # atno 4302 bound_to 2510
   -3.0743  -17.2622   14.8600 LP  0  0  0  0  0  0  0  0  0  0  0  0  # atno 4306 bound_to 3712
   -3.5208  -16.7113   13.3890 LP  0  0  0  0  0  0  0  0  0  0  0  0  # atno 4307 bound_to 3712
    1.9049  -19.6357    8.3807 LP  0  0  0  0  0  0  0  0  0  0  0  0  # atno 4314 bound_to 3832
    3.1271  -20.7006    8.5774 LP  0  0  0  0  0  0  0  0  0  0  0  0  # atno 4315 bound_to 3832
   -4.6860  -22.0379   11.5943 LP  0  0  0  0  0  0  0  0  0  0  0  0  # atno 4318 bound_to 3762
   -4.0266  -23.2652   10.7425 LP  0  0  0  0  0  0  0  0  0  0  0  0  # atno 4319 bound_to 3762
   -4.9480   -5.4604    9.3459 LP  0  0  0  0  0  0  0  0  0  0  0  0  # atno 4320 bound_to 2467
   -5.1285   -4.9277    7.8129 LP  0  0  0  0  0  0  0  0  0  0  0  0  # atno 4321 bound_to 2467

> <Gold.Score>
     Score     S(PLP)   S(hbond)     S(cho)   S(metal)  DE(clash)   DE(tors)     intcor
     28.85     -25.85       1.00       0.00       0.00       0.00       0.00       0.00

> <Gold.PLP.Fitness>
28.8492

> <Gold.PLP.PLP>
-25.8527

> <Gold.PLP.part.hbond>
-1.0000

> <Gold.PLP.part.metal>
0.0000

> <Gold.PLP.part.buried>
-2.0440

> <Gold.PLP.part.nonpolar>
-23.5598

> <Gold.PLP.part.repulsive>
0.0189

> <Gold.PLP.ligand.clash>
0.0000

> <Gold.PLP.ligand.torsion>
0.0017

> <Gold.PLP.Chemscore.Hbond>
1.0000

> <Gold.PLP.Chemscore.CHOScore>
0.0000

> <Gold.PLP.Chemscore.Metal>
0.0000

> <Gold.Chemscore.Hbonds>
donor molecule, donor type, donor heavy atom, donor atom, acceptor molecule, acceptor atom, score
      L1  H     4    17       P1  2456  1.00

> <Gold.PLP.Chemscore.Internal.Correction>
0.0000

