#       Name:                EN300-141346_i001
#       Creating user name   fsindt
#       Creation time:       Wed Mar  1 05:09:09 2023


#       File generated by GOLD software.
#

@<TRIPOS>MOLECULE
EN300-141346_i001|amine_4|mol2|10279|dock10
    17    16     1
SMALL
USER_CHARGES


@<TRIPOS>ATOM
      1 C1           1.4060 -13.9251   7.1693 C.3            1 <1>                0.0000
      2 C2           0.6844 -14.4053   8.4301 C.3            1 <1>                0.0000
      3 C3          -0.1434 -15.6493   8.1016 C.3            1 <1>                0.0000
      4 N4           1.6736 -14.7346   9.4650 N.4            1 <1>                1.0000
      5 C5          -0.2397 -13.2983   8.9417 C.3            1 <1>                0.0000
      6 F6           0.5074 -12.1394   9.1784 F              1 <1>                0.0000
      7 H7           0.6720 -13.6808   6.4013 H              1 <1>                0.0000
      8 H8           1.9957 -13.0388   7.4034 H              1 <1>                0.0000
      9 H9           2.0642 -14.7137   6.8048 H              1 <1>                0.0000
     10 H10          0.5149 -16.4379   7.7371 H              1 <1>                0.0000
     11 H11         -0.6574 -15.9913   8.9998 H              1 <1>                0.0000
     12 H12         -0.8774 -15.4049   7.3337 H              1 <1>                0.0000
     13 H13         -1.0058 -13.0905   8.1946 H              1 <1>                0.0000
     14 H14         -0.7141 -13.6204   9.8686 H              1 <1>                0.0000
     15 H15          2.4283 -14.0656   9.4340 H              1 <1>                0.0000
     16 H16          1.2338 -14.7035  10.3726 H              1 <1>                0.0000
     17 H17          2.0381 -15.6608   9.2994 H              1 <1>                0.0000
@<TRIPOS>BOND
    1    1    2 1     
    2    1    7 1     
    3    1    8 1     
    4    1    9 1     
    5    2    3 1     
    6    2    4 1     
    7    2    5 1     
    8    3   10 1     
    9    3   11 1     
   10    3   12 1     
   11    4   15 1     
   12    4   16 1     
   13    4   17 1     
   14    5    6 1     
   15    5   13 1     
   16    5   14 1     
@<TRIPOS>SUBSTRUCTURE
      1 ****           1
@<TRIPOS>SET
DONOR_HYDROGENS      STATIC     ATOMS    <user>   **** ""
3 15 16 17
ATOM$RED        STATIC     ATOMS    COLORGROUP SYSTEM
3 15 16 17
@<TRIPOS>COMMENT
> <Gold.Version>
2022.2.0

> <Gold.Id.Protein>
3pbl|protein|mol2

> <Gold.Protein.RotatedTorsions>
[ 1303 1298 1297 1294 ] final -167.45 input  179.99 | X-H torsion
[ 2461 2456 2455 2452 ] final   -5.08 input   30.03 | X-H torsion
[ 2515 2510 2509 2506 ] final   25.89 input  -89.99 | X-H torsion
[ 3721 3712 3711 3710 ] final   65.29 input -179.91 | X-H torsion
[ 3841 3832 3831 3830 ] final  111.86 input -179.91 | X-H torsion
[ 3767 3762 3761 3758 ] final  118.28 input  -89.99 | X-H torsion
[ 2472 2467 2466 2463 ] final -100.42 input  -89.97 | X-H torsion

> <Gold.Protein.ActiveResidues>
 VAL82   VAL86   LEU89   PHE106  VAL107  ASP110  VAL111  MET112  CYS114  THR115 
 CYS181  SER182  ILE183  PHE188  VAL189  ILE190  SER192  SER193  SER196  TRP342 
 PHE345  PHE346  HIS349  VAL350  TYR365  THR369  GLY372  TYR373 

> <Gold.Protein.RotatedAtoms>
    4.7734   -8.7244    4.5659 H   0  0  0  0  0  0  0  0  0  0  0  0  # atno 1303 bound_to 1298
    0.9628   -8.0176    7.0328 H   0  0  0  0  0  0  0  0  0  0  0  0  # atno 2461 bound_to 2456
   -4.1922   -5.3869    9.3704 H   0  0  0  0  0  0  0  0  0  0  0  0  # atno 2472 bound_to 2467
    2.3603   -7.4381    4.9384 H   0  0  0  0  0  0  0  0  0  0  0  0  # atno 2515 bound_to 2510
   -2.6204  -17.8666   13.3219 H   0  0  0  0  0  0  0  0  0  0  0  0  # atno 3721 bound_to 3712
   -3.9634  -23.2017   10.8800 H   0  0  0  0  0  0  0  0  0  0  0  0  # atno 3767 bound_to 3762
    3.0341  -20.7934    9.0297 H   0  0  0  0  0  0  0  0  0  0  0  0  # atno 3841 bound_to 3832
    4.1812  -10.2361    4.7403 LP  0  0  0  0  0  0  0  0  0  0  0  0  # atno 4297 bound_to 1298
    3.4073   -9.1611    3.7853 LP  0  0  0  0  0  0  0  0  0  0  0  0  # atno 4298 bound_to 1298
    0.6336   -9.2054    8.1043 LP  0  0  0  0  0  0  0  0  0  0  0  0  # atno 4299 bound_to 2456
    2.1413   -8.5850    8.0108 LP  0  0  0  0  0  0  0  0  0  0  0  0  # atno 4300 bound_to 2456
    2.8122   -8.9814    4.6557 LP  0  0  0  0  0  0  0  0  0  0  0  0  # atno 4301 bound_to 2510
    2.1242   -8.5800    6.0813 LP  0  0  0  0  0  0  0  0  0  0  0  0  # atno 4302 bound_to 2510
   -2.9413  -17.4959   14.8507 LP  0  0  0  0  0  0  0  0  0  0  0  0  # atno 4306 bound_to 3712
   -3.5612  -16.6031   13.6320 LP  0  0  0  0  0  0  0  0  0  0  0  0  # atno 4307 bound_to 3712
    1.5017  -20.5135    9.4163 LP  0  0  0  0  0  0  0  0  0  0  0  0  # atno 4314 bound_to 3832
    2.2228  -19.6723    8.2166 LP  0  0  0  0  0  0  0  0  0  0  0  0  # atno 4315 bound_to 3832
   -5.3385  -22.6961   10.1588 LP  0  0  0  0  0  0  0  0  0  0  0  0  # atno 4318 bound_to 3762
   -4.8252  -21.9775   11.5324 LP  0  0  0  0  0  0  0  0  0  0  0  0  # atno 4319 bound_to 3762
   -5.5048   -5.1878    8.4197 LP  0  0  0  0  0  0  0  0  0  0  0  0  # atno 4320 bound_to 2467
   -4.0198   -4.8189    7.8492 LP  0  0  0  0  0  0  0  0  0  0  0  0  # atno 4321 bound_to 2467

> <Gold.Score>
     Score     S(PLP)   S(hbond)     S(cho)   S(metal)  DE(clash)   DE(tors)     intcor
     27.22     -21.24       2.00       0.00       0.00       0.00       0.01       0.00

> <Gold.PLP.Fitness>
27.2246

> <Gold.PLP.PLP>
-21.2375

> <Gold.PLP.part.hbond>
-1.0000

> <Gold.PLP.part.metal>
0.0000

> <Gold.PLP.part.buried>
-2.0467

> <Gold.PLP.part.nonpolar>
-18.3150

> <Gold.PLP.part.repulsive>
0.0546

> <Gold.PLP.ligand.clash>
0.0000

> <Gold.PLP.ligand.torsion>
0.0065

> <Gold.PLP.Chemscore.Hbond>
2.0000

> <Gold.PLP.Chemscore.CHOScore>
0.0000

> <Gold.PLP.Chemscore.Metal>
0.0000

> <Gold.Chemscore.Hbonds>
donor molecule, donor type, donor heavy atom, donor atom, acceptor molecule, acceptor atom, score
      L1  H     4    17       P1  1227  2.00

> <Gold.PLP.Chemscore.Internal.Correction>
0.0000

