#       Name:                EN300-141346_i001
#       Creating user name   fsindt
#       Creation time:       Wed Mar  1 05:09:08 2023


#       File generated by GOLD software.
#

@<TRIPOS>MOLECULE
EN300-141346_i001|amine_4|mol2|10279|dock8
    17    16     1
SMALL
USER_CHARGES


@<TRIPOS>ATOM
      1 C1          -0.6431 -12.0381  10.2439 C.3            1 <1>                0.0000
      2 C2          -1.4245 -10.7563   9.9486 C.3            1 <1>                0.0000
      3 C3          -1.0346  -9.6766  10.9600 C.3            1 <1>                0.0000
      4 N4          -1.1091 -10.2923   8.5909 N.4            1 <1>                1.0000
      5 C5          -2.9247 -11.0376  10.0557 C.3            1 <1>                0.0000
      6 F6          -3.6413  -9.9017   9.6638 F              1 <1>                0.0000
      7 H7          -0.8770 -12.3823  11.2514 H              1 <1>                0.0000
      8 H8          -0.9208 -12.8073   9.5234 H              1 <1>                0.0000
      9 H9           0.4256 -11.8377  10.1676 H              1 <1>                0.0000
     10 H10          0.0340  -9.4763  10.8837 H              1 <1>                0.0000
     11 H11         -1.5914  -8.7635  10.7495 H              1 <1>                0.0000
     12 H12         -1.2687 -10.0209  11.9674 H              1 <1>                0.0000
     13 H13         -3.1849 -11.8734   9.4062 H              1 <1>                0.0000
     14 H14         -3.1749 -11.2872  11.0868 H              1 <1>                0.0000
     15 H15         -1.1004 -11.0796   7.9599 H              1 <1>                0.0000
     16 H16         -1.8079  -9.6289   8.2914 H              1 <1>                0.0000
     17 H17         -0.2023  -9.8497   8.5889 H              1 <1>                0.0000
@<TRIPOS>BOND
    1    1    2 1     
    2    1    7 1     
    3    1    8 1     
    4    1    9 1     
    5    2    3 1     
    6    2    4 1     
    7    2    5 1     
    8    3   10 1     
    9    3   11 1     
   10    3   12 1     
   11    4   15 1     
   12    4   16 1     
   13    4   17 1     
   14    5    6 1     
   15    5   13 1     
   16    5   14 1     
@<TRIPOS>SUBSTRUCTURE
      1 ****           1
@<TRIPOS>SET
DONOR_HYDROGENS      STATIC     ATOMS    <user>   **** ""
3 15 16 17
ATOM$RED        STATIC     ATOMS    COLORGROUP SYSTEM
3 15 16 17
@<TRIPOS>COMMENT
> <Gold.Version>
2022.2.0

> <Gold.Id.Protein>
3pbl|protein|mol2

> <Gold.Protein.RotatedTorsions>
[ 1303 1298 1297 1294 ] final  -30.58 input  179.99 | X-H torsion
[ 2461 2456 2455 2452 ] final   28.25 input   30.03 | X-H torsion
[ 2515 2510 2509 2506 ] final   -3.20 input  -89.99 | X-H torsion
[ 3721 3712 3711 3710 ] final  163.07 input -179.91 | X-H torsion
[ 3841 3832 3831 3830 ] final  -11.23 input -179.91 | X-H torsion
[ 3767 3762 3761 3758 ] final   10.32 input  -89.99 | X-H torsion
[ 2472 2467 2466 2463 ] final   61.72 input  -89.97 | X-H torsion

> <Gold.Protein.ActiveResidues>
 VAL82   VAL86   LEU89   PHE106  VAL107  ASP110  VAL111  MET112  CYS114  THR115 
 CYS181  SER182  ILE183  PHE188  VAL189  ILE190  SER192  SER193  SER196  TRP342 
 PHE345  PHE346  HIS349  VAL350  TYR365  THR369  GLY372  TYR373 

> <Gold.Protein.RotatedAtoms>
    3.3387   -9.4232    3.8400 H   0  0  0  0  0  0  0  0  0  0  0  0  # atno 1303 bound_to 1298
    1.4878   -7.9170    7.1155 H   0  0  0  0  0  0  0  0  0  0  0  0  # atno 2461 bound_to 2456
   -4.6711   -4.8234    7.6607 H   0  0  0  0  0  0  0  0  0  0  0  0  # atno 2472 bound_to 2467
    2.5625   -7.6637    4.5746 H   0  0  0  0  0  0  0  0  0  0  0  0  # atno 2515 bound_to 2510
   -3.2686  -16.7338   13.3316 H   0  0  0  0  0  0  0  0  0  0  0  0  # atno 3721 bound_to 3712
   -5.2207  -22.8415   10.0951 H   0  0  0  0  0  0  0  0  0  0  0  0  # atno 3767 bound_to 3762
    1.6520  -20.3553    9.4933 H   0  0  0  0  0  0  0  0  0  0  0  0  # atno 3841 bound_to 3832
    4.6162   -8.5723    4.3969 LP  0  0  0  0  0  0  0  0  0  0  0  0  # atno 4297 bound_to 1298
    4.4076  -10.1258    4.8548 LP  0  0  0  0  0  0  0  0  0  0  0  0  # atno 4298 bound_to 1298
    0.3605   -8.9263    7.7302 LP  0  0  0  0  0  0  0  0  0  0  0  0  # atno 4299 bound_to 2456
    1.8895   -8.9646    8.3022 LP  0  0  0  0  0  0  0  0  0  0  0  0  # atno 4300 bound_to 2456
    2.6980   -9.2202    5.0484 LP  0  0  0  0  0  0  0  0  0  0  0  0  # atno 4301 bound_to 2510
    2.0362   -8.1156    6.0526 LP  0  0  0  0  0  0  0  0  0  0  0  0  # atno 4302 bound_to 2510
   -2.6537  -18.1889   13.6184 LP  0  0  0  0  0  0  0  0  0  0  0  0  # atno 4306 bound_to 3712
   -3.1003  -17.2180   14.8531 LP  0  0  0  0  0  0  0  0  0  0  0  0  # atno 4307 bound_to 3712
    2.3146  -19.7014    8.1858 LP  0  0  0  0  0  0  0  0  0  0  0  0  # atno 4314 bound_to 3832
    3.0064  -20.9904    8.9116 LP  0  0  0  0  0  0  0  0  0  0  0  0  # atno 4315 bound_to 3832
   -4.9883  -21.9308   11.4305 LP  0  0  0  0  0  0  0  0  0  0  0  0  # atno 4318 bound_to 3762
   -3.9185  -23.1029   11.0452 LP  0  0  0  0  0  0  0  0  0  0  0  0  # atno 4319 bound_to 3762
   -3.7153   -5.1772    8.9365 LP  0  0  0  0  0  0  0  0  0  0  0  0  # atno 4320 bound_to 2467
   -5.3306   -5.3929    9.0417 LP  0  0  0  0  0  0  0  0  0  0  0  0  # atno 4321 bound_to 2467

> <Gold.Score>
     Score     S(PLP)   S(hbond)     S(cho)   S(metal)  DE(clash)   DE(tors)     intcor
     27.43     -24.99       0.83       0.00       0.00       0.00       0.02       0.00

> <Gold.PLP.Fitness>
27.4330

> <Gold.PLP.PLP>
-24.9931

> <Gold.PLP.part.hbond>
-1.0000

> <Gold.PLP.part.metal>
0.0000

> <Gold.PLP.part.buried>
-0.7594

> <Gold.PLP.part.nonpolar>
-24.1509

> <Gold.PLP.part.repulsive>
0.0621

> <Gold.PLP.ligand.clash>
0.0000

> <Gold.PLP.ligand.torsion>
0.0232

> <Gold.PLP.Chemscore.Hbond>
0.8287

> <Gold.PLP.Chemscore.CHOScore>
0.0000

> <Gold.PLP.Chemscore.Metal>
0.0000

> <Gold.Chemscore.Hbonds>
donor molecule, donor type, donor heavy atom, donor atom, acceptor molecule, acceptor atom, score
      L1  H     4    17       P1  2456  0.83

> <Gold.PLP.Chemscore.Internal.Correction>
0.0000

