#       Name:                EN300-141346_i001
#       Creating user name   fsindt
#       Creation time:       Wed Mar  1 05:09:07 2023


#       File generated by GOLD software.
#

@<TRIPOS>MOLECULE
EN300-141346_i001|amine_4|mol2|10279|dock6
    17    16     1
SMALL
USER_CHARGES


@<TRIPOS>ATOM
      1 C1          -1.3313 -10.8637   8.9778 C.3            1 <1>                0.0000
      2 C2          -1.9576 -10.4505  10.3111 C.3            1 <1>                0.0000
      3 C3          -1.7649 -11.5715  11.3344 C.3            1 <1>                0.0000
      4 N4          -1.3088  -9.2259  10.7983 N.4            1 <1>                1.0000
      5 C5          -3.4527 -10.1917  10.1138 C.3            1 <1>                0.0000
      6 F6          -4.1031 -11.3999   9.8408 F              1 <1>                0.0000
      7 H7          -1.8127 -11.7724   8.6162 H              1 <1>                0.0000
      8 H8          -1.4686 -10.0650   8.2488 H              1 <1>                0.0000
      9 H9          -0.2663 -11.0481   9.1184 H              1 <1>                0.0000
     10 H10         -0.6999 -11.7559  11.4749 H              1 <1>                0.0000
     11 H11         -2.2112 -11.2771  12.2842 H              1 <1>                0.0000
     12 H12         -2.2464 -12.4802  10.9728 H              1 <1>                0.0000
     13 H13         -3.8681  -9.7523  11.0207 H              1 <1>                0.0000
     14 H14         -3.5957  -9.5054   9.2792 H              1 <1>                0.0000
     15 H15         -0.8624  -9.4113  11.6840 H              1 <1>                0.0000
     16 H16         -0.6166  -8.9232  10.1295 H              1 <1>                0.0000
     17 H17         -2.0019  -8.5021  10.9161 H              1 <1>                0.0000
@<TRIPOS>BOND
    1    1    2 1     
    2    1    7 1     
    3    1    8 1     
    4    1    9 1     
    5    2    3 1     
    6    2    4 1     
    7    2    5 1     
    8    3   10 1     
    9    3   11 1     
   10    3   12 1     
   11    4   15 1     
   12    4   16 1     
   13    4   17 1     
   14    5    6 1     
   15    5   13 1     
   16    5   14 1     
@<TRIPOS>SUBSTRUCTURE
      1 ****           1
@<TRIPOS>SET
DONOR_HYDROGENS      STATIC     ATOMS    <user>   **** ""
3 15 16 17
ATOM$RED        STATIC     ATOMS    COLORGROUP SYSTEM
3 15 16 17
@<TRIPOS>COMMENT
> <Gold.Version>
2022.2.0

> <Gold.Id.Protein>
3pbl|protein|mol2

> <Gold.Protein.RotatedTorsions>
[ 1303 1298 1297 1294 ] final  100.50 input  179.99 | X-H torsion
[ 2461 2456 2455 2452 ] final -104.55 input   30.03 | X-H torsion
[ 2515 2510 2509 2506 ] final  109.68 input  -89.99 | X-H torsion
[ 3721 3712 3711 3710 ] final  125.90 input -179.91 | X-H torsion
[ 3841 3832 3831 3830 ] final   89.68 input -179.91 | X-H torsion
[ 3767 3762 3761 3758 ] final   -3.49 input  -89.99 | X-H torsion
[ 2472 2467 2466 2463 ] final   79.93 input  -89.97 | X-H torsion

> <Gold.Protein.ActiveResidues>
 VAL82   VAL86   LEU89   PHE106  VAL107  ASP110  VAL111  MET112  CYS114  THR115 
 CYS181  SER182  ILE183  PHE188  VAL189  ILE190  SER192  SER193  SER196  TRP342 
 PHE345  PHE346  HIS349  VAL350  TYR365  THR369  GLY372  TYR373 

> <Gold.Protein.RotatedAtoms>
    4.5436  -10.0170    4.9078 H   0  0  0  0  0  0  0  0  0  0  0  0  # atno 1303 bound_to 1298
    0.4337   -9.0524    7.8818 H   0  0  0  0  0  0  0  0  0  0  0  0  # atno 2461 bound_to 2456
   -4.9576   -4.8777    7.7241 H   0  0  0  0  0  0  0  0  0  0  0  0  # atno 2472 bound_to 2467
    2.0298   -8.0060    6.0120 H   0  0  0  0  0  0  0  0  0  0  0  0  # atno 2515 bound_to 2510
   -3.0515  -17.1563   13.0503 H   0  0  0  0  0  0  0  0  0  0  0  0  # atno 3721 bound_to 3712
   -5.3534  -22.6736   10.1702 H   0  0  0  0  0  0  0  0  0  0  0  0  # atno 3767 bound_to 3762
    2.8390  -20.9228    9.2665 H   0  0  0  0  0  0  0  0  0  0  0  0  # atno 3841 bound_to 3832
    3.3302   -9.5948    3.9000 LP  0  0  0  0  0  0  0  0  0  0  0  0  # atno 4297 bound_to 1298
    4.4882   -8.5092    4.2835 LP  0  0  0  0  0  0  0  0  0  0  0  0  # atno 4298 bound_to 1298
    2.0178   -8.8265    8.2090 LP  0  0  0  0  0  0  0  0  0  0  0  0  # atno 4299 bound_to 2456
    1.2860   -7.9294    7.0574 LP  0  0  0  0  0  0  0  0  0  0  0  0  # atno 4300 bound_to 2456
    2.6087   -7.7476    4.5074 LP  0  0  0  0  0  0  0  0  0  0  0  0  # atno 4301 bound_to 2510
    2.6584   -9.2457    5.1554 LP  0  0  0  0  0  0  0  0  0  0  0  0  # atno 4302 bound_to 2510
   -2.6170  -18.1587   14.2268 LP  0  0  0  0  0  0  0  0  0  0  0  0  # atno 4306 bound_to 3712
   -3.3877  -16.7604   14.5695 LP  0  0  0  0  0  0  0  0  0  0  0  0  # atno 4307 bound_to 3712
    1.3965  -20.2206    9.2192 LP  0  0  0  0  0  0  0  0  0  0  0  0  # atno 4314 bound_to 3832
    2.5534  -19.8156    8.1402 LP  0  0  0  0  0  0  0  0  0  0  0  0  # atno 4315 bound_to 3832
   -4.8007  -21.9868   11.5448 LP  0  0  0  0  0  0  0  0  0  0  0  0  # atno 4318 bound_to 3762
   -3.9735  -23.2146   10.8558 LP  0  0  0  0  0  0  0  0  0  0  0  0  # atno 4319 bound_to 3762
   -3.6393   -5.0720    8.6678 LP  0  0  0  0  0  0  0  0  0  0  0  0  # atno 4320 bound_to 2467
   -5.1201   -5.4437    9.2471 LP  0  0  0  0  0  0  0  0  0  0  0  0  # atno 4321 bound_to 2467

> <Gold.Score>
     Score     S(PLP)   S(hbond)     S(cho)   S(metal)  DE(clash)   DE(tors)     intcor
     29.96     -27.10       0.99       0.00       0.00       0.00       0.06       0.00

> <Gold.PLP.Fitness>
29.9632

> <Gold.PLP.PLP>
-27.1016

> <Gold.PLP.part.hbond>
-1.0000

> <Gold.PLP.part.metal>
0.0000

> <Gold.PLP.part.buried>
-1.2462

> <Gold.PLP.part.nonpolar>
-25.6847

> <Gold.PLP.part.repulsive>
0.1255

> <Gold.PLP.ligand.clash>
0.0000

> <Gold.PLP.ligand.torsion>
0.0561

> <Gold.PLP.Chemscore.Hbond>
0.9913

> <Gold.PLP.Chemscore.CHOScore>
0.0000

> <Gold.PLP.Chemscore.Metal>
0.0000

> <Gold.Chemscore.Hbonds>
donor molecule, donor type, donor heavy atom, donor atom, acceptor molecule, acceptor atom, score
      L1  H     4    17       P1  2398  0.99

> <Gold.PLP.Chemscore.Internal.Correction>
0.0001

