#       Name:                EN300-141346_i001
#       Creating user name   fsindt
#       Creation time:       Wed Mar  1 05:09:11 2023


#       File generated by GOLD software.
#

@<TRIPOS>MOLECULE
EN300-141346_i001|amine_4|mol2|10279|dock16
    17    16     1
SMALL
USER_CHARGES


@<TRIPOS>ATOM
      1 C1          -0.0906 -15.5244  13.5065 C.3            1 <1>                0.0000
      2 C2           0.9217 -16.3737  12.7352 C.3            1 <1>                0.0000
      3 C3           0.2579 -17.6774  12.2874 C.3            1 <1>                0.0000
      4 N4           1.3868 -15.6308  11.5562 N.4            1 <1>                1.0000
      5 C5           2.1138 -16.6929  13.6397 C.3            1 <1>                0.0000
      6 F6           3.0933 -17.3647  12.9005 F              1 <1>                0.0000
      7 H7          -0.4357 -16.0756  14.3813 H              1 <1>                0.0000
      8 H8           0.3824 -14.5956  13.8255 H              1 <1>                0.0000
      9 H9          -0.9398 -15.2971  12.8621 H              1 <1>                0.0000
     10 H10         -0.5913 -17.4499  11.6431 H              1 <1>                0.0000
     11 H11          0.9791 -18.2823  11.7380 H              1 <1>                0.0000
     12 H12         -0.0871 -18.2285  13.1623 H              1 <1>                0.0000
     13 H13          2.5288 -15.7655  14.0346 H              1 <1>                0.0000
     14 H14          1.7848 -17.3241  14.4652 H              1 <1>                0.0000
     15 H15          1.6336 -16.2808  10.8250 H              1 <1>                0.0000
     16 H16          0.6510 -15.0218  11.2307 H              1 <1>                0.0000
     17 H17          2.1950 -15.0797  11.8033 H              1 <1>                0.0000
@<TRIPOS>BOND
    1    1    2 1     
    2    1    7 1     
    3    1    8 1     
    4    1    9 1     
    5    2    3 1     
    6    2    4 1     
    7    2    5 1     
    8    3   10 1     
    9    3   11 1     
   10    3   12 1     
   11    4   15 1     
   12    4   16 1     
   13    4   17 1     
   14    5    6 1     
   15    5   13 1     
   16    5   14 1     
@<TRIPOS>SUBSTRUCTURE
      1 ****           1
@<TRIPOS>SET
DONOR_HYDROGENS      STATIC     ATOMS    <user>   **** ""
3 15 16 17
ATOM$RED        STATIC     ATOMS    COLORGROUP SYSTEM
3 15 16 17
@<TRIPOS>COMMENT
> <Gold.Version>
2022.2.0

> <Gold.Id.Protein>
3pbl|protein|mol2

> <Gold.Protein.RotatedTorsions>
[ 1303 1298 1297 1294 ] final   -8.83 input  179.99 | X-H torsion
[ 2461 2456 2455 2452 ] final -110.34 input   30.03 | X-H torsion
[ 2515 2510 2509 2506 ] final -163.75 input  -89.99 | X-H torsion
[ 3721 3712 3711 3710 ] final  149.42 input -179.91 | X-H torsion
[ 3841 3832 3831 3830 ] final  -41.29 input -179.91 | X-H torsion
[ 3767 3762 3761 3758 ] final  123.74 input  -89.99 | X-H torsion
[ 2472 2467 2466 2463 ] final   64.29 input  -89.97 | X-H torsion

> <Gold.Protein.ActiveResidues>
 VAL82   VAL86   LEU89   PHE106  VAL107  ASP110  VAL111  MET112  CYS114  THR115 
 CYS181  SER182  ILE183  PHE188  VAL189  ILE190  SER192  SER193  SER196  TRP342 
 PHE345  PHE346  HIS349  VAL350  TYR365  THR369  GLY372  TYR373 

> <Gold.Protein.RotatedAtoms>
    3.3497   -9.7520    3.9753 H   0  0  0  0  0  0  0  0  0  0  0  0  # atno 1303 bound_to 1298
    0.4804   -9.1024    7.9480 H   0  0  0  0  0  0  0  0  0  0  0  0  # atno 2461 bound_to 2456
   -4.7128   -4.8293    7.6643 H   0  0  0  0  0  0  0  0  0  0  0  0  # atno 2472 bound_to 2467
    2.4368   -9.1765    5.6456 H   0  0  0  0  0  0  0  0  0  0  0  0  # atno 2515 bound_to 2510
   -3.2024  -16.8708   13.1929 H   0  0  0  0  0  0  0  0  0  0  0  0  # atno 3721 bound_to 3712
   -3.9386  -23.1596   10.9553 H   0  0  0  0  0  0  0  0  0  0  0  0  # atno 3767 bound_to 3762
    1.5618  -20.0014    9.2322 H   0  0  0  0  0  0  0  0  0  0  0  0  # atno 3841 bound_to 3832
    4.3522   -8.4790    4.1773 LP  0  0  0  0  0  0  0  0  0  0  0  0  # atno 4297 bound_to 1298
    4.6605   -9.8901    4.9391 LP  0  0  0  0  0  0  0  0  0  0  0  0  # atno 4298 bound_to 1298
    2.0634   -8.7600    8.1585 LP  0  0  0  0  0  0  0  0  0  0  0  0  # atno 4299 bound_to 2456
    1.1937   -7.9459    7.0417 LP  0  0  0  0  0  0  0  0  0  0  0  0  # atno 4300 bound_to 2456
    2.0804   -7.5834    5.6759 LP  0  0  0  0  0  0  0  0  0  0  0  0  # atno 4301 bound_to 2510
    2.7795   -8.2388    4.3536 LP  0  0  0  0  0  0  0  0  0  0  0  0  # atno 4302 bound_to 2510
   -2.6172  -18.2181   13.8411 LP  0  0  0  0  0  0  0  0  0  0  0  0  # atno 4306 bound_to 3712
   -3.2132  -17.0306   14.7905 LP  0  0  0  0  0  0  0  0  0  0  0  0  # atno 4307 bound_to 3712
    2.7417  -19.9515    8.1453 LP  0  0  0  0  0  0  0  0  0  0  0  0  # atno 4314 bound_to 3832
    2.6835  -21.1492    9.2537 LP  0  0  0  0  0  0  0  0  0  0  0  0  # atno 4315 bound_to 3832
   -5.2884  -22.7630   10.1261 LP  0  0  0  0  0  0  0  0  0  0  0  0  # atno 4318 bound_to 3762
   -4.9001  -21.9527   11.4897 LP  0  0  0  0  0  0  0  0  0  0  0  0  # atno 4319 bound_to 3762
   -3.6991   -5.1624    8.9003 LP  0  0  0  0  0  0  0  0  0  0  0  0  # atno 4320 bound_to 2467
   -5.3050   -5.4018    9.0743 LP  0  0  0  0  0  0  0  0  0  0  0  0  # atno 4321 bound_to 2467

> <Gold.Score>
     Score     S(PLP)   S(hbond)     S(cho)   S(metal)  DE(clash)   DE(tors)     intcor
     26.14     -20.18       2.00       0.00       0.00       0.00       0.02       0.00

> <Gold.PLP.Fitness>
26.1395

> <Gold.PLP.PLP>
-20.1825

> <Gold.PLP.part.hbond>
-1.0000

> <Gold.PLP.part.metal>
0.0000

> <Gold.PLP.part.buried>
-2.1088

> <Gold.PLP.part.nonpolar>
-17.1385

> <Gold.PLP.part.repulsive>
0.0000

> <Gold.PLP.ligand.clash>
0.0000

> <Gold.PLP.ligand.torsion>
0.0215

> <Gold.PLP.Chemscore.Hbond>
2.0000

> <Gold.PLP.Chemscore.CHOScore>
0.0000

> <Gold.PLP.Chemscore.Metal>
0.0000

> <Gold.Chemscore.Hbonds>
donor molecule, donor type, donor heavy atom, donor atom, acceptor molecule, acceptor atom, score
      L1  H     4    15       P1  1227  2.00

> <Gold.PLP.Chemscore.Internal.Correction>
0.0000

