#       Name:                EN300-141346_i001
#       Creating user name   fsindt
#       Creation time:       Wed Mar  1 05:09:11 2023


#       File generated by GOLD software.
#

@<TRIPOS>MOLECULE
EN300-141346_i001|amine_4|mol2|10279|dock15
    17    16     1
SMALL
USER_CHARGES


@<TRIPOS>ATOM
      1 C1          -3.6447 -11.1571  10.1856 C.3            1 <1>                0.0000
      2 C2          -2.2355 -10.5822  10.0300 C.3            1 <1>                0.0000
      3 C3          -1.4166 -11.4829   9.1031 C.3            1 <1>                0.0000
      4 N4          -2.3177  -9.2331   9.4547 N.4            1 <1>                1.0000
      5 C5          -1.5592 -10.5118  11.4007 C.3            1 <1>                0.0000
      6 F6          -0.2831  -9.9552  11.2631 F              1 <1>                0.0000
      7 H7          -3.5838 -12.1582  10.6125 H              1 <1>                0.0000
      8 H8          -4.2281 -10.5154  10.8459 H              1 <1>                0.0000
      9 H9          -4.1264 -11.2073   9.2091 H              1 <1>                0.0000
     10 H10         -1.8983 -11.5331   8.1267 H              1 <1>                0.0000
     11 H11         -0.4126 -11.0733   8.9924 H              1 <1>                0.0000
     12 H12         -1.3555 -12.4840   9.5301 H              1 <1>                0.0000
     13 H13         -2.1562  -9.8910  12.0688 H              1 <1>                0.0000
     14 H14         -1.4749 -11.5158  11.8164 H              1 <1>                0.0000
     15 H15         -3.0262  -9.2163   8.7365 H              1 <1>                0.0000
     16 H16         -2.5572  -8.5726  10.1790 H              1 <1>                0.0000
     17 H17         -1.4261  -8.9836   9.0534 H              1 <1>                0.0000
@<TRIPOS>BOND
    1    1    2 1     
    2    1    7 1     
    3    1    8 1     
    4    1    9 1     
    5    2    3 1     
    6    2    4 1     
    7    2    5 1     
    8    3   10 1     
    9    3   11 1     
   10    3   12 1     
   11    4   15 1     
   12    4   16 1     
   13    4   17 1     
   14    5    6 1     
   15    5   13 1     
   16    5   14 1     
@<TRIPOS>SUBSTRUCTURE
      1 ****           1
@<TRIPOS>SET
DONOR_HYDROGENS      STATIC     ATOMS    <user>   **** ""
3 15 16 17
ATOM$RED        STATIC     ATOMS    COLORGROUP SYSTEM
3 15 16 17
@<TRIPOS>COMMENT
> <Gold.Version>
2022.2.0

> <Gold.Id.Protein>
3pbl|protein|mol2

> <Gold.Protein.RotatedTorsions>
[ 1303 1298 1297 1294 ] final   30.24 input  179.99 | X-H torsion
[ 2461 2456 2455 2452 ] final   87.40 input   30.03 | X-H torsion
[ 2515 2510 2509 2506 ] final  170.48 input  -89.99 | X-H torsion
[ 3721 3712 3711 3710 ] final  131.93 input -179.91 | X-H torsion
[ 3841 3832 3831 3830 ] final -150.18 input -179.91 | X-H torsion
[ 3767 3762 3761 3758 ] final -108.37 input  -89.99 | X-H torsion
[ 2472 2467 2466 2463 ] final    8.08 input  -89.97 | X-H torsion

> <Gold.Protein.ActiveResidues>
 VAL82   VAL86   LEU89   PHE106  VAL107  ASP110  VAL111  MET112  CYS114  THR115 
 CYS181  SER182  ILE183  PHE188  VAL189  ILE190  SER192  SER193  SER196  TRP342 
 PHE345  PHE346  HIS349  VAL350  TYR365  THR369  GLY372  TYR373 

> <Gold.Protein.RotatedAtoms>
    3.6342  -10.1807    4.3393 H   0  0  0  0  0  0  0  0  0  0  0  0  # atno 1303 bound_to 1298
    2.1280   -8.2700    7.6916 H   0  0  0  0  0  0  0  0  0  0  0  0  # atno 2461 bound_to 2456
   -3.8798   -4.8486    7.9723 H   0  0  0  0  0  0  0  0  0  0  0  0  # atno 2472 bound_to 2467
    2.2610   -8.9282    5.9355 H   0  0  0  0  0  0  0  0  0  0  0  0  # atno 2515 bound_to 2510
   -3.0936  -17.0791   13.0740 H   0  0  0  0  0  0  0  0  0  0  0  0  # atno 3721 bound_to 3712
   -5.0050  -21.9269   11.4176 H   0  0  0  0  0  0  0  0  0  0  0  0  # atno 3767 bound_to 3762
    2.6307  -19.7541    8.3490 H   0  0  0  0  0  0  0  0  0  0  0  0  # atno 3841 bound_to 3832
    3.8236   -8.6288    3.8681 LP  0  0  0  0  0  0  0  0  0  0  0  0  # atno 4297 bound_to 1298
    4.9045   -9.3115    4.8842 LP  0  0  0  0  0  0  0  0  0  0  0  0  # atno 4298 bound_to 1298
    0.5927   -8.2496    7.1352 LP  0  0  0  0  0  0  0  0  0  0  0  0  # atno 4299 bound_to 2456
    1.0174   -9.2885    8.3213 LP  0  0  0  0  0  0  0  0  0  0  0  0  # atno 4300 bound_to 2456
    2.2014   -7.4226    5.3068 LP  0  0  0  0  0  0  0  0  0  0  0  0  # atno 4301 bound_to 2510
    2.8344   -8.6481    4.4327 LP  0  0  0  0  0  0  0  0  0  0  0  0  # atno 4302 bound_to 2510
   -2.6093  -18.1869   14.1305 LP  0  0  0  0  0  0  0  0  0  0  0  0  # atno 4306 bound_to 3712
   -3.3467  -16.8213   14.6384 LP  0  0  0  0  0  0  0  0  0  0  0  0  # atno 4307 bound_to 3712
    2.7868  -21.1253    9.1684 LP  0  0  0  0  0  0  0  0  0  0  0  0  # atno 4314 bound_to 3832
    1.4037  -20.2610    9.2509 LP  0  0  0  0  0  0  0  0  0  0  0  0  # atno 4315 bound_to 3832
   -3.9156  -23.0906   11.0629 LP  0  0  0  0  0  0  0  0  0  0  0  0  # atno 4318 bound_to 3762
   -5.2068  -22.8573   10.0908 LP  0  0  0  0  0  0  0  0  0  0  0  0  # atno 4319 bound_to 3762
   -4.3707   -5.4235    9.4197 LP  0  0  0  0  0  0  0  0  0  0  0  0  # atno 4320 bound_to 2467
   -5.4662   -5.1214    8.2470 LP  0  0  0  0  0  0  0  0  0  0  0  0  # atno 4321 bound_to 2467

> <Gold.Score>
     Score     S(PLP)   S(hbond)     S(cho)   S(metal)  DE(clash)   DE(tors)     intcor
     30.62     -27.65       0.99       0.00       0.00       0.00       0.00       0.00

> <Gold.PLP.Fitness>
30.6201

> <Gold.PLP.PLP>
-27.6471

> <Gold.PLP.part.hbond>
-1.0000

> <Gold.PLP.part.metal>
0.0000

> <Gold.PLP.part.buried>
-3.0133

> <Gold.PLP.part.nonpolar>
-25.4657

> <Gold.PLP.part.repulsive>
0.6169

> <Gold.PLP.ligand.clash>
0.0000

> <Gold.PLP.ligand.torsion>
0.0015

> <Gold.PLP.Chemscore.Hbond>
0.9920

> <Gold.PLP.Chemscore.CHOScore>
0.0000

> <Gold.PLP.Chemscore.Metal>
0.0000

> <Gold.Chemscore.Hbonds>
donor molecule, donor type, donor heavy atom, donor atom, acceptor molecule, acceptor atom, score
      L1  H     4    16       P1  2398  0.99

> <Gold.PLP.Chemscore.Internal.Correction>
0.0000

