#       Name:                EN300-141346_i001
#       Creating user name   fsindt
#       Creation time:       Wed Mar  1 05:09:11 2023


#       File generated by GOLD software.
#

@<TRIPOS>MOLECULE
EN300-141346_i001|amine_4|mol2|10279|dock14
    17    16     1
SMALL
USER_CHARGES


@<TRIPOS>ATOM
      1 C1          -1.7110 -10.7750  11.5158 C.3            1 <1>                0.0000
      2 C2          -2.4698 -10.6220  10.1960 C.3            1 <1>                0.0000
      3 C3          -3.9715 -10.7649  10.4514 C.3            1 <1>                0.0000
      4 N4          -2.1943  -9.2974   9.6236 N.4            1 <1>                1.0000
      5 C5          -2.0136 -11.7057   9.2169 C.3            1 <1>                0.0000
      6 F6          -0.6556 -11.5321   8.9287 F              1 <1>                0.0000
      7 H7          -1.9155 -11.7579  11.9406 H              1 <1>                0.0000
      8 H8          -0.6412 -10.6732  11.3339 H              1 <1>                0.0000
      9 H9          -2.0361 -10.0031  12.2133 H              1 <1>                0.0000
     10 H10         -4.2964  -9.9930  11.1489 H              1 <1>                0.0000
     11 H11         -4.5119 -10.6559   9.5111 H              1 <1>                0.0000
     12 H12         -4.1759 -11.7478  10.8761 H              1 <1>                0.0000
     13 H13         -2.1674 -12.6876   9.6644 H              1 <1>                0.0000
     14 H14         -2.5928 -11.6311   8.2966 H              1 <1>                0.0000
     15 H15         -2.5817  -9.2458   8.6933 H              1 <1>                0.0000
     16 H16         -2.6149  -8.5866  10.2030 H              1 <1>                0.0000
     17 H17         -1.1970  -9.1502   9.5811 H              1 <1>                0.0000
@<TRIPOS>BOND
    1    1    2 1     
    2    1    7 1     
    3    1    8 1     
    4    1    9 1     
    5    2    3 1     
    6    2    4 1     
    7    2    5 1     
    8    3   10 1     
    9    3   11 1     
   10    3   12 1     
   11    4   15 1     
   12    4   16 1     
   13    4   17 1     
   14    5    6 1     
   15    5   13 1     
   16    5   14 1     
@<TRIPOS>SUBSTRUCTURE
      1 ****           1
@<TRIPOS>SET
DONOR_HYDROGENS      STATIC     ATOMS    <user>   **** ""
3 15 16 17
ATOM$RED        STATIC     ATOMS    COLORGROUP SYSTEM
3 15 16 17
@<TRIPOS>COMMENT
> <Gold.Version>
2022.2.0

> <Gold.Id.Protein>
3pbl|protein|mol2

> <Gold.Protein.RotatedTorsions>
[ 1303 1298 1297 1294 ] final  -35.88 input  179.99 | X-H torsion
[ 2461 2456 2455 2452 ] final -111.46 input   30.03 | X-H torsion
[ 2515 2510 2509 2506 ] final  117.22 input  -89.99 | X-H torsion
[ 3721 3712 3711 3710 ] final   27.07 input -179.91 | X-H torsion
[ 3841 3832 3831 3830 ] final   59.36 input -179.91 | X-H torsion
[ 3767 3762 3761 3758 ] final  -87.20 input  -89.99 | X-H torsion
[ 2472 2467 2466 2463 ] final -162.80 input  -89.97 | X-H torsion

> <Gold.Protein.ActiveResidues>
 VAL82   VAL86   LEU89   PHE106  VAL107  ASP110  VAL111  MET112  CYS114  THR115 
 CYS181  SER182  ILE183  PHE188  VAL189  ILE190  SER192  SER193  SER196  TRP342 
 PHE345  PHE346  HIS349  VAL350  TYR365  THR369  GLY372  TYR373 

> <Gold.Protein.RotatedAtoms>
    3.3531   -9.3401    3.8178 H   0  0  0  0  0  0  0  0  0  0  0  0  # atno 1303 bound_to 1298
    0.4904   -9.1115    7.9606 H   0  0  0  0  0  0  0  0  0  0  0  0  # atno 2461 bound_to 2456
   -5.1557   -5.4387    9.2202 H   0  0  0  0  0  0  0  0  0  0  0  0  # atno 2472 bound_to 2467
    2.0371   -8.1222    6.0543 H   0  0  0  0  0  0  0  0  0  0  0  0  # atno 2515 bound_to 2510
   -2.4778  -18.0343   13.8445 H   0  0  0  0  0  0  0  0  0  0  0  0  # atno 3721 bound_to 3712
   -5.2543  -21.9253   11.1770 H   0  0  0  0  0  0  0  0  0  0  0  0  # atno 3767 bound_to 3762
    2.4621  -20.9417    9.5167 H   0  0  0  0  0  0  0  0  0  0  0  0  # atno 3841 bound_to 3832
    4.6711   -8.6132    4.4510 LP  0  0  0  0  0  0  0  0  0  0  0  0  # atno 4297 bound_to 1298
    4.3382  -10.1680    4.8230 LP  0  0  0  0  0  0  0  0  0  0  0  0  # atno 4298 bound_to 1298
    2.0714   -8.7469    8.1482 LP  0  0  0  0  0  0  0  0  0  0  0  0  # atno 4299 bound_to 2456
    1.1757   -7.9499    7.0394 LP  0  0  0  0  0  0  0  0  0  0  0  0  # atno 4300 bound_to 2456
    2.5596   -7.6588    4.5785 LP  0  0  0  0  0  0  0  0  0  0  0  0  # atno 4301 bound_to 2510
    2.7003   -9.2183    5.0421 LP  0  0  0  0  0  0  0  0  0  0  0  0  # atno 4302 bound_to 2510
   -3.2556  -16.9626   14.7524 LP  0  0  0  0  0  0  0  0  0  0  0  0  # atno 4306 bound_to 3712
   -3.4114  -16.9428   13.1270 LP  0  0  0  0  0  0  0  0  0  0  0  0  # atno 4307 bound_to 3712
    1.4592  -19.8704    8.8668 LP  0  0  0  0  0  0  0  0  0  0  0  0  # atno 4314 bound_to 3832
    2.9260  -20.1440    8.2035 LP  0  0  0  0  0  0  0  0  0  0  0  0  # atno 4315 bound_to 3832
   -3.9272  -22.8653   11.3257 LP  0  0  0  0  0  0  0  0  0  0  0  0  # atno 4318 bound_to 3762
   -4.9460  -23.0842   10.0684 LP  0  0  0  0  0  0  0  0  0  0  0  0  # atno 4319 bound_to 3762
   -4.9166   -4.8671    7.7094 LP  0  0  0  0  0  0  0  0  0  0  0  0  # atno 4320 bound_to 2467
   -3.6448   -5.0877    8.7097 LP  0  0  0  0  0  0  0  0  0  0  0  0  # atno 4321 bound_to 2467

> <Gold.Score>
     Score     S(PLP)   S(hbond)     S(cho)   S(metal)  DE(clash)   DE(tors)     intcor
     29.60     -26.62       1.00       0.00       0.00       0.00       0.01       0.00

> <Gold.PLP.Fitness>
29.6020

> <Gold.PLP.PLP>
-26.6168

> <Gold.PLP.part.hbond>
-1.0000

> <Gold.PLP.part.metal>
0.0000

> <Gold.PLP.part.buried>
-2.7251

> <Gold.PLP.part.nonpolar>
-23.5612

> <Gold.PLP.part.repulsive>
0.1075

> <Gold.PLP.ligand.clash>
0.0000

> <Gold.PLP.ligand.torsion>
0.0074

> <Gold.PLP.Chemscore.Hbond>
1.0000

> <Gold.PLP.Chemscore.CHOScore>
0.0000

> <Gold.PLP.Chemscore.Metal>
0.0000

> <Gold.Chemscore.Hbonds>
donor molecule, donor type, donor heavy atom, donor atom, acceptor molecule, acceptor atom, score
      L1  H     4    16       P1  2398  1.00

> <Gold.PLP.Chemscore.Internal.Correction>
0.0000

