#       Name:                EN300-141346_i001
#       Creating user name   fsindt
#       Creation time:       Wed Mar  1 05:09:06 2023


#       File generated by GOLD software.
#

@<TRIPOS>MOLECULE
EN300-141346_i001|amine_4|mol2|10279|dock2
    17    16     1
SMALL
USER_CHARGES


@<TRIPOS>ATOM
      1 C1          -1.9211 -11.6995   9.3104 C.3            1 <1>                0.0000
      2 C2          -2.3269 -10.5842  10.2759 C.3            1 <1>                0.0000
      3 C3          -1.4055 -10.6064  11.4972 C.3            1 <1>                0.0000
      4 N4          -2.2121  -9.2852   9.5995 N.4            1 <1>                1.0000
      5 C5          -3.7737 -10.7994  10.7247 C.3            1 <1>                0.0000
      6 F6          -4.5934 -10.9480   9.6007 F              1 <1>                0.0000
      7 H7          -2.0062 -12.6634   9.8123 H              1 <1>                0.0000
      8 H8          -2.5775 -11.6837   8.4404 H              1 <1>                0.0000
      9 H9          -0.8904 -11.5462   8.9908 H              1 <1>                0.0000
     10 H10         -0.3749 -10.4531  11.1775 H              1 <1>                0.0000
     11 H11         -1.6947  -9.8118  12.1849 H              1 <1>                0.0000
     12 H12         -1.4908 -11.5703  11.9991 H              1 <1>                0.0000
     13 H13         -3.8336 -11.6977  11.3393 H              1 <1>                0.0000
     14 H14         -4.1059  -9.9390  11.3055 H              1 <1>                0.0000
     15 H15         -2.7894  -9.2847   8.7720 H              1 <1>                0.0000
     16 H16         -2.5177  -8.5532  10.2232 H              1 <1>                0.0000
     17 H17         -1.2505  -9.1255   9.3389 H              1 <1>                0.0000
@<TRIPOS>BOND
    1    1    2 1     
    2    1    7 1     
    3    1    8 1     
    4    1    9 1     
    5    2    3 1     
    6    2    4 1     
    7    2    5 1     
    8    3   10 1     
    9    3   11 1     
   10    3   12 1     
   11    4   15 1     
   12    4   16 1     
   13    4   17 1     
   14    5    6 1     
   15    5   13 1     
   16    5   14 1     
@<TRIPOS>SUBSTRUCTURE
      1 ****           1
@<TRIPOS>SET
DONOR_HYDROGENS      STATIC     ATOMS    <user>   **** ""
3 15 16 17
ATOM$RED        STATIC     ATOMS    COLORGROUP SYSTEM
3 15 16 17
@<TRIPOS>COMMENT
> <Gold.Version>
2022.2.0

> <Gold.Id.Protein>
3pbl|protein|mol2

> <Gold.Protein.RotatedTorsions>
[ 1303 1298 1297 1294 ] final   74.26 input  179.99 | X-H torsion
[ 2461 2456 2455 2452 ] final   51.17 input   30.03 | X-H torsion
[ 2515 2510 2509 2506 ] final   55.31 input  -89.99 | X-H torsion
[ 3721 3712 3711 3710 ] final  -61.83 input -179.91 | X-H torsion
[ 3841 3832 3831 3830 ] final -173.25 input -179.91 | X-H torsion
[ 3767 3762 3761 3758 ] final  -41.60 input  -89.99 | X-H torsion
[ 2472 2467 2466 2463 ] final -153.86 input  -89.97 | X-H torsion

> <Gold.Protein.ActiveResidues>
 VAL82   VAL86   LEU89   PHE106  VAL107  ASP110  VAL111  MET112  CYS114  THR115 
 CYS181  SER182  ILE183  PHE188  VAL189  ILE190  SER192  SER193  SER196  TRP342 
 PHE345  PHE346  HIS349  VAL350  TYR365  THR369  GLY372  TYR373 

> <Gold.Protein.RotatedAtoms>
    4.2045  -10.2278    4.7539 H   0  0  0  0  0  0  0  0  0  0  0  0  # atno 1303 bound_to 1298
    1.8126   -7.9797    7.2916 H   0  0  0  0  0  0  0  0  0  0  0  0  # atno 2461 bound_to 2456
   -5.0345   -5.4548    9.3018 H   0  0  0  0  0  0  0  0  0  0  0  0  # atno 2472 bound_to 2467
    2.1746   -7.4398    5.3796 H   0  0  0  0  0  0  0  0  0  0  0  0  # atno 2515 bound_to 2510
   -2.8135  -17.3070   14.7556 H   0  0  0  0  0  0  0  0  0  0  0  0  # atno 3721 bound_to 3712
   -5.5108  -22.2256   10.5621 H   0  0  0  0  0  0  0  0  0  0  0  0  # atno 3767 bound_to 3762
    2.8954  -19.9748    8.3827 H   0  0  0  0  0  0  0  0  0  0  0  0  # atno 3841 bound_to 3832
    3.3974   -9.1870    3.7886 LP  0  0  0  0  0  0  0  0  0  0  0  0  # atno 4297 bound_to 1298
    4.7602   -8.7061    4.5490 LP  0  0  0  0  0  0  0  0  0  0  0  0  # atno 4298 bound_to 1298
    0.3401   -8.6653    7.4623 LP  0  0  0  0  0  0  0  0  0  0  0  0  # atno 4299 bound_to 2456
    1.5853   -9.1630    8.3942 LP  0  0  0  0  0  0  0  0  0  0  0  0  # atno 4300 bound_to 2456
    2.8301   -8.5738    4.4049 LP  0  0  0  0  0  0  0  0  0  0  0  0  # atno 4301 bound_to 2510
    2.2922   -8.9860    5.8906 LP  0  0  0  0  0  0  0  0  0  0  0  0  # atno 4302 bound_to 2510
   -3.5402  -16.6638   13.4765 LP  0  0  0  0  0  0  0  0  0  0  0  0  # atno 4306 bound_to 3712
   -2.7392  -18.0813   13.3510 LP  0  0  0  0  0  0  0  0  0  0  0  0  # atno 4307 bound_to 3712
    2.4738  -21.1534    9.3873 LP  0  0  0  0  0  0  0  0  0  0  0  0  # atno 4314 bound_to 3832
    1.4109  -19.9780    8.9930 LP  0  0  0  0  0  0  0  0  0  0  0  0  # atno 4315 bound_to 3832
   -4.2894  -22.3154   11.6424 LP  0  0  0  0  0  0  0  0  0  0  0  0  # atno 4318 bound_to 3762
   -4.3274  -23.3338   10.3664 LP  0  0  0  0  0  0  0  0  0  0  0  0  # atno 4319 bound_to 3762
   -5.0479   -4.9018    7.7654 LP  0  0  0  0  0  0  0  0  0  0  0  0  # atno 4320 bound_to 2467
   -3.6346   -5.0370    8.5721 LP  0  0  0  0  0  0  0  0  0  0  0  0  # atno 4321 bound_to 2467

> <Gold.Score>
     Score     S(PLP)   S(hbond)     S(cho)   S(metal)  DE(clash)   DE(tors)     intcor
     33.06     -30.14       1.00       0.00       0.00       0.00       0.04       0.00

> <Gold.PLP.Fitness>
33.0611

> <Gold.PLP.PLP>
-30.1445

> <Gold.PLP.part.hbond>
-1.0000

> <Gold.PLP.part.metal>
0.0000

> <Gold.PLP.part.buried>
-3.1658

> <Gold.PLP.part.nonpolar>
-26.7246

> <Gold.PLP.part.repulsive>
0.1090

> <Gold.PLP.ligand.clash>
0.0000

> <Gold.PLP.ligand.torsion>
0.0417

> <Gold.PLP.Chemscore.Hbond>
1.0000

> <Gold.PLP.Chemscore.CHOScore>
0.0000

> <Gold.PLP.Chemscore.Metal>
0.0000

> <Gold.Chemscore.Hbonds>
donor molecule, donor type, donor heavy atom, donor atom, acceptor molecule, acceptor atom, score
      L1  H     4    16       P1  2398  1.00

> <Gold.PLP.Chemscore.Internal.Correction>
0.0001

