#       Name:                EN300-141346_i001
#       Creating user name   fsindt
#       Creation time:       Wed Mar  1 05:09:13 2023


#       File generated by GOLD software.
#

@<TRIPOS>MOLECULE
EN300-141346_i001|amine_4|mol2|10279|dock19
    17    16     1
SMALL
USER_CHARGES


@<TRIPOS>ATOM
      1 C1          -0.1060 -15.5618   7.9410 C.3            1 <1>                0.0000
      2 C2           0.5852 -14.3753   8.6155 C.3            1 <1>                0.0000
      3 C3          -0.0981 -14.0792   9.9521 C.3            1 <1>                0.0000
      4 N4           1.9986 -14.7002   8.8496 N.4            1 <1>                1.0000
      5 C5           0.4878 -13.1460   7.7097 C.3            1 <1>                0.0000
      6 F6           0.9278 -12.0163   8.4077 F              1 <1>                0.0000
      7 H7          -1.1548 -15.3207   7.7674 H              1 <1>                0.0000
      8 H8           0.3808 -15.7728   6.9888 H              1 <1>                0.0000
      9 H9          -0.0367 -16.4375   8.5863 H              1 <1>                0.0000
     10 H10         -0.0287 -14.9549  10.5973 H              1 <1>                0.0000
     11 H11          0.3944 -13.2338  10.4325 H              1 <1>                0.0000
     12 H12         -1.1469 -13.8380   9.7783 H              1 <1>                0.0000
     13 H13          1.1114 -13.2941   6.8280 H              1 <1>                0.0000
     14 H14         -0.5480 -13.0024   7.4021 H              1 <1>                0.0000
     15 H15          2.4134 -13.9931   9.4378 H              1 <1>                0.0000
     16 H16          2.0663 -15.5984   9.3045 H              1 <1>                0.0000
     17 H17          2.4868 -14.7324   7.9671 H              1 <1>                0.0000
@<TRIPOS>BOND
    1    1    2 1     
    2    1    7 1     
    3    1    8 1     
    4    1    9 1     
    5    2    3 1     
    6    2    4 1     
    7    2    5 1     
    8    3   10 1     
    9    3   11 1     
   10    3   12 1     
   11    4   15 1     
   12    4   16 1     
   13    4   17 1     
   14    5    6 1     
   15    5   13 1     
   16    5   14 1     
@<TRIPOS>SUBSTRUCTURE
      1 ****           1
@<TRIPOS>SET
DONOR_HYDROGENS      STATIC     ATOMS    <user>   **** ""
3 15 16 17
ATOM$RED        STATIC     ATOMS    COLORGROUP SYSTEM
3 15 16 17
@<TRIPOS>COMMENT
> <Gold.Version>
2022.2.0

> <Gold.Id.Protein>
3pbl|protein|mol2

> <Gold.Protein.RotatedTorsions>
[ 1303 1298 1297 1294 ] final   78.56 input  179.99 | X-H torsion
[ 2461 2456 2455 2452 ] final -109.73 input   30.03 | X-H torsion
[ 2515 2510 2509 2506 ] final -179.79 input  -89.99 | X-H torsion
[ 3721 3712 3711 3710 ] final   44.88 input -179.91 | X-H torsion
[ 3841 3832 3831 3830 ] final   43.41 input -179.91 | X-H torsion
[ 3767 3762 3761 3758 ] final  178.83 input  -89.99 | X-H torsion
[ 2472 2467 2466 2463 ] final -115.42 input  -89.97 | X-H torsion

> <Gold.Protein.ActiveResidues>
 VAL82   VAL86   LEU89   PHE106  VAL107  ASP110  VAL111  MET112  CYS114  THR115 
 CYS181  SER182  ILE183  PHE188  VAL189  ILE190  SER192  SER193  SER196  TRP342 
 PHE345  PHE346  HIS349  VAL350  TYR365  THR369  GLY372  TYR373 

> <Gold.Protein.RotatedAtoms>
    4.2631  -10.2046    4.7857 H   0  0  0  0  0  0  0  0  0  0  0  0  # atno 1303 bound_to 1298
    0.4752   -9.0973    7.9412 H   0  0  0  0  0  0  0  0  0  0  0  0  # atno 2461 bound_to 2456
   -4.4270   -5.4333    9.4276 H   0  0  0  0  0  0  0  0  0  0  0  0  # atno 2472 bound_to 2467
    2.3252   -9.0391    5.8401 H   0  0  0  0  0  0  0  0  0  0  0  0  # atno 2515 bound_to 2510
   -2.5235  -17.9951   13.5833 H   0  0  0  0  0  0  0  0  0  0  0  0  # atno 3721 bound_to 3712
   -4.0842  -22.5470   11.5589 H   0  0  0  0  0  0  0  0  0  0  0  0  # atno 3767 bound_to 3762
    2.2439  -20.8759    9.5929 H   0  0  0  0  0  0  0  0  0  0  0  0  # atno 3841 bound_to 3832
    3.3755   -9.2534    3.7990 LP  0  0  0  0  0  0  0  0  0  0  0  0  # atno 4297 bound_to 1298
    4.7235   -8.6630    4.5067 LP  0  0  0  0  0  0  0  0  0  0  0  0  # atno 4298 bound_to 1298
    2.0590   -8.7671    8.1641 LP  0  0  0  0  0  0  0  0  0  0  0  0  # atno 4299 bound_to 2456
    1.2033   -7.9439    7.0430 LP  0  0  0  0  0  0  0  0  0  0  0  0  # atno 4300 bound_to 2456
    2.1488   -7.4630    5.4522 LP  0  0  0  0  0  0  0  0  0  0  0  0  # atno 4301 bound_to 2510
    2.8228   -8.4967    4.3827 LP  0  0  0  0  0  0  0  0  0  0  0  0  # atno 4302 bound_to 2510
   -3.1100  -17.2015   14.8498 LP  0  0  0  0  0  0  0  0  0  0  0  0  # atno 4306 bound_to 3712
   -3.5043  -16.7491   13.3311 LP  0  0  0  0  0  0  0  0  0  0  0  0  # atno 4307 bound_to 3712
    1.5837  -19.7391    8.6722 LP  0  0  0  0  0  0  0  0  0  0  0  0  # atno 4314 bound_to 3832
    3.0536  -20.3514    8.3102 LP  0  0  0  0  0  0  0  0  0  0  0  0  # atno 4315 bound_to 3832
   -4.5856  -23.2757   10.1861 LP  0  0  0  0  0  0  0  0  0  0  0  0  # atno 4318 bound_to 3762
   -5.4574  -22.0523   10.8264 LP  0  0  0  0  0  0  0  0  0  0  0  0  # atno 4319 bound_to 3762
   -5.4473   -5.1011    8.1967 LP  0  0  0  0  0  0  0  0  0  0  0  0  # atno 4320 bound_to 2467
   -3.8426   -4.8591    8.0151 LP  0  0  0  0  0  0  0  0  0  0  0  0  # atno 4321 bound_to 2467

> <Gold.Score>
     Score     S(PLP)   S(hbond)     S(cho)   S(metal)  DE(clash)   DE(tors)     intcor
     26.40     -20.53       2.00       0.00       0.00       0.00       0.07       0.00

> <Gold.PLP.Fitness>
26.4024

> <Gold.PLP.PLP>
-20.5331

> <Gold.PLP.part.hbond>
-1.0000

> <Gold.PLP.part.metal>
0.0000

> <Gold.PLP.part.buried>
-2.0204

> <Gold.PLP.part.nonpolar>
-17.2250

> <Gold.PLP.part.repulsive>
0.0814

> <Gold.PLP.ligand.clash>
0.0000

> <Gold.PLP.ligand.torsion>
0.0654

> <Gold.PLP.Chemscore.Hbond>
2.0000

> <Gold.PLP.Chemscore.CHOScore>
0.0000

> <Gold.PLP.Chemscore.Metal>
0.0000

> <Gold.Chemscore.Hbonds>
donor molecule, donor type, donor heavy atom, donor atom, acceptor molecule, acceptor atom, score
      L1  H     4    16       P1  1227  2.00

> <Gold.PLP.Chemscore.Internal.Correction>
0.0000

