#       Name:                EN300-141346_i001
#       Creating user name   fsindt
#       Creation time:       Wed Mar  1 05:09:12 2023


#       File generated by GOLD software.
#

@<TRIPOS>MOLECULE
EN300-141346_i001|amine_4|mol2|10279|dock18
    17    16     1
SMALL
USER_CHARGES


@<TRIPOS>ATOM
      1 C1          -0.1011 -14.0443  10.2524 C.3            1 <1>                0.0000
      2 C2           0.7249 -14.2315   8.9782 C.3            1 <1>                0.0000
      3 C3           0.8280 -12.8973   8.2364 C.3            1 <1>                0.0000
      4 N4           2.0714 -14.7004   9.3320 N.4            1 <1>                1.0000
      5 C5           0.0454 -15.2647   8.0772 C.3            1 <1>                0.0000
      6 F6           0.8000 -15.4351   6.9115 F              1 <1>                0.0000
      7 H7          -1.1002 -13.6963   9.9899 H              1 <1>                0.0000
      8 H8          -0.1745 -14.9948  10.7808 H              1 <1>                0.0000
      9 H9           0.3829 -13.3082  10.8942 H              1 <1>                0.0000
     10 H10          1.3120 -12.1613   8.8783 H              1 <1>                0.0000
     11 H11          1.4164 -13.0308   7.3287 H              1 <1>                0.0000
     12 H12         -0.1712 -12.5494   7.9739 H              1 <1>                0.0000
     13 H13         -0.0271 -16.2155   8.6053 H              1 <1>                0.0000
     14 H14         -0.9540 -14.9174   7.8155 H              1 <1>                0.0000
     15 H15          2.0739 -15.7081   9.3835 H              1 <1>                0.0000
     16 H16          2.7284 -14.3979   8.6285 H              1 <1>                0.0000
     17 H17          2.3366 -14.3172  10.2269 H              1 <1>                0.0000
@<TRIPOS>BOND
    1    1    2 1     
    2    1    7 1     
    3    1    8 1     
    4    1    9 1     
    5    2    3 1     
    6    2    4 1     
    7    2    5 1     
    8    3   10 1     
    9    3   11 1     
   10    3   12 1     
   11    4   15 1     
   12    4   16 1     
   13    4   17 1     
   14    5    6 1     
   15    5   13 1     
   16    5   14 1     
@<TRIPOS>SUBSTRUCTURE
      1 ****           1
@<TRIPOS>SET
DONOR_HYDROGENS      STATIC     ATOMS    <user>   **** ""
3 15 16 17
ATOM$RED        STATIC     ATOMS    COLORGROUP SYSTEM
3 15 16 17
@<TRIPOS>COMMENT
> <Gold.Version>
2022.2.0

> <Gold.Id.Protein>
3pbl|protein|mol2

> <Gold.Protein.RotatedTorsions>
[ 1303 1298 1297 1294 ] final  154.89 input  179.99 | X-H torsion
[ 2461 2456 2455 2452 ] final  164.41 input   30.03 | X-H torsion
[ 2515 2510 2509 2506 ] final  -84.69 input  -89.99 | X-H torsion
[ 3721 3712 3711 3710 ] final   49.83 input -179.91 | X-H torsion
[ 3841 3832 3831 3830 ] final -103.06 input -179.91 | X-H torsion
[ 3767 3762 3761 3758 ] final -164.30 input  -89.99 | X-H torsion
[ 2472 2467 2466 2463 ] final -141.08 input  -89.97 | X-H torsion

> <Gold.Protein.ActiveResidues>
 VAL82   VAL86   LEU89   PHE106  VAL107  ASP110  VAL111  MET112  CYS114  THR115 
 CYS181  SER182  ILE183  PHE188  VAL189  ILE190  SER192  SER193  SER196  TRP342 
 PHE345  PHE346  HIS349  VAL350  TYR365  THR369  GLY372  TYR373 

> <Gold.Protein.RotatedAtoms>
    4.9103   -9.2389    4.8607 H   0  0  0  0  0  0  0  0  0  0  0  0  # atno 1303 bound_to 1298
    1.6831   -9.1126    8.3781 H   0  0  0  0  0  0  0  0  0  0  0  0  # atno 2461 bound_to 2456
   -4.8425   -5.4641    9.3861 H   0  0  0  0  0  0  0  0  0  0  0  0  # atno 2472 bound_to 2467
    2.8294   -8.8645    4.5557 H   0  0  0  0  0  0  0  0  0  0  0  0  # atno 2515 bound_to 2510
   -2.5430  -17.9717   13.5148 H   0  0  0  0  0  0  0  0  0  0  0  0  # atno 3721 bound_to 3712
   -4.2572  -22.3454   11.6360 H   0  0  0  0  0  0  0  0  0  0  0  0  # atno 3767 bound_to 3762
    2.0029  -19.5827    8.5843 H   0  0  0  0  0  0  0  0  0  0  0  0  # atno 3841 bound_to 3832
    3.6865  -10.2104    4.3866 LP  0  0  0  0  0  0  0  0  0  0  0  0  # atno 4297 bound_to 1298
    3.7650   -8.6721    3.8442 LP  0  0  0  0  0  0  0  0  0  0  0  0  # atno 4298 bound_to 1298
    1.7238   -7.9505    7.2313 LP  0  0  0  0  0  0  0  0  0  0  0  0  # atno 4299 bound_to 2456
    0.3309   -8.7453    7.5390 LP  0  0  0  0  0  0  0  0  0  0  0  0  # atno 4300 bound_to 2456
    2.1711   -8.7225    6.0430 LP  0  0  0  0  0  0  0  0  0  0  0  0  # atno 4301 bound_to 2510
    2.2961   -7.4120    5.0769 LP  0  0  0  0  0  0  0  0  0  0  0  0  # atno 4302 bound_to 2510
   -3.0684  -17.2723   14.8611 LP  0  0  0  0  0  0  0  0  0  0  0  0  # atno 4306 bound_to 3712
   -3.5233  -16.7054   13.3988 LP  0  0  0  0  0  0  0  0  0  0  0  0  # atno 4307 bound_to 3712
    3.1243  -20.7308    8.6061 LP  0  0  0  0  0  0  0  0  0  0  0  0  # atno 4314 bound_to 3832
    1.7914  -20.8536    9.5414 LP  0  0  0  0  0  0  0  0  0  0  0  0  # atno 4315 bound_to 3832
   -4.3609  -23.3306   10.3377 LP  0  0  0  0  0  0  0  0  0  0  0  0  # atno 4318 bound_to 3762
   -5.5091  -22.1989   10.5977 LP  0  0  0  0  0  0  0  0  0  0  0  0  # atno 4319 bound_to 3762
   -5.2149   -4.9607    7.8780 LP  0  0  0  0  0  0  0  0  0  0  0  0  # atno 4320 bound_to 2467
   -3.6595   -4.9688    8.3753 LP  0  0  0  0  0  0  0  0  0  0  0  0  # atno 4321 bound_to 2467

> <Gold.Score>
     Score     S(PLP)   S(hbond)     S(cho)   S(metal)  DE(clash)   DE(tors)     intcor
     26.84     -20.84       2.00       0.00       0.00       0.00       0.00       0.00

> <Gold.PLP.Fitness>
26.8441

> <Gold.PLP.PLP>
-20.8441

> <Gold.PLP.part.hbond>
-1.0000

> <Gold.PLP.part.metal>
0.0000

> <Gold.PLP.part.buried>
-2.1678

> <Gold.PLP.part.nonpolar>
-17.8147

> <Gold.PLP.part.repulsive>
0.0780

> <Gold.PLP.ligand.clash>
0.0000

> <Gold.PLP.ligand.torsion>
0.0000

> <Gold.PLP.Chemscore.Hbond>
2.0000

> <Gold.PLP.Chemscore.CHOScore>
0.0000

> <Gold.PLP.Chemscore.Metal>
0.0000

> <Gold.Chemscore.Hbonds>
donor molecule, donor type, donor heavy atom, donor atom, acceptor molecule, acceptor atom, score
      L1  H     4    15       P1  1227  2.00

> <Gold.PLP.Chemscore.Internal.Correction>
0.0000

