#       Name:                plp ligand
#       Creating user name   fsindt
#       Creation time:       Wed Mar  1 05:09:05 2023


#       File generated by GOLD software.
#

@<TRIPOS>MOLECULE
plp ligand
    17    16     1
SMALL
USER_CHARGES


@<TRIPOS>ATOM
      1 C1           1.2301   0.4736   0.7998 NONPOLAR       1 <1>                0.0000
      2 C2           0.0143  -0.0122   0.0082 NONPOLAR       1 <1>                0.0000
      3 C3           0.0953   0.5150  -1.4258 NONPOLAR       1 <1>                0.0000
      4 N4          -0.0030  -1.4810  -0.0103 DONOR          1 <1>                1.0000
      5 C5          -1.2648   0.5046   0.6700 NONPOLAR       1 <1>                0.0000
      6 F6          -2.3784  -0.0320   0.0149 NONPOLAR       1 <1>                0.0000
      7 H7           1.2430   1.5635   0.8135                1 <1>                0.0000
      8 H8           1.1724   0.0980   1.8214                1 <1>                0.0000
      9 H9           2.1413   0.1055   0.3283                1 <1>                0.0000
     10 H10          1.0065   0.1469  -1.8972                1 <1>                0.0000
     11 H11         -0.7709   0.1689  -1.9896                1 <1>                0.0000
     12 H12          0.1081   1.6049  -1.4120                1 <1>                0.0000
     13 H13         -1.2792   0.2031   1.7174                1 <1>                0.0000
     14 H14         -1.2939   1.5922   0.6046                1 <1>                0.0000
     15 H15         -0.0565  -1.8287   0.9354                1 <1>                0.0000
     16 H16         -0.8049  -1.8013  -0.5323                1 <1>                0.0000
     17 H17          0.8405  -1.8218  -0.4467                1 <1>                0.0000
@<TRIPOS>BOND
    1    1    2 1     
    2    1    7 1     
    3    1    8 1     
    4    1    9 1     
    5    2    3 1     
    6    2    4 1     
    7    2    5 1     
    8    3   10 1     
    9    3   11 1     
   10    3   12 1     
   11    4   15 1     
   12    4   16 1     
   13    4   17 1     
   14    5    6 1     
   15    5   13 1     
   16    5   14 1     
@<TRIPOS>SUBSTRUCTURE
      1 ****           1
@<TRIPOS>SET
DONOR_HYDROGENS      STATIC     ATOMS    <user>   **** ""
3 15 16 17
ATOM$RED        STATIC     ATOMS    COLORGROUP SYSTEM
3 15 16 17
