#       Name:                EN300-07843_i001
#       Creating user name   aseyller
#       Creation time:       Fri Apr 21 16:22:13 2023


#       File generated by GOLD software.
#

@<TRIPOS>MOLECULE
EN300-07843_i001|benzaldehydes|mol2|1|dock8
    38    38     1
SMALL
USER_CHARGES


@<TRIPOS>ATOM
      1 C1          30.0843  40.4143  36.0035 C.3            1 <1>                0.0000
      2 C2          29.2856  39.5857  37.0117 C.3            1 <1>                0.0000
      3 O3          29.8390  38.2707  37.0922 O.3            1 <1>                0.0000
      4 C4          29.2205  37.3903  37.9239 C.ar           1 <1>                0.0000
      5 C5          27.8704  37.5172  38.1823 C.ar           1 <1>                0.0000
      6 C6          27.2369  36.6084  39.0390 C.ar           1 <1>                0.0000
      7 C7          25.8007  36.7375  39.3177 C.2            1 <1>                0.0000
      8 O8          25.4226  37.0162  40.4359 O.2            1 <1>                0.0000
      9 C9          27.9765  35.5762  39.6285 C.ar           1 <1>                0.0000
     10 C10         29.3225  35.4571  39.3651 C.ar           1 <1>                0.0000
     11 C11         29.9491  36.3560  38.5110 C.ar           1 <1>                0.0000
     12 O12         31.2765  36.2332  38.2548 O.3            1 <1>                0.0000
     13 C13         31.6627  35.2548  37.2873 C.3            1 <1>                0.0000
     14 C14         32.0892  33.9712  38.0023 C.3            1 <1>                0.0000
     15 C15         32.8150  35.7824  36.4719 C.2            1 <1>                0.0000
     16 O16         33.9548  35.5151  36.7888 O.2            1 <1>                0.0000
     17 N17         32.5789  36.5513  35.3905 N.am           1 <1>                0.0000
     18 C18         31.2095  36.9577  35.0654 C.3            1 <1>                0.0000
     19 C19         33.6919  36.9809  34.5401 C.3            1 <1>                0.0000
     20 H20         30.0361  39.9394  35.0236 H              1 <1>                0.0000
     21 H21         29.6622  41.4174  35.9421 H              1 <1>                0.0000
     22 H22         31.1235  40.4766  36.3265 H              1 <1>                0.0000
     23 H23         29.3338  40.0608  37.9916 H              1 <1>                0.0000
     24 H24         28.2464  39.5235  36.6888 H              1 <1>                0.0000
     25 H25         27.3045  38.3154  37.7254 H              1 <1>                0.0000
     26 H26         25.0812  36.5844  38.5269 H              1 <1>                0.0000
     27 H27         27.4913  34.8736  40.2899 H              1 <1>                0.0000
     28 H28         29.8920  34.6604  39.8204 H              1 <1>                0.0000
     29 H29         30.8198  35.0416  36.6298 H              1 <1>                0.0000
     30 H30         32.4712  33.2581  37.2717 H              1 <1>                0.0000
     31 H31         32.8697  34.2014  38.7276 H              1 <1>                0.0000
     32 H32         31.2309  33.5395  38.5169 H              1 <1>                0.0000
     33 H33         30.9837  37.9023  35.5600 H              1 <1>                0.0000
     34 H34         31.1133  37.0804  33.9865 H              1 <1>                0.0000
     35 H35         30.5126  36.1926  35.4076 H              1 <1>                0.0000
     36 H36         34.6184  36.5348  34.9014 H              1 <1>                0.0000
     37 H37         33.5100  36.6605  33.5143 H              1 <1>                0.0000
     38 H38         33.7752  38.0673  34.5720 H              1 <1>                0.0000
@<TRIPOS>BOND
    1    1    2 1     
    2    1   20 1     
    3    1   21 1     
    4    1   22 1     
    5    2    3 1     
    6    2   23 1     
    7    2   24 1     
    8    3    4 1     
    9    4    5 ar    
   10    4   11 ar    
   11    5    6 ar    
   12    5   25 1     
   13    6    7 1     
   14    6    9 ar    
   15    7    8 2     
   16    7   26 1     
   17    9   10 ar    
   18    9   27 1     
   19   10   11 ar    
   20   10   28 1     
   21   11   12 1     
   22   12   13 1     
   23   13   14 1     
   24   13   15 1     
   25   13   29 1     
   26   14   30 1     
   27   14   31 1     
   28   14   32 1     
   29   15   16 2     
   30   15   17 am    
   31   17   18 1     
   32   17   19 1     
   33   18   33 1     
   34   18   34 1     
   35   18   35 1     
   36   19   36 1     
   37   19   37 1     
   38   19   38 1     
@<TRIPOS>SUBSTRUCTURE
      1 ****           1
@<TRIPOS>COMMENT
> <Gold.Version>
2022.2.0

> <Gold.Id.Protein>
1qkm|1qkm_protein|mol2

> <Gold.Protein.RotatedTorsions>
[  496  491  490  487 ] final -107.19 input  -89.99 | X-H torsion

> <Gold.Protein.ActiveResidues>
 MET295  LEU298  THR299  LEU301  ALA302  GLU305  TRP335  MET336  LEU339  MET340 
 GLY342  LEU343  ARG346  PHE356  ILE373  ILE376  PHE377  LEU380  LYS471  GLY472 
 MET473  HIS475  LEU476  LEU477  ASN478  MET479  VAL484  VAL487 

> <Gold.Protein.RotatedAtoms>
   36.9151   34.5058   40.8981 H   0  0  0  0  0  0  0  0  0  0  0  0  # atno 496  bound_to 491 

> <Gold.Score>
     Score     S(PLP)   S(hbond)     S(cho)   S(metal)  DE(clash)   DE(tors)     intcor
     54.59     -58.87       0.00       0.00       0.00       0.00       2.52       0.76

> <Gold.PLP.Fitness>
54.5885

> <Gold.PLP.PLP>
-58.8677

> <Gold.PLP.part.hbond>
0.0000

> <Gold.PLP.part.metal>
0.0000

> <Gold.PLP.part.buried>
-2.4794

> <Gold.PLP.part.nonpolar>
-58.2329

> <Gold.PLP.part.repulsive>
0.1903

> <Gold.PLP.ligand.clash>
0.0000

> <Gold.PLP.ligand.torsion>
2.5186

> <Gold.PLP.Chemscore.Hbond>
0.0000

> <Gold.PLP.Chemscore.CHOScore>
0.0000

> <Gold.PLP.Chemscore.Metal>
0.0000

> <Gold.PLP.Chemscore.Internal.Correction>
0.7580

