#       Name:                EN300-07843_i001
#       Creating user name   aseyller
#       Creation time:       Fri Apr 21 16:22:26 2023


#       File generated by GOLD software.
#

@<TRIPOS>MOLECULE
EN300-07843_i001|benzaldehydes|mol2|1|dock15
    38    38     1
SMALL
USER_CHARGES


@<TRIPOS>ATOM
      1 C1          31.7991  33.0879  38.2745 C.3            1 <1>                0.0000
      2 C2          31.8921  34.5923  38.0116 C.3            1 <1>                0.0000
      3 O3          30.5783  35.1539  37.9884 O.3            1 <1>                0.0000
      4 C4          30.4007  36.2787  37.2450 C.ar           1 <1>                0.0000
      5 C5          31.3358  36.6312  36.2928 C.ar           1 <1>                0.0000
      6 C6          31.1493  37.7900  35.5289 C.ar           1 <1>                0.0000
      7 C7          32.1401  38.1704  34.5138 C.2            1 <1>                0.0000
      8 O8          33.1031  37.4615  34.3108 O.2            1 <1>                0.0000
      9 C9          30.0150  38.5844  35.7353 C.ar           1 <1>                0.0000
     10 C10         29.0874  38.2252  36.6871 C.ar           1 <1>                0.0000
     11 C11         29.2708  37.0727  37.4408 C.ar           1 <1>                0.0000
     12 O12         28.3524  36.7234  38.3775 O.3            1 <1>                0.0000
     13 C13         28.5806  37.1810  39.7120 C.3            1 <1>                0.0000
     14 C14         29.9405  36.6766  40.1986 C.3            1 <1>                0.0000
     15 C15         27.4963  36.6537  40.6160 C.2            1 <1>                0.0000
     16 O16         27.7879  36.0038  41.5977 O.2            1 <1>                0.0000
     17 N17         26.2025  36.9042  40.3336 N.am           1 <1>                0.0000
     18 C18         25.8445  37.6018  39.0961 C.3            1 <1>                0.0000
     19 C19         25.1540  36.4787  41.2642 C.3            1 <1>                0.0000
     20 H20         31.2164  32.6161  37.4834 H              1 <1>                0.0000
     21 H21         32.8013  32.6595  38.2923 H              1 <1>                0.0000
     22 H22         31.3137  32.9163  39.2353 H              1 <1>                0.0000
     23 H23         32.4750  35.0640  38.8028 H              1 <1>                0.0000
     24 H24         32.3777  34.7639  37.0510 H              1 <1>                0.0000
     25 H25         32.2093  36.0153  36.1377 H              1 <1>                0.0000
     26 H26         32.0112  39.0813  33.9481 H              1 <1>                0.0000
     27 H27         29.8679  39.4789  35.1482 H              1 <1>                0.0000
     28 H28         28.2129  38.8388  36.8454 H              1 <1>                0.0000
     29 H29         28.5699  38.2708  39.7292 H              1 <1>                0.0000
     30 H30         30.0745  36.9463  41.2462 H              1 <1>                0.0000
     31 H31         29.9847  35.5925  40.0941 H              1 <1>                0.0000
     32 H32         30.7314  37.1316  39.6024 H              1 <1>                0.0000
     33 H33         25.6879  36.8733  38.3007 H              1 <1>                0.0000
     34 H34         24.9286  38.1718  39.2523 H              1 <1>                0.0000
     35 H35         26.6507  38.2793  38.8149 H              1 <1>                0.0000
     36 H36         25.6112  36.0351  42.1486 H              1 <1>                0.0000
     37 H37         24.5568  37.3419  41.5581 H              1 <1>                0.0000
     38 H38         24.5137  35.7425  40.7782 H              1 <1>                0.0000
@<TRIPOS>BOND
    1    1    2 1     
    2    1   20 1     
    3    1   21 1     
    4    1   22 1     
    5    2    3 1     
    6    2   23 1     
    7    2   24 1     
    8    3    4 1     
    9    4    5 ar    
   10    4   11 ar    
   11    5    6 ar    
   12    5   25 1     
   13    6    7 1     
   14    6    9 ar    
   15    7    8 2     
   16    7   26 1     
   17    9   10 ar    
   18    9   27 1     
   19   10   11 ar    
   20   10   28 1     
   21   11   12 1     
   22   12   13 1     
   23   13   14 1     
   24   13   15 1     
   25   13   29 1     
   26   14   30 1     
   27   14   31 1     
   28   14   32 1     
   29   15   16 2     
   30   15   17 am    
   31   17   18 1     
   32   17   19 1     
   33   18   33 1     
   34   18   34 1     
   35   18   35 1     
   36   19   36 1     
   37   19   37 1     
   38   19   38 1     
@<TRIPOS>SUBSTRUCTURE
      1 ****           1
@<TRIPOS>COMMENT
> <Gold.Version>
2022.2.0

> <Gold.Id.Protein>
1qkm|1qkm_protein|mol2

> <Gold.Protein.RotatedTorsions>
[  496  491  490  487 ] final  146.63 input  -89.99 | X-H torsion

> <Gold.Protein.ActiveResidues>
 MET295  LEU298  THR299  LEU301  ALA302  GLU305  TRP335  MET336  LEU339  MET340 
 GLY342  LEU343  ARG346  PHE356  ILE373  ILE376  PHE377  LEU380  LYS471  GLY472 
 MET473  HIS475  LEU476  LEU477  ASN478  MET479  VAL484  VAL487 

> <Gold.Protein.RotatedAtoms>
   37.2480   33.0750   41.2401 H   0  0  0  0  0  0  0  0  0  0  0  0  # atno 496  bound_to 491 

> <Gold.Score>
     Score     S(PLP)   S(hbond)     S(cho)   S(metal)  DE(clash)   DE(tors)     intcor
     51.75     -53.51       0.00       0.00       0.00       0.93       0.79       0.76

> <Gold.PLP.Fitness>
51.7514

> <Gold.PLP.PLP>
-53.5134

> <Gold.PLP.part.hbond>
0.0000

> <Gold.PLP.part.metal>
0.0000

> <Gold.PLP.part.buried>
-2.5388

> <Gold.PLP.part.nonpolar>
-53.3046

> <Gold.PLP.part.repulsive>
1.3405

> <Gold.PLP.ligand.clash>
0.9346

> <Gold.PLP.ligand.torsion>
0.7927

> <Gold.PLP.Chemscore.Hbond>
0.0000

> <Gold.PLP.Chemscore.CHOScore>
0.0000

> <Gold.PLP.Chemscore.Metal>
0.0000

> <Gold.PLP.Chemscore.Internal.Correction>
0.7580

