#       Name:                EN300-07843_i001
#       Creating user name   aseyller
#       Creation time:       Fri Apr 21 16:22:06 2023


#       File generated by GOLD software.
#

@<TRIPOS>MOLECULE
EN300-07843_i001|benzaldehydes|mol2|1|dock4
    38    38     1
SMALL
USER_CHARGES


@<TRIPOS>ATOM
      1 C1          31.6252  33.8652  38.4754 C.3            1 <1>                0.0000
      2 C2          30.4208  34.5509  39.1237 C.3            1 <1>                0.0000
      3 O3          30.2156  35.8278  38.5159 O.3            1 <1>                0.0000
      4 C4          28.9944  36.4023  38.6836 C.ar           1 <1>                0.0000
      5 C5          28.2624  36.1463  39.8256 C.ar           1 <1>                0.0000
      6 C6          27.0055  36.7401  39.9949 C.ar           1 <1>                0.0000
      7 C7          26.2219  36.4723  41.2078 C.2            1 <1>                0.0000
      8 O8          25.1603  37.0331  41.3801 O.2            1 <1>                0.0000
      9 C9          26.4984  37.5902  39.0048 C.ar           1 <1>                0.0000
     10 C10         27.2354  37.8400  37.8691 C.ar           1 <1>                0.0000
     11 C11         28.4844  37.2546  37.7044 C.ar           1 <1>                0.0000
     12 O12         29.2066  37.5051  36.5825 O.3            1 <1>                0.0000
     13 C13         30.4674  38.1555  36.7543 C.3            1 <1>                0.0000
     14 C14         30.2533  39.6678  36.8424 C.3            1 <1>                0.0000
     15 C15         31.3585  37.8418  35.5802 C.2            1 <1>                0.0000
     16 O16         31.1444  38.3546  34.5022 O.2            1 <1>                0.0000
     17 N17         32.3934  36.9911  35.7281 N.am           1 <1>                0.0000
     18 C18         32.5927  36.2942  37.0013 C.3            1 <1>                0.0000
     19 C19         33.3190  36.7632  34.6157 C.3            1 <1>                0.0000
     20 H20         32.5133  34.4814  38.6161 H              1 <1>                0.0000
     21 H21         31.7818  32.8912  38.9390 H              1 <1>                0.0000
     22 H22         31.4387  33.7345  37.4095 H              1 <1>                0.0000
     23 H23         29.5328  33.9346  38.9831 H              1 <1>                0.0000
     24 H24         30.6073  34.6815  40.1896 H              1 <1>                0.0000
     25 H25         28.6578  35.4895  40.5862 H              1 <1>                0.0000
     26 H26         26.5907  35.7758  41.9463 H              1 <1>                0.0000
     27 H27         25.5293  38.0497  39.1319 H              1 <1>                0.0000
     28 H28         26.8431  38.4960  37.1060 H              1 <1>                0.0000
     29 H29         30.9370  37.8010  37.6719 H              1 <1>                0.0000
     30 H30         31.2200  40.1701  36.8800 H              1 <1>                0.0000
     31 H31         29.7009  40.0083  35.9665 H              1 <1>                0.0000
     32 H32         29.6865  39.9028  37.7432 H              1 <1>                0.0000
     33 H33         32.0532  35.3473  36.9855 H              1 <1>                0.0000
     34 H34         33.6558  36.1042  37.1489 H              1 <1>                0.0000
     35 H35         32.2175  36.9127  37.8166 H              1 <1>                0.0000
     36 H36         33.0486  37.4086  33.7799 H              1 <1>                0.0000
     37 H37         34.3356  36.9908  34.9364 H              1 <1>                0.0000
     38 H38         33.2616  35.7206  34.3029 H              1 <1>                0.0000
@<TRIPOS>BOND
    1    1    2 1     
    2    1   20 1     
    3    1   21 1     
    4    1   22 1     
    5    2    3 1     
    6    2   23 1     
    7    2   24 1     
    8    3    4 1     
    9    4    5 ar    
   10    4   11 ar    
   11    5    6 ar    
   12    5   25 1     
   13    6    7 1     
   14    6    9 ar    
   15    7    8 2     
   16    7   26 1     
   17    9   10 ar    
   18    9   27 1     
   19   10   11 ar    
   20   10   28 1     
   21   11   12 1     
   22   12   13 1     
   23   13   14 1     
   24   13   15 1     
   25   13   29 1     
   26   14   30 1     
   27   14   31 1     
   28   14   32 1     
   29   15   16 2     
   30   15   17 am    
   31   17   18 1     
   32   17   19 1     
   33   18   33 1     
   34   18   34 1     
   35   18   35 1     
   36   19   36 1     
   37   19   37 1     
   38   19   38 1     
@<TRIPOS>SUBSTRUCTURE
      1 ****           1
@<TRIPOS>COMMENT
> <Gold.Version>
2022.2.0

> <Gold.Id.Protein>
1qkm|1qkm_protein|mol2

> <Gold.Protein.RotatedTorsions>
[  496  491  490  487 ] final -170.44 input  -89.99 | X-H torsion

> <Gold.Protein.ActiveResidues>
 MET295  LEU298  THR299  LEU301  ALA302  GLU305  TRP335  MET336  LEU339  MET340 
 GLY342  LEU343  ARG346  PHE356  ILE373  ILE376  PHE377  LEU380  LYS471  GLY472 
 MET473  HIS475  LEU476  LEU477  ASN478  MET479  VAL484  VAL487 

> <Gold.Protein.RotatedAtoms>
   37.3053   33.6023   40.7984 H   0  0  0  0  0  0  0  0  0  0  0  0  # atno 496  bound_to 491 

> <Gold.Score>
     Score     S(PLP)   S(hbond)     S(cho)   S(metal)  DE(clash)   DE(tors)     intcor
     59.86     -60.72       0.15       0.00       0.00       0.00       1.03       0.76

> <Gold.PLP.Fitness>
59.8650

> <Gold.PLP.PLP>
-60.7224

> <Gold.PLP.part.hbond>
-1.0000

> <Gold.PLP.part.metal>
0.0000

> <Gold.PLP.part.buried>
-5.1901

> <Gold.PLP.part.nonpolar>
-55.6533

> <Gold.PLP.part.repulsive>
0.3449

> <Gold.PLP.ligand.clash>
0.0000

> <Gold.PLP.ligand.torsion>
1.0288

> <Gold.PLP.Chemscore.Hbond>
0.1474

> <Gold.PLP.Chemscore.CHOScore>
0.0000

> <Gold.PLP.Chemscore.Metal>
0.0000

> <Gold.Chemscore.Hbonds>
donor molecule, donor type, donor heavy atom, donor atom, acceptor molecule, acceptor atom, score
      P1  H  1258  1270       L1     8  0.15

> <Gold.PLP.Chemscore.Internal.Correction>
0.7580

