#       Name:                EN300-07843_i001
#       Creating user name   aseyller
#       Creation time:       Fri Apr 21 16:22:23 2023


#       File generated by GOLD software.
#

@<TRIPOS>MOLECULE
EN300-07843_i001|benzaldehydes|mol2|1|dock13
    38    38     1
SMALL
USER_CHARGES


@<TRIPOS>ATOM
      1 C1          29.9667  39.8509  37.0048 C.3            1 <1>                0.0000
      2 C2          29.4189  38.6681  36.2038 C.3            1 <1>                0.0000
      3 O3          29.2152  37.5552  37.0768 O.3            1 <1>                0.0000
      4 C4          30.2481  36.6813  37.2144 C.ar           1 <1>                0.0000
      5 C5          31.3905  36.8383  36.4557 C.ar           1 <1>                0.0000
      6 C6          32.4522  35.9367  36.6005 C.ar           1 <1>                0.0000
      7 C7          33.6706  36.0985  35.7967 C.2            1 <1>                0.0000
      8 O8          33.6311  36.7147  34.7528 O.2            1 <1>                0.0000
      9 C9          32.3489  34.8811  37.5143 C.ar           1 <1>                0.0000
     10 C10         31.2059  34.7321  38.2670 C.ar           1 <1>                0.0000
     11 C11         30.1552  35.6300  38.1264 C.ar           1 <1>                0.0000
     12 O12         29.0308  35.4782  38.8717 O.3            1 <1>                0.0000
     13 C13         28.5656  36.6257  39.5853 C.3            1 <1>                0.0000
     14 C14         29.7039  37.1938  40.4352 C.3            1 <1>                0.0000
     15 C15         27.4195  36.2300  40.4802 C.2            1 <1>                0.0000
     16 O16         27.6031  35.4527  41.3930 O.2            1 <1>                0.0000
     17 N17         26.1904  36.7398  40.2662 N.am           1 <1>                0.0000
     18 C18         25.9456  37.5989  39.1050 C.3            1 <1>                0.0000
     19 C19         25.0991  36.4348  41.1948 C.3            1 <1>                0.0000
     20 H20         30.9149  39.5711  37.4638 H              1 <1>                0.0000
     21 H21         30.1220  40.6998  36.3389 H              1 <1>                0.0000
     22 H22         29.2534  40.1248  37.7822 H              1 <1>                0.0000
     23 H23         28.4707  38.9481  35.7447 H              1 <1>                0.0000
     24 H24         30.1321  38.3943  35.4263 H              1 <1>                0.0000
     25 H25         31.4651  37.6541  35.7518 H              1 <1>                0.0000
     26 H26         34.6019  35.6687  36.1351 H              1 <1>                0.0000
     27 H27         33.1656  34.1836  37.6285 H              1 <1>                0.0000
     28 H28         31.1273  33.9174  38.9716 H              1 <1>                0.0000
     29 H29         28.2288  37.3823  38.8766 H              1 <1>                0.0000
     30 H30         29.3258  38.0111  41.0494 H              1 <1>                0.0000
     31 H31         30.1027  36.4099  41.0791 H              1 <1>                0.0000
     32 H32         30.4941  37.5651  39.7828 H              1 <1>                0.0000
     33 H33         25.6396  36.9856  38.2575 H              1 <1>                0.0000
     34 H34         25.1561  38.3124  39.3410 H              1 <1>                0.0000
     35 H35         26.8589  38.1377  38.8528 H              1 <1>                0.0000
     36 H36         25.4821  35.8374  42.0221 H              1 <1>                0.0000
     37 H37         24.6803  37.3641  41.5810 H              1 <1>                0.0000
     38 H38         24.3227  35.8760  40.6721 H              1 <1>                0.0000
@<TRIPOS>BOND
    1    1    2 1     
    2    1   20 1     
    3    1   21 1     
    4    1   22 1     
    5    2    3 1     
    6    2   23 1     
    7    2   24 1     
    8    3    4 1     
    9    4    5 ar    
   10    4   11 ar    
   11    5    6 ar    
   12    5   25 1     
   13    6    7 1     
   14    6    9 ar    
   15    7    8 2     
   16    7   26 1     
   17    9   10 ar    
   18    9   27 1     
   19   10   11 ar    
   20   10   28 1     
   21   11   12 1     
   22   12   13 1     
   23   13   14 1     
   24   13   15 1     
   25   13   29 1     
   26   14   30 1     
   27   14   31 1     
   28   14   32 1     
   29   15   16 2     
   30   15   17 am    
   31   17   18 1     
   32   17   19 1     
   33   18   33 1     
   34   18   34 1     
   35   18   35 1     
   36   19   36 1     
   37   19   37 1     
   38   19   38 1     
@<TRIPOS>SUBSTRUCTURE
      1 ****           1
@<TRIPOS>COMMENT
> <Gold.Version>
2022.2.0

> <Gold.Id.Protein>
1qkm|1qkm_protein|mol2

> <Gold.Protein.RotatedTorsions>
[  496  491  490  487 ] final -113.46 input  -89.99 | X-H torsion

> <Gold.Protein.ActiveResidues>
 MET295  LEU298  THR299  LEU301  ALA302  GLU305  TRP335  MET336  LEU339  MET340 
 GLY342  LEU343  ARG346  PHE356  ILE373  ILE376  PHE377  LEU380  LYS471  GLY472 
 MET473  HIS475  LEU476  LEU477  ASN478  MET479  VAL484  VAL487 

> <Gold.Protein.RotatedAtoms>
   36.9706   34.4362   40.8459 H   0  0  0  0  0  0  0  0  0  0  0  0  # atno 496  bound_to 491 

> <Gold.Score>
     Score     S(PLP)   S(hbond)     S(cho)   S(metal)  DE(clash)   DE(tors)     intcor
     53.85     -55.79       0.00       0.00       0.00       1.74       0.48       0.76

> <Gold.PLP.Fitness>
53.8468

> <Gold.PLP.PLP>
-55.7907

> <Gold.PLP.part.hbond>
0.0000

> <Gold.PLP.part.metal>
0.0000

> <Gold.PLP.part.buried>
-4.0657

> <Gold.PLP.part.nonpolar>
-53.2460

> <Gold.PLP.part.repulsive>
1.3401

> <Gold.PLP.ligand.clash>
1.7446

> <Gold.PLP.ligand.torsion>
0.4786

> <Gold.PLP.Chemscore.Hbond>
0.0000

> <Gold.PLP.Chemscore.CHOScore>
0.0000

> <Gold.PLP.Chemscore.Metal>
0.0000

> <Gold.PLP.Chemscore.Internal.Correction>
0.7580

