#       Name:                EN300-07843_i001
#       Creating user name   aseyller
#       Creation time:       Fri Apr 21 16:22:08 2023


#       File generated by GOLD software.
#

@<TRIPOS>MOLECULE
EN300-07843_i001|benzaldehydes|mol2|1|dock5
    38    38     1
SMALL
USER_CHARGES


@<TRIPOS>ATOM
      1 C1          31.5580  33.1932  38.2002 C.3            1 <1>                0.0000
      2 C2          31.8012  34.6401  38.6340 C.3            1 <1>                0.0000
      3 O3          30.6080  35.4023  38.4403 O.3            1 <1>                0.0000
      4 C4          30.6803  36.4549  37.5823 C.ar           1 <1>                0.0000
      5 C5          31.6344  36.4678  36.5848 C.ar           1 <1>                0.0000
      6 C6          31.7054  37.5533  35.7029 C.ar           1 <1>                0.0000
      7 C7          32.7178  37.5730  34.6392 C.2            1 <1>                0.0000
      8 O8          33.5430  36.6867  34.5709 O.2            1 <1>                0.0000
      9 C9          30.8079  38.6193  35.8378 C.ar           1 <1>                0.0000
     10 C10         29.8594  38.5981  36.8354 C.ar           1 <1>                0.0000
     11 C11         29.7864  37.5185  37.7067 C.ar           1 <1>                0.0000
     12 O12         28.8487  37.5030  38.6881 O.3            1 <1>                0.0000
     13 C13         27.4981  37.2572  38.2911 C.3            1 <1>                0.0000
     14 C14         26.9353  38.5007  37.6000 C.3            1 <1>                0.0000
     15 C15         26.6671  36.9390  39.5073 C.2            1 <1>                0.0000
     16 O16         25.6764  37.5940  39.7534 O.2            1 <1>                0.0000
     17 N17         27.0248  35.9264  40.3217 N.am           1 <1>                0.0000
     18 C18         26.1642  35.5520  41.4466 C.3            1 <1>                0.0000
     19 C19         28.2744  35.2001  40.0820 C.3            1 <1>                0.0000
     20 H20         31.2802  33.1715  37.1465 H              1 <1>                0.0000
     21 H21         32.4681  32.6118  38.3480 H              1 <1>                0.0000
     22 H22         30.7527  32.7653  38.7973 H              1 <1>                0.0000
     23 H23         32.0791  34.6617  39.6878 H              1 <1>                0.0000
     24 H24         32.6066  35.0680  38.0370 H              1 <1>                0.0000
     25 H25         32.3246  35.6432  36.4852 H              1 <1>                0.0000
     26 H26         32.7275  38.3765  33.9177 H              1 <1>                0.0000
     27 H27         30.8598  39.4583  35.1596 H              1 <1>                0.0000
     28 H28         29.1677  39.4210  36.9385 H              1 <1>                0.0000
     29 H29         27.4700  36.4139  37.6010 H              1 <1>                0.0000
     30 H30         25.8787  38.3475  37.3803 H              1 <1>                0.0000
     31 H31         27.0485  39.3638  38.2562 H              1 <1>                0.0000
     32 H32         27.4776  38.6770  36.6711 H              1 <1>                0.0000
     33 H33         25.4495  34.7961  41.1213 H              1 <1>                0.0000
     34 H34         26.7760  35.1498  42.2541 H              1 <1>                0.0000
     35 H35         25.6268  36.4314  41.8013 H              1 <1>                0.0000
     36 H36         28.8051  35.6560  39.2462 H              1 <1>                0.0000
     37 H37         28.8973  35.2441  40.9754 H              1 <1>                0.0000
     38 H38         28.0504  34.1597  39.8461 H              1 <1>                0.0000
@<TRIPOS>BOND
    1    1    2 1     
    2    1   20 1     
    3    1   21 1     
    4    1   22 1     
    5    2    3 1     
    6    2   23 1     
    7    2   24 1     
    8    3    4 1     
    9    4    5 ar    
   10    4   11 ar    
   11    5    6 ar    
   12    5   25 1     
   13    6    7 1     
   14    6    9 ar    
   15    7    8 2     
   16    7   26 1     
   17    9   10 ar    
   18    9   27 1     
   19   10   11 ar    
   20   10   28 1     
   21   11   12 1     
   22   12   13 1     
   23   13   14 1     
   24   13   15 1     
   25   13   29 1     
   26   14   30 1     
   27   14   31 1     
   28   14   32 1     
   29   15   16 2     
   30   15   17 am    
   31   17   18 1     
   32   17   19 1     
   33   18   33 1     
   34   18   34 1     
   35   18   35 1     
   36   19   36 1     
   37   19   37 1     
   38   19   38 1     
@<TRIPOS>SUBSTRUCTURE
      1 ****           1
@<TRIPOS>COMMENT
> <Gold.Version>
2022.2.0

> <Gold.Id.Protein>
1qkm|1qkm_protein|mol2

> <Gold.Protein.RotatedTorsions>
[  496  491  490  487 ] final   -0.24 input  -89.99 | X-H torsion

> <Gold.Protein.ActiveResidues>
 MET295  LEU298  THR299  LEU301  ALA302  GLU305  TRP335  MET336  LEU339  MET340 
 GLY342  LEU343  ARG346  PHE356  ILE373  ILE376  PHE377  LEU380  LYS471  GLY472 
 MET473  HIS475  LEU476  LEU477  ASN478  MET479  VAL484  VAL487 

> <Gold.Protein.RotatedAtoms>
   36.2596   34.2170   42.2340 H   0  0  0  0  0  0  0  0  0  0  0  0  # atno 496  bound_to 491 

> <Gold.Score>
     Score     S(PLP)   S(hbond)     S(cho)   S(metal)  DE(clash)   DE(tors)     intcor
     54.86     -56.13       0.00       0.00       0.00       0.00       1.01       0.76

> <Gold.PLP.Fitness>
54.8600

> <Gold.PLP.PLP>
-56.1319

> <Gold.PLP.part.hbond>
0.0000

> <Gold.PLP.part.metal>
0.0000

> <Gold.PLP.part.buried>
-0.5370

> <Gold.PLP.part.nonpolar>
-55.4230

> <Gold.PLP.part.repulsive>
0.3344

> <Gold.PLP.ligand.clash>
0.0000

> <Gold.PLP.ligand.torsion>
1.0150

> <Gold.PLP.Chemscore.Hbond>
0.0000

> <Gold.PLP.Chemscore.CHOScore>
0.0000

> <Gold.PLP.Chemscore.Metal>
0.0000

> <Gold.PLP.Chemscore.Internal.Correction>
0.7580

