#       Name:                EN300-07843_i001
#       Creating user name   aseyller
#       Creation time:       Fri Apr 21 16:22:34 2023


#       File generated by GOLD software.
#

@<TRIPOS>MOLECULE
EN300-07843_i001|benzaldehydes|mol2|1|dock19
    38    38     1
SMALL
USER_CHARGES


@<TRIPOS>ATOM
      1 C1          29.9851  39.4696  36.4198 C.3            1 <1>                0.0000
      2 C2          28.9769  38.7243  37.2966 C.3            1 <1>                0.0000
      3 O3          29.6241  37.6214  37.9345 O.3            1 <1>                0.0000
      4 C4          28.9303  36.9802  38.9128 C.ar           1 <1>                0.0000
      5 C5          27.6191  37.3268  39.1692 C.ar           1 <1>                0.0000
      6 C6          26.9078  36.6638  40.1770 C.ar           1 <1>                0.0000
      7 C7          25.5122  37.0274  40.4546 C.2            1 <1>                0.0000
      8 O8          25.0599  36.8883  41.5714 O.2            1 <1>                0.0000
      9 C9          27.5308  35.6530  40.9188 C.ar           1 <1>                0.0000
     10 C10         28.8390  35.3137  40.6561 C.ar           1 <1>                0.0000
     11 C11         29.5422  35.9684  39.6526 C.ar           1 <1>                0.0000
     12 O12         30.8316  35.6291  39.3980 O.3            1 <1>                0.0000
     13 C13         31.1039  35.0148  38.1367 C.3            1 <1>                0.0000
     14 C14         31.7309  33.6380  38.3648 C.3            1 <1>                0.0000
     15 C15         32.0588  35.8782  37.3533 C.2            1 <1>                0.0000
     16 O16         32.6182  36.8087  37.8939 O.2            1 <1>                0.0000
     17 N17         32.2911  35.6163  36.0518 N.am           1 <1>                0.0000
     18 C18         31.5413  34.5568  35.3725 C.3            1 <1>                0.0000
     19 C19         33.2935  36.3914  35.3163 C.3            1 <1>                0.0000
     20 H20         30.3788  38.7918  35.6623 H              1 <1>                0.0000
     21 H21         29.4915  40.3108  35.9332 H              1 <1>                0.0000
     22 H22         30.8034  39.8372  37.0391 H              1 <1>                0.0000
     23 H23         28.5832  39.4022  38.0540 H              1 <1>                0.0000
     24 H24         28.1586  38.3568  36.6774 H              1 <1>                0.0000
     25 H25         27.1431  38.1075  38.5946 H              1 <1>                0.0000
     26 H26         24.8887  37.4188  39.6644 H              1 <1>                0.0000
     27 H27         26.9854  35.1397  41.6970 H              1 <1>                0.0000
     28 H28         29.3185  34.5338  41.2289 H              1 <1>                0.0000
     29 H29         30.1741  34.9027  37.5790 H              1 <1>                0.0000
     30 H30         32.0236  33.2087  37.4065 H              1 <1>                0.0000
     31 H31         32.6102  33.7400  39.0009 H              1 <1>                0.0000
     32 H32         31.0058  32.9843  38.8494 H              1 <1>                0.0000
     33 H33         30.6336  34.9754  34.9381 H              1 <1>                0.0000
     34 H34         32.1565  34.1254  34.5827 H              1 <1>                0.0000
     35 H35         31.2763  33.7814  36.0911 H              1 <1>                0.0000
     36 H36         33.7864  37.0861  35.9963 H              1 <1>                0.0000
     37 H37         34.0335  35.7150  34.8884 H              1 <1>                0.0000
     38 H38         32.8063  36.9496  34.5168 H              1 <1>                0.0000
@<TRIPOS>BOND
    1    1    2 1     
    2    1   20 1     
    3    1   21 1     
    4    1   22 1     
    5    2    3 1     
    6    2   23 1     
    7    2   24 1     
    8    3    4 1     
    9    4    5 ar    
   10    4   11 ar    
   11    5    6 ar    
   12    5   25 1     
   13    6    7 1     
   14    6    9 ar    
   15    7    8 2     
   16    7   26 1     
   17    9   10 ar    
   18    9   27 1     
   19   10   11 ar    
   20   10   28 1     
   21   11   12 1     
   22   12   13 1     
   23   13   14 1     
   24   13   15 1     
   25   13   29 1     
   26   14   30 1     
   27   14   31 1     
   28   14   32 1     
   29   15   16 2     
   30   15   17 am    
   31   17   18 1     
   32   17   19 1     
   33   18   33 1     
   34   18   34 1     
   35   18   35 1     
   36   19   36 1     
   37   19   37 1     
   38   19   38 1     
@<TRIPOS>SUBSTRUCTURE
      1 ****           1
@<TRIPOS>COMMENT
> <Gold.Version>
2022.2.0

> <Gold.Id.Protein>
1qkm|1qkm_protein|mol2

> <Gold.Protein.RotatedTorsions>
[  496  491  490  487 ] final   88.27 input  -89.99 | X-H torsion

> <Gold.Protein.ActiveResidues>
 MET295  LEU298  THR299  LEU301  ALA302  GLU305  TRP335  MET336  LEU339  MET340 
 GLY342  LEU343  ARG346  PHE356  ILE373  ILE376  PHE377  LEU380  LYS471  GLY472 
 MET473  HIS475  LEU476  LEU477  ASN478  MET479  VAL484  VAL487 

> <Gold.Protein.RotatedAtoms>
   36.8043   33.0337   42.0446 H   0  0  0  0  0  0  0  0  0  0  0  0  # atno 496  bound_to 491 

> <Gold.Score>
     Score     S(PLP)   S(hbond)     S(cho)   S(metal)  DE(clash)   DE(tors)     intcor
     52.50     -54.70       0.42       0.00       0.00       1.71       1.25       0.76

> <Gold.PLP.Fitness>
52.4960

> <Gold.PLP.PLP>
-54.7017

> <Gold.PLP.part.hbond>
-1.0000

> <Gold.PLP.part.metal>
0.0000

> <Gold.PLP.part.buried>
-4.4196

> <Gold.PLP.part.nonpolar>
-51.7090

> <Gold.PLP.part.repulsive>
1.8582

> <Gold.PLP.ligand.clash>
1.7117

> <Gold.PLP.ligand.torsion>
1.2547

> <Gold.PLP.Chemscore.Hbond>
0.4191

> <Gold.PLP.Chemscore.CHOScore>
0.0000

> <Gold.PLP.Chemscore.Metal>
0.0000

> <Gold.Chemscore.Hbonds>
donor molecule, donor type, donor heavy atom, donor atom, acceptor molecule, acceptor atom, score
      P1  H  1258  1270       L1     8  0.42

> <Gold.PLP.Chemscore.Internal.Correction>
0.7580

