#       Name:                EN300-07843_i001
#       Creating user name   aseyller
#       Creation time:       Fri Apr 21 16:22:17 2023


#       File generated by GOLD software.
#

@<TRIPOS>MOLECULE
EN300-07843_i001|benzaldehydes|mol2|1|dock10
    38    38     1
SMALL
USER_CHARGES


@<TRIPOS>ATOM
      1 C1          31.5011  32.8413  38.1955 C.3            1 <1>                0.0000
      2 C2          32.1484  34.1637  37.7796 C.3            1 <1>                0.0000
      3 O3          31.6801  35.2117  38.6307 O.3            1 <1>                0.0000
      4 C4          31.1899  36.3264  38.0251 C.ar           1 <1>                0.0000
      5 C5          31.6782  36.7138  36.7935 C.ar           1 <1>                0.0000
      6 C6          31.1706  37.8619  36.1728 C.ar           1 <1>                0.0000
      7 C7          31.6854  38.2793  34.8622 C.2            1 <1>                0.0000
      8 O8          32.5072  37.5966  34.2881 O.2            1 <1>                0.0000
      9 C9          30.1706  38.6104  36.8051 C.ar           1 <1>                0.0000
     10 C10         29.6894  38.2167  38.0335 C.ar           1 <1>                0.0000
     11 C11         30.1898  37.0746  38.6461 C.ar           1 <1>                0.0000
     12 O12         29.7111  36.6911  39.8570 O.3            1 <1>                0.0000
     13 C13         28.5668  35.8350  39.8607 C.3            1 <1>                0.0000
     14 C14         28.8874  34.5518  39.0918 C.3            1 <1>                0.0000
     15 C15         27.4098  36.5403  39.2012 C.2            1 <1>                0.0000
     16 O16         27.3992  36.6939  37.9982 O.2            1 <1>                0.0000
     17 N17         26.3866  37.0003  39.9483 N.am           1 <1>                0.0000
     18 C18         25.2157  37.5957  39.2996 C.3            1 <1>                0.0000
     19 C19         26.4454  36.9049  41.4090 C.3            1 <1>                0.0000
     20 H20         30.4178  32.9236  38.1079 H              1 <1>                0.0000
     21 H21         31.8584  32.0419  37.5463 H              1 <1>                0.0000
     22 H22         31.7662  32.6161  39.2286 H              1 <1>                0.0000
     23 H23         33.2318  34.0813  37.8671 H              1 <1>                0.0000
     24 H24         31.8835  34.3889  36.7465 H              1 <1>                0.0000
     25 H25         32.4499  36.1332  36.3101 H              1 <1>                0.0000
     26 H26         31.3321  39.1940  34.4096 H              1 <1>                0.0000
     27 H27         29.7770  39.4966  36.3296 H              1 <1>                0.0000
     28 H28         28.9180  38.7949  38.5202 H              1 <1>                0.0000
     29 H29         28.3025  35.5863  40.8886 H              1 <1>                0.0000
     30 H30         27.9884  33.9402  39.0147 H              1 <1>                0.0000
     31 H31         29.2407  34.8058  38.0924 H              1 <1>                0.0000
     32 H32         29.6612  33.9952  39.6202 H              1 <1>                0.0000
     33 H33         24.4787  36.8188  39.0964 H              1 <1>                0.0000
     34 H34         24.7792  38.3475  39.9571 H              1 <1>                0.0000
     35 H35         25.5181  38.0637  38.3629 H              1 <1>                0.0000
     36 H36         27.4097  36.4938  41.7078 H              1 <1>                0.0000
     37 H37         26.3232  37.8973  41.8431 H              1 <1>                0.0000
     38 H38         25.6470  36.2526  41.7630 H              1 <1>                0.0000
@<TRIPOS>BOND
    1    1    2 1     
    2    1   20 1     
    3    1   21 1     
    4    1   22 1     
    5    2    3 1     
    6    2   23 1     
    7    2   24 1     
    8    3    4 1     
    9    4    5 ar    
   10    4   11 ar    
   11    5    6 ar    
   12    5   25 1     
   13    6    7 1     
   14    6    9 ar    
   15    7    8 2     
   16    7   26 1     
   17    9   10 ar    
   18    9   27 1     
   19   10   11 ar    
   20   10   28 1     
   21   11   12 1     
   22   12   13 1     
   23   13   14 1     
   24   13   15 1     
   25   13   29 1     
   26   14   30 1     
   27   14   31 1     
   28   14   32 1     
   29   15   16 2     
   30   15   17 am    
   31   17   18 1     
   32   17   19 1     
   33   18   33 1     
   34   18   34 1     
   35   18   35 1     
   36   19   36 1     
   37   19   37 1     
   38   19   38 1     
@<TRIPOS>SUBSTRUCTURE
      1 ****           1
@<TRIPOS>COMMENT
> <Gold.Version>
2022.2.0

> <Gold.Id.Protein>
1qkm|1qkm_protein|mol2

> <Gold.Protein.RotatedTorsions>
[  496  491  490  487 ] final   84.64 input  -89.99 | X-H torsion

> <Gold.Protein.ActiveResidues>
 MET295  LEU298  THR299  LEU301  ALA302  GLU305  TRP335  MET336  LEU339  MET340 
 GLY342  LEU343  ARG346  PHE356  ILE373  ILE376  PHE377  LEU380  LYS471  GLY472 
 MET473  HIS475  LEU476  LEU477  ASN478  MET479  VAL484  VAL487 

> <Gold.Protein.RotatedAtoms>
   36.7707   33.0607   42.0861 H   0  0  0  0  0  0  0  0  0  0  0  0  # atno 496  bound_to 491 

> <Gold.Score>
     Score     S(PLP)   S(hbond)     S(cho)   S(metal)  DE(clash)   DE(tors)     intcor
     55.96     -58.02       0.00       0.00       0.00       0.00       1.41       0.76

> <Gold.PLP.Fitness>
55.9587

> <Gold.PLP.PLP>
-58.0247

> <Gold.PLP.part.hbond>
0.0000

> <Gold.PLP.part.metal>
0.0000

> <Gold.PLP.part.buried>
-6.0186

> <Gold.PLP.part.nonpolar>
-52.7045

> <Gold.PLP.part.repulsive>
0.3354

> <Gold.PLP.ligand.clash>
0.0000

> <Gold.PLP.ligand.torsion>
1.4120

> <Gold.PLP.Chemscore.Hbond>
0.0000

> <Gold.PLP.Chemscore.CHOScore>
0.0000

> <Gold.PLP.Chemscore.Metal>
0.0000

> <Gold.PLP.Chemscore.Internal.Correction>
0.7580

