#       Name:                EN300-07843_i001
#       Creating user name   aseyller
#       Creation time:       Fri Apr 21 16:22:00 2023


#       File generated by GOLD software.
#

@<TRIPOS>MOLECULE
EN300-07843_i001|benzaldehydes|mol2|1|dock1
    38    38     1
SMALL
USER_CHARGES


@<TRIPOS>ATOM
      1 C1          30.5957  40.3558  36.5017 C.3            1 <1>                0.0000
      2 C2          29.6605  39.3933  35.7670 C.3            1 <1>                0.0000
      3 O3          29.3761  38.2721  36.6061 O.3            1 <1>                0.0000
      4 C4          30.4188  37.4594  36.9251 C.ar           1 <1>                0.0000
      5 C5          31.4717  37.3102  36.0450 C.ar           1 <1>                0.0000
      6 C6          32.5439  36.4729  36.3772 C.ar           1 <1>                0.0000
      7 C7          33.6674  36.3102  35.4454 C.2            1 <1>                0.0000
      8 O8          33.5709  36.7080  34.3037 O.2            1 <1>                0.0000
      9 C9          32.5419  35.7918  37.6004 C.ar           1 <1>                0.0000
     10 C10         31.4877  35.9466  38.4722 C.ar           1 <1>                0.0000
     11 C11         30.4269  36.7815  38.1441 C.ar           1 <1>                0.0000
     12 O12         29.3905  36.9304  39.0080 O.3            1 <1>                0.0000
     13 C13         29.1369  35.8507  39.9092 C.3            1 <1>                0.0000
     14 C14         28.7864  34.5927  39.1122 C.3            1 <1>                0.0000
     15 C15         27.9854  36.2103  40.8125 C.2            1 <1>                0.0000
     16 O16         28.1020  36.1047  42.0150 O.2            1 <1>                0.0000
     17 N17         26.8260  36.6492  40.2838 N.am           1 <1>                0.0000
     18 C18         25.7419  37.0941  41.1632 C.3            1 <1>                0.0000
     19 C19         26.6497  36.6816  38.8298 C.3            1 <1>                0.0000
     20 H20         31.5248  39.8422  36.7488 H              1 <1>                0.0000
     21 H21         30.8126  41.2111  35.8617 H              1 <1>                0.0000
     22 H22         30.1160  40.7002  37.4179 H              1 <1>                0.0000
     23 H23         28.7314  39.9071  35.5199 H              1 <1>                0.0000
     24 H24         30.1401  39.0490  34.8508 H              1 <1>                0.0000
     25 H25         31.4683  37.8375  35.1025 H              1 <1>                0.0000
     26 H26         34.5796  35.8364  35.7769 H              1 <1>                0.0000
     27 H27         33.3670  35.1450  37.8598 H              1 <1>                0.0000
     28 H28         31.4872  35.4207  39.4155 H              1 <1>                0.0000
     29 H29         30.0261  35.6634  40.5112 H              1 <1>                0.0000
     30 H30         28.5028  33.7949  39.7986 H              1 <1>                0.0000
     31 H31         27.9545  34.8076  38.4414 H              1 <1>                0.0000
     32 H32         29.6520  34.2793  38.5286 H              1 <1>                0.0000
     33 H33         25.8464  38.1615  41.3572 H              1 <1>                0.0000
     34 H34         24.7826  36.9045  40.6817 H              1 <1>                0.0000
     35 H35         25.7903  36.5471  42.1047 H              1 <1>                0.0000
     36 H36         27.5312  36.2596  38.3474 H              1 <1>                0.0000
     37 H37         25.7712  36.0966  38.5573 H              1 <1>                0.0000
     38 H38         26.5153  37.7127  38.5029 H              1 <1>                0.0000
@<TRIPOS>BOND
    1    1    2 1     
    2    1   20 1     
    3    1   21 1     
    4    1   22 1     
    5    2    3 1     
    6    2   23 1     
    7    2   24 1     
    8    3    4 1     
    9    4    5 ar    
   10    4   11 ar    
   11    5    6 ar    
   12    5   25 1     
   13    6    7 1     
   14    6    9 ar    
   15    7    8 2     
   16    7   26 1     
   17    9   10 ar    
   18    9   27 1     
   19   10   11 ar    
   20   10   28 1     
   21   11   12 1     
   22   12   13 1     
   23   13   14 1     
   24   13   15 1     
   25   13   29 1     
   26   14   30 1     
   27   14   31 1     
   28   14   32 1     
   29   15   16 2     
   30   15   17 am    
   31   17   18 1     
   32   17   19 1     
   33   18   33 1     
   34   18   34 1     
   35   18   35 1     
   36   19   36 1     
   37   19   37 1     
   38   19   38 1     
@<TRIPOS>SUBSTRUCTURE
      1 ****           1
@<TRIPOS>COMMENT
> <Gold.Version>
2022.2.0

> <Gold.Id.Protein>
1qkm|1qkm_protein|mol2

> <Gold.Protein.RotatedTorsions>
[  496  491  490  487 ] final   81.53 input  -89.99 | X-H torsion

> <Gold.Protein.ActiveResidues>
 MET295  LEU298  THR299  LEU301  ALA302  GLU305  TRP335  MET336  LEU339  MET340 
 GLY342  LEU343  ARG346  PHE356  ILE373  ILE376  PHE377  LEU380  LYS471  GLY472 
 MET473  HIS475  LEU476  LEU477  ASN478  MET479  VAL484  VAL487 

> <Gold.Protein.RotatedAtoms>
   36.7420   33.0862   42.1198 H   0  0  0  0  0  0  0  0  0  0  0  0  # atno 496  bound_to 491 

> <Gold.Score>
     Score     S(PLP)   S(hbond)     S(cho)   S(metal)  DE(clash)   DE(tors)     intcor
     61.46     -62.38       0.00       0.00       0.00       0.00       0.93       0.94

> <Gold.PLP.Fitness>
61.4586

> <Gold.PLP.PLP>
-62.3776

> <Gold.PLP.part.hbond>
-0.2644

> <Gold.PLP.part.metal>
0.0000

> <Gold.PLP.part.buried>
-6.9269

> <Gold.PLP.part.nonpolar>
-56.6649

> <Gold.PLP.part.repulsive>
1.4433

> <Gold.PLP.ligand.clash>
0.0000

> <Gold.PLP.ligand.torsion>
0.9291

> <Gold.PLP.Chemscore.Hbond>
0.0000

> <Gold.PLP.Chemscore.CHOScore>
0.0000

> <Gold.PLP.Chemscore.Metal>
0.0000

> <Gold.PLP.Chemscore.Internal.Correction>
0.9391

