#       Name:                EN300-07843_i001
#       Creating user name   aseyller
#       Creation time:       Fri Apr 21 16:22:11 2023


#       File generated by GOLD software.
#

@<TRIPOS>MOLECULE
EN300-07843_i001|benzaldehydes|mol2|1|dock7
    38    38     1
SMALL
USER_CHARGES


@<TRIPOS>ATOM
      1 C1          31.5673  33.5111  38.5108 C.3            1 <1>                0.0000
      2 C2          32.0424  34.8604  37.9681 C.3            1 <1>                0.0000
      3 O3          31.2262  35.9036  38.5045 O.3            1 <1>                0.0000
      4 C4          30.8057  36.8650  37.6395 C.ar           1 <1>                0.0000
      5 C5          31.5242  37.1200  36.4887 C.ar           1 <1>                0.0000
      6 C6          31.0877  38.1105  35.6002 C.ar           1 <1>                0.0000
      7 C7          31.8472  38.3864  34.3739 C.2            1 <1>                0.0000
      8 O8          32.6985  37.6077  33.9997 O.2            1 <1>                0.0000
      9 C9          29.9247  38.8365  35.8841 C.ar           1 <1>                0.0000
     10 C10         29.2142  38.5754  37.0341 C.ar           1 <1>                0.0000
     11 C11         29.6452  37.5891  37.9124 C.ar           1 <1>                0.0000
     12 O12         28.9402  37.3359  39.0444 O.3            1 <1>                0.0000
     13 C13         28.5288  35.9851  39.2641 C.3            1 <1>                0.0000
     14 C14         27.9418  35.4141  37.9717 C.3            1 <1>                0.0000
     15 C15         27.4841  35.9484  40.3495 C.2            1 <1>                0.0000
     16 O16         27.6157  35.1977  41.2929 O.2            1 <1>                0.0000
     17 N17         26.4033  36.7500  40.2720 N.am           1 <1>                0.0000
     18 C18         26.1927  37.5829  39.0854 C.3            1 <1>                0.0000
     19 C19         25.4391  36.7882  41.3743 C.3            1 <1>                0.0000
     20 H20         30.5299  33.3470  38.2193 H              1 <1>                0.0000
     21 H21         32.1898  32.7153  38.1017 H              1 <1>                0.0000
     22 H22         31.6438  33.5095  39.5982 H              1 <1>                0.0000
     23 H23         33.0798  35.0243  38.2596 H              1 <1>                0.0000
     24 H24         31.9660  34.8619  36.8808 H              1 <1>                0.0000
     25 H25         32.4208  36.5575  36.2745 H              1 <1>                0.0000
     26 H26         31.6477  39.2827  33.8052 H              1 <1>                0.0000
     27 H27         29.5852  39.6013  35.2012 H              1 <1>                0.0000
     28 H28         28.3173  39.1361  37.2520 H              1 <1>                0.0000
     29 H29         29.3889  35.3881  39.5673 H              1 <1>                0.0000
     30 H30         27.5438  34.4175  38.1626 H              1 <1>                0.0000
     31 H31         27.1409  36.0636  37.6183 H              1 <1>                0.0000
     32 H32         28.7225  35.3544  37.2134 H              1 <1>                0.0000
     33 H33         25.6077  37.0286  38.3515 H              1 <1>                0.0000
     34 H34         25.6565  38.4890  39.3680 H              1 <1>                0.0000
     35 H35         27.1570  37.8510  38.6539 H              1 <1>                0.0000
     36 H36         25.7918  36.1543  42.1878 H              1 <1>                0.0000
     37 H37         25.3353  37.8130  41.7309 H              1 <1>                0.0000
     38 H38         24.4725  36.4257  41.0243 H              1 <1>                0.0000
@<TRIPOS>BOND
    1    1    2 1     
    2    1   20 1     
    3    1   21 1     
    4    1   22 1     
    5    2    3 1     
    6    2   23 1     
    7    2   24 1     
    8    3    4 1     
    9    4    5 ar    
   10    4   11 ar    
   11    5    6 ar    
   12    5   25 1     
   13    6    7 1     
   14    6    9 ar    
   15    7    8 2     
   16    7   26 1     
   17    9   10 ar    
   18    9   27 1     
   19   10   11 ar    
   20   10   28 1     
   21   11   12 1     
   22   12   13 1     
   23   13   14 1     
   24   13   15 1     
   25   13   29 1     
   26   14   30 1     
   27   14   31 1     
   28   14   32 1     
   29   15   16 2     
   30   15   17 am    
   31   17   18 1     
   32   17   19 1     
   33   18   33 1     
   34   18   34 1     
   35   18   35 1     
   36   19   36 1     
   37   19   37 1     
   38   19   38 1     
@<TRIPOS>SUBSTRUCTURE
      1 ****           1
@<TRIPOS>COMMENT
> <Gold.Version>
2022.2.0

> <Gold.Id.Protein>
1qkm|1qkm_protein|mol2

> <Gold.Protein.RotatedTorsions>
[  496  491  490  487 ] final  153.09 input  -89.99 | X-H torsion

> <Gold.Protein.ActiveResidues>
 MET295  LEU298  THR299  LEU301  ALA302  GLU305  TRP335  MET336  LEU339  MET340 
 GLY342  LEU343  ARG346  PHE356  ILE373  ILE376  PHE377  LEU380  LYS471  GLY472 
 MET473  HIS475  LEU476  LEU477  ASN478  MET479  VAL484  VAL487 

> <Gold.Protein.RotatedAtoms>
   37.2748   33.1332   41.1554 H   0  0  0  0  0  0  0  0  0  0  0  0  # atno 496  bound_to 491 

> <Gold.Score>
     Score     S(PLP)   S(hbond)     S(cho)   S(metal)  DE(clash)   DE(tors)     intcor
     55.95     -57.16       0.00       0.00       0.00       0.00       0.98       0.76

> <Gold.PLP.Fitness>
55.9524

> <Gold.PLP.PLP>
-57.1552

> <Gold.PLP.part.hbond>
0.0000

> <Gold.PLP.part.metal>
0.0000

> <Gold.PLP.part.buried>
-4.7860

> <Gold.PLP.part.nonpolar>
-53.7797

> <Gold.PLP.part.repulsive>
1.3551

> <Gold.PLP.ligand.clash>
0.0000

> <Gold.PLP.ligand.torsion>
0.9804

> <Gold.PLP.Chemscore.Hbond>
0.0000

> <Gold.PLP.Chemscore.CHOScore>
0.0000

> <Gold.PLP.Chemscore.Metal>
0.0000

> <Gold.PLP.Chemscore.Internal.Correction>
0.7580

