#       Name:                EN300-07843_i001
#       Creating user name   aseyller
#       Creation time:       Fri Apr 21 16:22:15 2023


#       File generated by GOLD software.
#

@<TRIPOS>MOLECULE
EN300-07843_i001|benzaldehydes|mol2|1|dock9
    38    38     1
SMALL
USER_CHARGES


@<TRIPOS>ATOM
      1 C1          29.5478  40.3096  36.5460 C.3            1 <1>                0.0000
      2 C2          28.8125  39.0249  36.9329 C.3            1 <1>                0.0000
      3 O3          29.4895  38.3990  38.0248 O.3            1 <1>                0.0000
      4 C4          30.4482  37.4856  37.7149 C.ar           1 <1>                0.0000
      5 C5          31.1672  37.6105  36.5433 C.ar           1 <1>                0.0000
      6 C6          32.1540  36.6682  36.2279 C.ar           1 <1>                0.0000
      7 C7          32.9230  36.7955  34.9832 C.2            1 <1>                0.0000
      8 O8          32.7001  37.7148  34.2240 O.2            1 <1>                0.0000
      9 C9          32.4056  35.6046  37.1029 C.ar           1 <1>                0.0000
     10 C10         31.6837  35.4879  38.2694 C.ar           1 <1>                0.0000
     11 C11         30.7086  36.4261  38.5839 C.ar           1 <1>                0.0000
     12 O12         30.0003  36.3060  39.7357 O.3            1 <1>                0.0000
     13 C13         28.7865  35.5541  39.6755 C.3            1 <1>                0.0000
     14 C14         29.0181  34.2755  38.8680 C.3            1 <1>                0.0000
     15 C15         27.7160  36.3809  39.0112 C.2            1 <1>                0.0000
     16 O16         27.7687  36.5967  37.8189 O.2            1 <1>                0.0000
     17 N17         26.6999  36.8807  39.7422 N.am           1 <1>                0.0000
     18 C18         26.6885  36.7059  41.1967 C.3            1 <1>                0.0000
     19 C19         25.6067  37.5987  39.0821 C.3            1 <1>                0.0000
     20 H20         30.5690  40.0689  36.2503 H              1 <1>                0.0000
     21 H21         29.0315  40.7870  35.7131 H              1 <1>                0.0000
     22 H22         29.5667  40.9883  37.3987 H              1 <1>                0.0000
     23 H23         27.7913  39.2656  37.2284 H              1 <1>                0.0000
     24 H24         28.7935  38.3462  36.0802 H              1 <1>                0.0000
     25 H25         30.9690  38.4325  35.8714 H              1 <1>                0.0000
     26 H26         33.6870  36.0707  34.7439 H              1 <1>                0.0000
     27 H27         33.1657  34.8758  36.8628 H              1 <1>                0.0000
     28 H28         31.8787  34.6671  38.9436 H              1 <1>                0.0000
     29 H29         28.4701  35.2936  40.6856 H              1 <1>                0.0000
     30 H30         28.0723  33.7482  38.7430 H              1 <1>                0.0000
     31 H31         29.4229  34.5323  37.8890 H              1 <1>                0.0000
     32 H32         29.7241  33.6348  39.3963 H              1 <1>                0.0000
     33 H33         27.1993  37.5459  41.6675 H              1 <1>                0.0000
     34 H34         25.6581  36.6634  41.5495 H              1 <1>                0.0000
     35 H35         27.1996  35.7786  41.4552 H              1 <1>                0.0000
     36 H36         25.7558  37.5749  38.0027 H              1 <1>                0.0000
     37 H37         24.6579  37.1220  39.3285 H              1 <1>                0.0000
     38 H38         25.5929  38.6336  39.4242 H              1 <1>                0.0000
@<TRIPOS>BOND
    1    1    2 1     
    2    1   20 1     
    3    1   21 1     
    4    1   22 1     
    5    2    3 1     
    6    2   23 1     
    7    2   24 1     
    8    3    4 1     
    9    4    5 ar    
   10    4   11 ar    
   11    5    6 ar    
   12    5   25 1     
   13    6    7 1     
   14    6    9 ar    
   15    7    8 2     
   16    7   26 1     
   17    9   10 ar    
   18    9   27 1     
   19   10   11 ar    
   20   10   28 1     
   21   11   12 1     
   22   12   13 1     
   23   13   14 1     
   24   13   15 1     
   25   13   29 1     
   26   14   30 1     
   27   14   31 1     
   28   14   32 1     
   29   15   16 2     
   30   15   17 am    
   31   17   18 1     
   32   17   19 1     
   33   18   33 1     
   34   18   34 1     
   35   18   35 1     
   36   19   36 1     
   37   19   37 1     
   38   19   38 1     
@<TRIPOS>SUBSTRUCTURE
      1 ****           1
@<TRIPOS>COMMENT
> <Gold.Version>
2022.2.0

> <Gold.Id.Protein>
1qkm|1qkm_protein|mol2

> <Gold.Protein.RotatedTorsions>
[  496  491  490  487 ] final -135.97 input  -89.99 | X-H torsion

> <Gold.Protein.ActiveResidues>
 MET295  LEU298  THR299  LEU301  ALA302  GLU305  TRP335  MET336  LEU339  MET340 
 GLY342  LEU343  ARG346  PHE356  ILE373  ILE376  PHE377  LEU380  LYS471  GLY472 
 MET473  HIS475  LEU476  LEU477  ASN478  MET479  VAL484  VAL487 

> <Gold.Protein.RotatedAtoms>
   37.1473   34.1342   40.7313 H   0  0  0  0  0  0  0  0  0  0  0  0  # atno 496  bound_to 491 

> <Gold.Score>
     Score     S(PLP)   S(hbond)     S(cho)   S(metal)  DE(clash)   DE(tors)     intcor
     55.99     -58.26       0.00       0.00       0.00       0.37       1.33       0.76

> <Gold.PLP.Fitness>
55.9915

> <Gold.PLP.PLP>
-58.2617

> <Gold.PLP.part.hbond>
0.0000

> <Gold.PLP.part.metal>
0.0000

> <Gold.PLP.part.buried>
-4.6077

> <Gold.PLP.part.nonpolar>
-54.7767

> <Gold.PLP.part.repulsive>
0.2736

> <Gold.PLP.ligand.clash>
0.3700

> <Gold.PLP.ligand.torsion>
1.3291

> <Gold.PLP.Chemscore.Hbond>
0.0000

> <Gold.PLP.Chemscore.CHOScore>
0.0000

> <Gold.PLP.Chemscore.Metal>
0.0000

> <Gold.PLP.Chemscore.Internal.Correction>
0.7580

