#       Name:                EN300-07843_i001
#       Creating user name   aseyller
#       Creation time:       Fri Apr 21 16:22:28 2023


#       File generated by GOLD software.
#

@<TRIPOS>MOLECULE
EN300-07843_i001|benzaldehydes|mol2|1|dock16
    38    38     1
SMALL
USER_CHARGES


@<TRIPOS>ATOM
      1 C1          31.4980  32.8762  37.9187 C.3            1 <1>                0.0000
      2 C2          31.7984  33.8006  39.1003 C.3            1 <1>                0.0000
      3 O3          30.8698  34.8868  39.1033 O.3            1 <1>                0.0000
      4 C4          31.0582  35.8627  38.1750 C.ar           1 <1>                0.0000
      5 C5          32.0713  35.7441  37.2451 C.ar           1 <1>                0.0000
      6 C6          32.2619  36.7508  36.2905 C.ar           1 <1>                0.0000
      7 C7          33.3377  36.6305  35.2979 C.2            1 <1>                0.0000
      8 O8          33.5379  37.5294  34.5086 O.2            1 <1>                0.0000
      9 C9          31.4234  37.8720  36.2847 C.ar           1 <1>                0.0000
     10 C10         30.4154  37.9820  37.2159 C.ar           1 <1>                0.0000
     11 C11         30.2238  36.9803  38.1593 C.ar           1 <1>                0.0000
     12 O12         29.2279  37.0942  39.0746 O.3            1 <1>                0.0000
     13 C13         27.9444  36.5871  38.7033 C.3            1 <1>                0.0000
     14 C14         27.5242  37.1943  37.3634 C.3            1 <1>                0.0000
     15 C15         26.9345  36.9541  39.7600 C.2            1 <1>                0.0000
     16 O16         25.9449  37.5874  39.4592 O.2            1 <1>                0.0000
     17 N17         27.1312  36.5786  41.0393 N.am           1 <1>                0.0000
     18 C18         28.3731  35.9020  41.4216 C.3            1 <1>                0.0000
     19 C19         26.1029  36.8470  42.0478 C.3            1 <1>                0.0000
     20 H20         31.5898  33.4352  36.9875 H              1 <1>                0.0000
     21 H21         32.2063  32.0477  37.9164 H              1 <1>                0.0000
     22 H22         30.4840  32.4870  38.0105 H              1 <1>                0.0000
     23 H23         31.7066  33.2416  40.0315 H              1 <1>                0.0000
     24 H24         32.8124  34.1897  39.0086 H              1 <1>                0.0000
     25 H25         32.7156  34.8774  37.2540 H              1 <1>                0.0000
     26 H26         33.9506  35.7417  35.2709 H              1 <1>                0.0000
     27 H27         31.5676  38.6506  35.5501 H              1 <1>                0.0000
     28 H28         29.7693  38.8474  37.2105 H              1 <1>                0.0000
     29 H29         27.9954  35.5022  38.6106 H              1 <1>                0.0000
     30 H30         26.5078  36.8807  37.1251 H              1 <1>                0.0000
     31 H31         27.5629  38.2817  37.4290 H              1 <1>                0.0000
     32 H32         28.2024  36.8532  36.5812 H              1 <1>                0.0000
     33 H33         29.1150  36.6439  41.7168 H              1 <1>                0.0000
     34 H34         28.1784  35.2303  42.2578 H              1 <1>                0.0000
     35 H35         28.7497  35.3283  40.5748 H              1 <1>                0.0000
     36 H36         25.2335  37.2976  41.5692 H              1 <1>                0.0000
     37 H37         25.8107  35.9123  42.5264 H              1 <1>                0.0000
     38 H38         26.4997  37.5309  42.7982 H              1 <1>                0.0000
@<TRIPOS>BOND
    1    1    2 1     
    2    1   20 1     
    3    1   21 1     
    4    1   22 1     
    5    2    3 1     
    6    2   23 1     
    7    2   24 1     
    8    3    4 1     
    9    4    5 ar    
   10    4   11 ar    
   11    5    6 ar    
   12    5   25 1     
   13    6    7 1     
   14    6    9 ar    
   15    7    8 2     
   16    7   26 1     
   17    9   10 ar    
   18    9   27 1     
   19   10   11 ar    
   20   10   28 1     
   21   11   12 1     
   22   12   13 1     
   23   13   14 1     
   24   13   15 1     
   25   13   29 1     
   26   14   30 1     
   27   14   31 1     
   28   14   32 1     
   29   15   16 2     
   30   15   17 am    
   31   17   18 1     
   32   17   19 1     
   33   18   33 1     
   34   18   34 1     
   35   18   35 1     
   36   19   36 1     
   37   19   37 1     
   38   19   38 1     
@<TRIPOS>SUBSTRUCTURE
      1 ****           1
@<TRIPOS>COMMENT
> <Gold.Version>
2022.2.0

> <Gold.Id.Protein>
1qkm|1qkm_protein|mol2

> <Gold.Protein.RotatedTorsions>
[  496  491  490  487 ] final  -29.06 input  -89.99 | X-H torsion

> <Gold.Protein.ActiveResidues>
 MET295  LEU298  THR299  LEU301  ALA302  GLU305  TRP335  MET336  LEU339  MET340 
 GLY342  LEU343  ARG346  PHE356  ILE373  ILE376  PHE377  LEU380  LYS471  GLY472 
 MET473  HIS475  LEU476  LEU477  ASN478  MET479  VAL484  VAL487 

> <Gold.Protein.RotatedAtoms>
   36.3110   34.5625   41.9204 H   0  0  0  0  0  0  0  0  0  0  0  0  # atno 496  bound_to 491 

> <Gold.Score>
     Score     S(PLP)   S(hbond)     S(cho)   S(metal)  DE(clash)   DE(tors)     intcor
     53.32     -55.32       0.00       0.00       0.00       1.78       0.49       0.76

> <Gold.PLP.Fitness>
53.3197

> <Gold.PLP.PLP>
-55.3213

> <Gold.PLP.part.hbond>
0.0000

> <Gold.PLP.part.metal>
0.0000

> <Gold.PLP.part.buried>
-3.2435

> <Gold.PLP.part.nonpolar>
-56.1684

> <Gold.PLP.part.repulsive>
2.8168

> <Gold.PLP.ligand.clash>
1.7797

> <Gold.PLP.ligand.torsion>
0.4899

> <Gold.PLP.Chemscore.Hbond>
0.0000

> <Gold.PLP.Chemscore.CHOScore>
0.0000

> <Gold.PLP.Chemscore.Metal>
0.0000

> <Gold.PLP.Chemscore.Internal.Correction>
0.7580

