#       Name:                EN300-07843_i001
#       Creating user name   aseyller
#       Creation time:       Fri Apr 21 16:22:10 2023


#       File generated by GOLD software.
#

@<TRIPOS>MOLECULE
EN300-07843_i001|benzaldehydes|mol2|1|dock6
    38    38     1
SMALL
USER_CHARGES


@<TRIPOS>ATOM
      1 C1          31.5304  34.4050  38.2891 C.3            1 <1>                0.0000
      2 C2          30.4000  35.0203  39.1163 C.3            1 <1>                0.0000
      3 O3          30.0927  36.3209  38.6100 O.3            1 <1>                0.0000
      4 C4          28.8015  36.7347  38.7141 C.ar           1 <1>                0.0000
      5 C5          27.9985  36.2429  39.7234 C.ar           1 <1>                0.0000
      6 C6          26.6695  36.6718  39.8277 C.ar           1 <1>                0.0000
      7 C7          25.8101  36.1529  40.8995 C.2            1 <1>                0.0000
      8 O8          25.1284  36.9144  41.5526 O.2            1 <1>                0.0000
      9 C9          26.1628  37.5973  38.9074 C.ar           1 <1>                0.0000
     10 C10         26.9708  38.0826  37.9039 C.ar           1 <1>                0.0000
     11 C11         28.2906  37.6605  37.8044 C.ar           1 <1>                0.0000
     12 O12         29.0825  38.1429  36.8131 O.3            1 <1>                0.0000
     13 C13         30.3078  38.7647  37.2061 C.3            1 <1>                0.0000
     14 C14         30.3496  40.1957  36.6666 C.3            1 <1>                0.0000
     15 C15         31.4692  37.9832  36.6480 C.2            1 <1>                0.0000
     16 O16         32.3685  37.6274  37.3799 O.2            1 <1>                0.0000
     17 N17         31.5085  37.6796  35.3355 N.am           1 <1>                0.0000
     18 C18         32.5845  36.8351  34.8108 C.3            1 <1>                0.0000
     19 C19         30.4752  38.1942  34.4334 C.3            1 <1>                0.0000
     20 H20         32.4150  35.0385  38.3544 H              1 <1>                0.0000
     21 H21         31.7648  33.4130  38.6752 H              1 <1>                0.0000
     22 H22         31.2169  34.3248  37.2482 H              1 <1>                0.0000
     23 H23         29.5155  34.3867  39.0510 H              1 <1>                0.0000
     24 H24         30.7135  35.1004  40.1572 H              1 <1>                0.0000
     25 H25         28.3941  35.5289  40.4306 H              1 <1>                0.0000
     26 H26         25.7849  35.0931  41.1061 H              1 <1>                0.0000
     27 H27         25.1382  37.9301  38.9845 H              1 <1>                0.0000
     28 H28         26.5788  38.7964  37.1946 H              1 <1>                0.0000
     29 H29         30.3725  38.7845  38.2941 H              1 <1>                0.0000
     30 H30         31.3211  40.6386  36.8862 H              1 <1>                0.0000
     31 H31         30.1919  40.1822  35.5881 H              1 <1>                0.0000
     32 H32         29.5657  40.7859  37.1410 H              1 <1>                0.0000
     33 H33         32.2809  35.7893  34.8570 H              1 <1>                0.0000
     34 H34         32.7892  37.1086  33.7757 H              1 <1>                0.0000
     35 H35         33.4840  36.9791  35.4093 H              1 <1>                0.0000
     36 H36         29.8008  38.8467  34.9878 H              1 <1>                0.0000
     37 H37         30.9447  38.7576  33.6270 H              1 <1>                0.0000
     38 H38         29.9113  37.3609  34.0139 H              1 <1>                0.0000
@<TRIPOS>BOND
    1    1    2 1     
    2    1   20 1     
    3    1   21 1     
    4    1   22 1     
    5    2    3 1     
    6    2   23 1     
    7    2   24 1     
    8    3    4 1     
    9    4    5 ar    
   10    4   11 ar    
   11    5    6 ar    
   12    5   25 1     
   13    6    7 1     
   14    6    9 ar    
   15    7    8 2     
   16    7   26 1     
   17    9   10 ar    
   18    9   27 1     
   19   10   11 ar    
   20   10   28 1     
   21   11   12 1     
   22   12   13 1     
   23   13   14 1     
   24   13   15 1     
   25   13   29 1     
   26   14   30 1     
   27   14   31 1     
   28   14   32 1     
   29   15   16 2     
   30   15   17 am    
   31   17   18 1     
   32   17   19 1     
   33   18   33 1     
   34   18   34 1     
   35   18   35 1     
   36   19   36 1     
   37   19   37 1     
   38   19   38 1     
@<TRIPOS>SUBSTRUCTURE
      1 ****           1
@<TRIPOS>COMMENT
> <Gold.Version>
2022.2.0

> <Gold.Id.Protein>
1qkm|1qkm_protein|mol2

> <Gold.Protein.RotatedTorsions>
[  496  491  490  487 ] final -131.91 input  -89.99 | X-H torsion

> <Gold.Protein.ActiveResidues>
 MET295  LEU298  THR299  LEU301  ALA302  GLU305  TRP335  MET336  LEU339  MET340 
 GLY342  LEU343  ARG346  PHE356  ILE373  ILE376  PHE377  LEU380  LYS471  GLY472 
 MET473  HIS475  LEU476  LEU477  ASN478  MET479  VAL484  VAL487 

> <Gold.Protein.RotatedAtoms>
   37.1188   34.1935   40.7430 H   0  0  0  0  0  0  0  0  0  0  0  0  # atno 496  bound_to 491 

> <Gold.Score>
     Score     S(PLP)   S(hbond)     S(cho)   S(metal)  DE(clash)   DE(tors)     intcor
     58.79     -60.84       0.32       0.00       0.00       0.00       1.88       0.76

> <Gold.PLP.Fitness>
58.7879

> <Gold.PLP.PLP>
-60.8392

> <Gold.PLP.part.hbond>
-1.0000

> <Gold.PLP.part.metal>
0.0000

> <Gold.PLP.part.buried>
-3.8777

> <Gold.PLP.part.nonpolar>
-56.3484

> <Gold.PLP.part.repulsive>
0.3046

> <Gold.PLP.ligand.clash>
0.0000

> <Gold.PLP.ligand.torsion>
1.8797

> <Gold.PLP.Chemscore.Hbond>
0.3167

> <Gold.PLP.Chemscore.CHOScore>
0.0000

> <Gold.PLP.Chemscore.Metal>
0.0000

> <Gold.Chemscore.Hbonds>
donor molecule, donor type, donor heavy atom, donor atom, acceptor molecule, acceptor atom, score
      P1  H  1258  1270       L1     8  0.32

> <Gold.PLP.Chemscore.Internal.Correction>
0.7580

