#       Name:                EN300-07843_i001
#       Creating user name   aseyller
#       Creation time:       Fri Apr 21 16:22:24 2023


#       File generated by GOLD software.
#

@<TRIPOS>MOLECULE
EN300-07843_i001|benzaldehydes|mol2|1|dock14
    38    38     1
SMALL
USER_CHARGES


@<TRIPOS>ATOM
      1 C1          29.3346  39.0490  36.3406 C.3            1 <1>                0.0000
      2 C2          28.2811  38.4322  37.2628 C.3            1 <1>                0.0000
      3 O3          28.7671  37.1910  37.7780 O.3            1 <1>                0.0000
      4 C4          28.2741  36.7856  38.9788 C.ar           1 <1>                0.0000
      5 C5          26.9951  37.1427  39.3558 C.ar           1 <1>                0.0000
      6 C6          26.4908  36.7230  40.5929 C.ar           1 <1>                0.0000
      7 C7          25.1307  37.0991  40.9998 C.2            1 <1>                0.0000
      8 O8          24.6922  36.7265  42.0675 O.2            1 <1>                0.0000
      9 C9          27.2868  35.9431  41.4405 C.ar           1 <1>                0.0000
     10 C10         28.5612  35.5914  41.0564 C.ar           1 <1>                0.0000
     11 C11         29.0588  36.0040  39.8267 C.ar           1 <1>                0.0000
     12 O12         30.3160  35.6537  39.4533 O.3            1 <1>                0.0000
     13 C13         30.4374  34.7340  38.3662 C.3            1 <1>                0.0000
     14 C14         30.0321  33.3349  38.8342 C.3            1 <1>                0.0000
     15 C15         31.8658  34.7092  37.8865 C.2            1 <1>                0.0000
     16 O16         32.4862  33.6670  37.8826 O.2            1 <1>                0.0000
     17 N17         32.4538  35.8451  37.4618 N.am           1 <1>                0.0000
     18 C18         33.8069  35.8043  36.9016 C.3            1 <1>                0.0000
     19 C19         31.7399  37.1206  37.5602 C.3            1 <1>                0.0000
     20 H20         29.5382  38.3677  35.5145 H              1 <1>                0.0000
     21 H21         28.9639  39.9958  35.9477 H              1 <1>                0.0000
     22 H22         30.2522  39.2233  36.9026 H              1 <1>                0.0000
     23 H23         28.0775  39.1137  38.0888 H              1 <1>                0.0000
     24 H24         27.3635  38.2580  36.7009 H              1 <1>                0.0000
     25 H25         26.3852  37.7448  38.6986 H              1 <1>                0.0000
     26 H26         24.5210  37.7077  40.3483 H              1 <1>                0.0000
     27 H27         26.9013  35.6178  42.3955 H              1 <1>                0.0000
     28 H28         29.1743  34.9899  41.7111 H              1 <1>                0.0000
     29 H29         29.7856  35.0474  37.5507 H              1 <1>                0.0000
     30 H30         30.2125  32.6175  38.0336 H              1 <1>                0.0000
     31 H31         30.6216  33.0592  39.7086 H              1 <1>                0.0000
     32 H32         28.9735  33.3310  39.0937 H              1 <1>                0.0000
     33 H33         33.7497  35.6469  35.8247 H              1 <1>                0.0000
     34 H34         34.3126  36.7485  37.1044 H              1 <1>                0.0000
     35 H35         34.3651  34.9876  37.3592 H              1 <1>                0.0000
     36 H36         30.7810  36.9631  38.0539 H              1 <1>                0.0000
     37 H37         32.3352  37.8264  38.1394 H              1 <1>                0.0000
     38 H38         31.5723  37.5213  36.5604 H              1 <1>                0.0000
@<TRIPOS>BOND
    1    1    2 1     
    2    1   20 1     
    3    1   21 1     
    4    1   22 1     
    5    2    3 1     
    6    2   23 1     
    7    2   24 1     
    8    3    4 1     
    9    4    5 ar    
   10    4   11 ar    
   11    5    6 ar    
   12    5   25 1     
   13    6    7 1     
   14    6    9 ar    
   15    7    8 2     
   16    7   26 1     
   17    9   10 ar    
   18    9   27 1     
   19   10   11 ar    
   20   10   28 1     
   21   11   12 1     
   22   12   13 1     
   23   13   14 1     
   24   13   15 1     
   25   13   29 1     
   26   14   30 1     
   27   14   31 1     
   28   14   32 1     
   29   15   16 2     
   30   15   17 am    
   31   17   18 1     
   32   17   19 1     
   33   18   33 1     
   34   18   34 1     
   35   18   35 1     
   36   19   36 1     
   37   19   37 1     
   38   19   38 1     
@<TRIPOS>SUBSTRUCTURE
      1 ****           1
@<TRIPOS>COMMENT
> <Gold.Version>
2022.2.0

> <Gold.Id.Protein>
1qkm|1qkm_protein|mol2

> <Gold.Protein.RotatedTorsions>
[  496  491  490  487 ] final -101.37 input  -89.99 | X-H torsion

> <Gold.Protein.ActiveResidues>
 MET295  LEU298  THR299  LEU301  ALA302  GLU305  TRP335  MET336  LEU339  MET340 
 GLY342  LEU343  ARG346  PHE356  ILE373  ILE376  PHE377  LEU380  LYS471  GLY472 
 MET473  HIS475  LEU476  LEU477  ASN478  MET479  VAL484  VAL487 

> <Gold.Protein.RotatedAtoms>
   36.8623   34.5632   40.9536 H   0  0  0  0  0  0  0  0  0  0  0  0  # atno 496  bound_to 491 

> <Gold.Score>
     Score     S(PLP)   S(hbond)     S(cho)   S(metal)  DE(clash)   DE(tors)     intcor
     53.87     -52.71       0.60       0.00       0.00       0.00       0.70       0.76

> <Gold.PLP.Fitness>
53.8731

> <Gold.PLP.PLP>
-52.7099

> <Gold.PLP.part.hbond>
-0.2151

> <Gold.PLP.part.metal>
0.0000

> <Gold.PLP.part.buried>
-1.1772

> <Gold.PLP.part.nonpolar>
-53.7434

> <Gold.PLP.part.repulsive>
1.1873

> <Gold.PLP.ligand.clash>
0.0000

> <Gold.PLP.ligand.torsion>
0.7015

> <Gold.PLP.Chemscore.Hbond>
0.6027

> <Gold.PLP.Chemscore.CHOScore>
0.0000

> <Gold.PLP.Chemscore.Metal>
0.0000

> <Gold.Chemscore.Hbonds>
donor molecule, donor type, donor heavy atom, donor atom, acceptor molecule, acceptor atom, score
      P1  H  1258  1270       L1     8  0.60

> <Gold.PLP.Chemscore.Internal.Correction>
0.7580

