#       Name:                EN300-07843_i001
#       Creating user name   aseyller
#       Creation time:       Fri Apr 21 16:22:32 2023


#       File generated by GOLD software.
#

@<TRIPOS>MOLECULE
EN300-07843_i001|benzaldehydes|mol2|1|dock18
    38    38     1
SMALL
USER_CHARGES


@<TRIPOS>ATOM
      1 C1          29.6620  40.4166  36.2913 C.3            1 <1>                0.0000
      2 C2          29.3924  38.9107  36.2703 C.3            1 <1>                0.0000
      3 O3          29.5161  38.3862  37.5939 O.3            1 <1>                0.0000
      4 C4          30.3360  37.3139  37.7589 C.ar           1 <1>                0.0000
      5 C5          31.3900  37.1112  36.8909 C.ar           1 <1>                0.0000
      6 C6          32.2324  36.0060  37.0644 C.ar           1 <1>                0.0000
      7 C7          33.3559  35.7849  36.1447 C.2            1 <1>                0.0000
      8 O8          33.4956  36.4998  35.1749 O.2            1 <1>                0.0000
      9 C9          32.0007  35.1129  38.1174 C.ar           1 <1>                0.0000
     10 C10         30.9472  35.3228  38.9783 C.ar           1 <1>                0.0000
     11 C11         30.1151  36.4223  38.8086 C.ar           1 <1>                0.0000
     12 O12         29.0782  36.6243  39.6611 O.3            1 <1>                0.0000
     13 C13         28.1769  35.5326  39.8565 C.3            1 <1>                0.0000
     14 C14         27.8251  34.9130  38.5026 C.3            1 <1>                0.0000
     15 C15         26.9205  36.0316  40.5224 C.2            1 <1>                0.0000
     16 O16         26.5108  35.4905  41.5275 O.2            1 <1>                0.0000
     17 N17         26.2520  37.0793  40.0009 N.am           1 <1>                0.0000
     18 C18         25.0886  37.6283  40.7019 C.3            1 <1>                0.0000
     19 C19         26.6888  37.6693  38.7331 C.3            1 <1>                0.0000
     20 H20         30.6704  40.6001  36.6619 H              1 <1>                0.0000
     21 H21         29.5676  40.8167  35.2818 H              1 <1>                0.0000
     22 H22         28.9398  40.9060  36.9450 H              1 <1>                0.0000
     23 H23         28.3839  38.7273  35.8996 H              1 <1>                0.0000
     24 H24         30.1144  38.4214  35.6166 H              1 <1>                0.0000
     25 H25         31.5642  37.8028  36.0800 H              1 <1>                0.0000
     26 H26         34.0579  34.9857  36.3321 H              1 <1>                0.0000
     27 H27         32.6482  34.2593  38.2540 H              1 <1>                0.0000
     28 H28         30.7695  34.6332  39.7902 H              1 <1>                0.0000
     29 H29         28.6490  34.7805  40.4886 H              1 <1>                0.0000
     30 H30         27.0675  34.1417  38.6418 H              1 <1>                0.0000
     31 H31         27.4386  35.6862  37.8386 H              1 <1>                0.0000
     32 H32         28.7184  34.4697  38.0628 H              1 <1>                0.0000
     33 H33         25.4135  38.4106  41.3877 H              1 <1>                0.0000
     34 H34         24.3917  38.0478  39.9762 H              1 <1>                0.0000
     35 H35         24.5950  36.8350  41.2632 H              1 <1>                0.0000
     36 H36         27.5245  37.0946  38.3337 H              1 <1>                0.0000
     37 H37         25.8635  37.6531  38.0213 H              1 <1>                0.0000
     38 H38         27.0036  38.6993  38.9009 H              1 <1>                0.0000
@<TRIPOS>BOND
    1    1    2 1     
    2    1   20 1     
    3    1   21 1     
    4    1   22 1     
    5    2    3 1     
    6    2   23 1     
    7    2   24 1     
    8    3    4 1     
    9    4    5 ar    
   10    4   11 ar    
   11    5    6 ar    
   12    5   25 1     
   13    6    7 1     
   14    6    9 ar    
   15    7    8 2     
   16    7   26 1     
   17    9   10 ar    
   18    9   27 1     
   19   10   11 ar    
   20   10   28 1     
   21   11   12 1     
   22   12   13 1     
   23   13   14 1     
   24   13   15 1     
   25   13   29 1     
   26   14   30 1     
   27   14   31 1     
   28   14   32 1     
   29   15   16 2     
   30   15   17 am    
   31   17   18 1     
   32   17   19 1     
   33   18   33 1     
   34   18   34 1     
   35   18   35 1     
   36   19   36 1     
   37   19   37 1     
   38   19   38 1     
@<TRIPOS>SUBSTRUCTURE
      1 ****           1
@<TRIPOS>COMMENT
> <Gold.Version>
2022.2.0

> <Gold.Id.Protein>
1qkm|1qkm_protein|mol2

> <Gold.Protein.RotatedTorsions>
[  496  491  490  487 ] final -157.66 input  -89.99 | X-H torsion

> <Gold.Protein.ActiveResidues>
 MET295  LEU298  THR299  LEU301  ALA302  GLU305  TRP335  MET336  LEU339  MET340 
 GLY342  LEU343  ARG346  PHE356  ILE373  ILE376  PHE377  LEU380  LYS471  GLY472 
 MET473  HIS475  LEU476  LEU477  ASN478  MET479  VAL484  VAL487 

> <Gold.Protein.RotatedAtoms>
   37.2662   33.7999   40.7392 H   0  0  0  0  0  0  0  0  0  0  0  0  # atno 496  bound_to 491 

> <Gold.Score>
     Score     S(PLP)   S(hbond)     S(cho)   S(metal)  DE(clash)   DE(tors)     intcor
     50.65     -52.26       0.00       0.00       0.00       0.33       1.02       0.76

> <Gold.PLP.Fitness>
50.6526

> <Gold.PLP.PLP>
-52.2556

> <Gold.PLP.part.hbond>
0.0000

> <Gold.PLP.part.metal>
0.0000

> <Gold.PLP.part.buried>
-5.5919

> <Gold.PLP.part.nonpolar>
-51.7208

> <Gold.PLP.part.repulsive>
4.4259

> <Gold.PLP.ligand.clash>
0.3268

> <Gold.PLP.ligand.torsion>
1.0171

> <Gold.PLP.Chemscore.Hbond>
0.0000

> <Gold.PLP.Chemscore.CHOScore>
0.0000

> <Gold.PLP.Chemscore.Metal>
0.0000

> <Gold.PLP.Chemscore.Internal.Correction>
0.7580

