#       Name:                EN300-07843_i001
#       Creating user name   aseyller
#       Creation time:       Fri Apr 21 16:22:36 2023


#       File generated by GOLD software.
#

@<TRIPOS>MOLECULE
EN300-07843_i001|benzaldehydes|mol2|1|dock20
    38    38     1
SMALL
USER_CHARGES


@<TRIPOS>ATOM
      1 C1          31.4706  33.0965  38.2535 C.3            1 <1>                0.0000
      2 C2          31.8042  34.5834  38.3896 C.3            1 <1>                0.0000
      3 O3          30.5944  35.3440  38.3994 O.3            1 <1>                0.0000
      4 C4          30.5807  36.4916  37.6698 C.ar           1 <1>                0.0000
      5 C5          31.4126  36.6240  36.5763 C.ar           1 <1>                0.0000
      6 C6          31.3953  37.8070  35.8272 C.ar           1 <1>                0.0000
      7 C7          32.2776  37.9541  34.6623 C.2            1 <1>                0.0000
      8 O8          32.0532  38.8135  33.8363 O.2            1 <1>                0.0000
      9 C9          30.5341  38.8490  36.1917 C.ar           1 <1>                0.0000
     10 C10         29.7077  38.7083  37.2837 C.ar           1 <1>                0.0000
     11 C11         29.7218  37.5323  38.0232 C.ar           1 <1>                0.0000
     12 O12         28.9044  37.3993  39.0987 O.3            1 <1>                0.0000
     13 C13         27.7199  36.6198  38.9208 C.3            1 <1>                0.0000
     14 C14         27.0630  36.9868  37.5887 C.3            1 <1>                0.0000
     15 C15         26.7601  36.9002  40.0484 C.2            1 <1>                0.0000
     16 O16         25.6523  37.3317  39.8087 O.2            1 <1>                0.0000
     17 N17         27.1329  36.6714  41.3232 N.am           1 <1>                0.0000
     18 C18         28.5029  36.2463  41.6208 C.3            1 <1>                0.0000
     19 C19         26.1680  36.8478  42.4114 C.3            1 <1>                0.0000
     20 H20         30.9288  32.9292  37.3226 H              1 <1>                0.0000
     21 H21         32.3933  32.5163  38.2461 H              1 <1>                0.0000
     22 H22         30.8520  32.7844  39.0951 H              1 <1>                0.0000
     23 H23         32.3460  34.7505  39.3205 H              1 <1>                0.0000
     24 H24         32.4228  34.8955  37.5481 H              1 <1>                0.0000
     25 H25         32.0754  35.8175  36.2995 H              1 <1>                0.0000
     26 H26         33.1262  37.2971  34.5412 H              1 <1>                0.0000
     27 H27         30.5183  39.7630  35.6164 H              1 <1>                0.0000
     28 H28         29.0438  39.5127  37.5639 H              1 <1>                0.0000
     29 H29         27.9787  35.5609  38.9188 H              1 <1>                0.0000
     30 H30         26.1125  36.4615  37.4953 H              1 <1>                0.0000
     31 H31         26.8887  38.0623  37.5537 H              1 <1>                0.0000
     32 H32         27.7197  36.6983  36.7681 H              1 <1>                0.0000
     33 H33         29.1274  37.1239  41.7877 H              1 <1>                0.0000
     34 H34         28.5040  35.6241  42.5158 H              1 <1>                0.0000
     35 H35         28.8966  35.6747  40.7804 H              1 <1>                0.0000
     36 H36         25.1940  37.1051  41.9953 H              1 <1>                0.0000
     37 H37         26.0873  35.9210  42.9793 H              1 <1>                0.0000
     38 H38         26.5049  37.6489  43.0694 H              1 <1>                0.0000
@<TRIPOS>BOND
    1    1    2 1     
    2    1   20 1     
    3    1   21 1     
    4    1   22 1     
    5    2    3 1     
    6    2   23 1     
    7    2   24 1     
    8    3    4 1     
    9    4    5 ar    
   10    4   11 ar    
   11    5    6 ar    
   12    5   25 1     
   13    6    7 1     
   14    6    9 ar    
   15    7    8 2     
   16    7   26 1     
   17    9   10 ar    
   18    9   27 1     
   19   10   11 ar    
   20   10   28 1     
   21   11   12 1     
   22   12   13 1     
   23   13   14 1     
   24   13   15 1     
   25   13   29 1     
   26   14   30 1     
   27   14   31 1     
   28   14   32 1     
   29   15   16 2     
   30   15   17 am    
   31   17   18 1     
   32   17   19 1     
   33   18   33 1     
   34   18   34 1     
   35   18   35 1     
   36   19   36 1     
   37   19   37 1     
   38   19   38 1     
@<TRIPOS>SUBSTRUCTURE
      1 ****           1
@<TRIPOS>COMMENT
> <Gold.Version>
2022.2.0

> <Gold.Id.Protein>
1qkm|1qkm_protein|mol2

> <Gold.Protein.RotatedTorsions>
[  496  491  490  487 ] final  138.38 input  -89.99 | X-H torsion

> <Gold.Protein.ActiveResidues>
 MET295  LEU298  THR299  LEU301  ALA302  GLU305  TRP335  MET336  LEU339  MET340 
 GLY342  LEU343  ARG346  PHE356  ILE373  ILE376  PHE377  LEU380  LYS471  GLY472 
 MET473  HIS475  LEU476  LEU477  ASN478  MET479  VAL484  VAL487 

> <Gold.Protein.RotatedAtoms>
   37.2052   33.0148   41.3540 H   0  0  0  0  0  0  0  0  0  0  0  0  # atno 496  bound_to 491 

> <Gold.Score>
     Score     S(PLP)   S(hbond)     S(cho)   S(metal)  DE(clash)   DE(tors)     intcor
     51.46     -52.99       0.00       0.00       0.00       0.05       1.12       0.76

> <Gold.PLP.Fitness>
51.4618

> <Gold.PLP.PLP>
-52.9879

> <Gold.PLP.part.hbond>
0.0000

> <Gold.PLP.part.metal>
0.0000

> <Gold.PLP.part.buried>
3.1023

> <Gold.PLP.part.nonpolar>
-56.2106

> <Gold.PLP.part.repulsive>
0.2800

> <Gold.PLP.ligand.clash>
0.0461

> <Gold.PLP.ligand.torsion>
1.1190

> <Gold.PLP.Chemscore.Hbond>
0.0000

> <Gold.PLP.Chemscore.CHOScore>
0.0000

> <Gold.PLP.Chemscore.Metal>
0.0000

> <Gold.PLP.Chemscore.Internal.Correction>
0.7580

