#       Name:                EN300-07843_i001
#       Creating user name   aseyller
#       Creation time:       Fri Apr 21 16:22:04 2023


#       File generated by GOLD software.
#

@<TRIPOS>MOLECULE
EN300-07843_i001|benzaldehydes|mol2|1|dock3
    38    38     1
SMALL
USER_CHARGES


@<TRIPOS>ATOM
      1 C1          29.4023  40.7130  36.4002 C.3            1 <1>                0.0000
      2 C2          29.8223  39.3522  35.8410 C.3            1 <1>                0.0000
      3 O3          29.4048  38.3198  36.7365 O.3            1 <1>                0.0000
      4 C4          30.3467  37.4169  37.1199 C.ar           1 <1>                0.0000
      5 C5          31.4477  37.1864  36.3199 C.ar           1 <1>                0.0000
      6 C6          32.4157  36.2563  36.7183 C.ar           1 <1>                0.0000
      7 C7          33.5897  36.0068  35.8719 C.2            1 <1>                0.0000
      8 O8          33.7844  36.6893  34.8884 O.2            1 <1>                0.0000
      9 C9          32.2614  35.5653  37.9261 C.ar           1 <1>                0.0000
     10 C10         31.1602  35.8015  38.7179 C.ar           1 <1>                0.0000
     11 C11         30.2029  36.7283  38.3244 C.ar           1 <1>                0.0000
     12 O12         29.1195  36.9572  39.1095 O.3            1 <1>                0.0000
     13 C13         27.9630  36.1526  38.8700 C.3            1 <1>                0.0000
     14 C14         27.6123  36.1941  37.3814 C.3            1 <1>                0.0000
     15 C15         26.8052  36.6854  39.6740 C.2            1 <1>                0.0000
     16 O16         25.8011  37.0678  39.1114 O.2            1 <1>                0.0000
     17 N17         26.8855  36.7371  41.0184 N.am           1 <1>                0.0000
     18 C18         25.7247  37.1599  41.8059 C.3            1 <1>                0.0000
     19 C19         28.1336  36.3704  41.6923 C.3            1 <1>                0.0000
     20 H20         29.8689  40.8656  37.3733 H              1 <1>                0.0000
     21 H21         29.7207  41.5004  35.7171 H              1 <1>                0.0000
     22 H22         28.3181  40.7424  36.5084 H              1 <1>                0.0000
     23 H23         29.3556  39.1996  34.8677 H              1 <1>                0.0000
     24 H24         30.9064  39.3227  35.7326 H              1 <1>                0.0000
     25 H25         31.5619  37.7217  35.3889 H              1 <1>                0.0000
     26 H26         34.2799  35.2156  36.1253 H              1 <1>                0.0000
     27 H27         33.0058  34.8470  38.2365 H              1 <1>                0.0000
     28 H28         31.0422  35.2679  39.6494 H              1 <1>                0.0000
     29 H29         28.1684  35.1239  39.1663 H              1 <1>                0.0000
     30 H30         26.6786  35.6574  37.2129 H              1 <1>                0.0000
     31 H31         27.4979  37.2306  37.0638 H              1 <1>                0.0000
     32 H32         28.4103  35.7240  36.8068 H              1 <1>                0.0000
     33 H33         25.1197  36.2890  42.0576 H              1 <1>                0.0000
     34 H34         26.0638  37.6437  42.7219 H              1 <1>                0.0000
     35 H35         25.1271  37.8617  41.2241 H              1 <1>                0.0000
     36 H36         28.8961  36.1442  40.9470 H              1 <1>                0.0000
     37 H37         28.4682  37.2006  42.3142 H              1 <1>                0.0000
     38 H38         27.9650  35.4933  42.3172 H              1 <1>                0.0000
@<TRIPOS>BOND
    1    1    2 1     
    2    1   20 1     
    3    1   21 1     
    4    1   22 1     
    5    2    3 1     
    6    2   23 1     
    7    2   24 1     
    8    3    4 1     
    9    4    5 ar    
   10    4   11 ar    
   11    5    6 ar    
   12    5   25 1     
   13    6    7 1     
   14    6    9 ar    
   15    7    8 2     
   16    7   26 1     
   17    9   10 ar    
   18    9   27 1     
   19   10   11 ar    
   20   10   28 1     
   21   11   12 1     
   22   12   13 1     
   23   13   14 1     
   24   13   15 1     
   25   13   29 1     
   26   14   30 1     
   27   14   31 1     
   28   14   32 1     
   29   15   16 2     
   30   15   17 am    
   31   17   18 1     
   32   17   19 1     
   33   18   33 1     
   34   18   34 1     
   35   18   35 1     
   36   19   36 1     
   37   19   37 1     
   38   19   38 1     
@<TRIPOS>SUBSTRUCTURE
      1 ****           1
@<TRIPOS>COMMENT
> <Gold.Version>
2022.2.0

> <Gold.Id.Protein>
1qkm|1qkm_protein|mol2

> <Gold.Protein.RotatedTorsions>
[  496  491  490  487 ] final   62.39 input  -89.99 | X-H torsion

> <Gold.Protein.ActiveResidues>
 MET295  LEU298  THR299  LEU301  ALA302  GLU305  TRP335  MET336  LEU339  MET340 
 GLY342  LEU343  ARG346  PHE356  ILE373  ILE376  PHE377  LEU380  LYS471  GLY472 
 MET473  HIS475  LEU476  LEU477  ASN478  MET479  VAL484  VAL487 

> <Gold.Protein.RotatedAtoms>
   36.5715   33.2891   42.2875 H   0  0  0  0  0  0  0  0  0  0  0  0  # atno 496  bound_to 491 

> <Gold.Score>
     Score     S(PLP)   S(hbond)     S(cho)   S(metal)  DE(clash)   DE(tors)     intcor
     54.57     -56.08       0.00       0.00       0.00       0.01       1.13       0.76

> <Gold.PLP.Fitness>
54.5672

> <Gold.PLP.PLP>
-56.0801

> <Gold.PLP.part.hbond>
0.0000

> <Gold.PLP.part.metal>
0.0000

> <Gold.PLP.part.buried>
-4.4571

> <Gold.PLP.part.nonpolar>
-52.5536

> <Gold.PLP.part.repulsive>
0.2772

> <Gold.PLP.ligand.clash>
0.0051

> <Gold.PLP.ligand.torsion>
1.1343

> <Gold.PLP.Chemscore.Hbond>
0.0000

> <Gold.PLP.Chemscore.CHOScore>
0.0000

> <Gold.PLP.Chemscore.Metal>
0.0000

> <Gold.PLP.Chemscore.Internal.Correction>
0.7609

