#       Name:                EN300-07843_i001
#       Creating user name   aseyller
#       Creation time:       Fri Apr 21 16:22:30 2023


#       File generated by GOLD software.
#

@<TRIPOS>MOLECULE
EN300-07843_i001|benzaldehydes|mol2|1|dock17
    38    38     1
SMALL
USER_CHARGES


@<TRIPOS>ATOM
      1 C1          31.1823  34.0101  38.5014 C.3            1 <1>                0.0000
      2 C2          31.7922  35.3958  38.7226 C.3            1 <1>                0.0000
      3 O3          30.7692  36.3883  38.6199 O.3            1 <1>                0.0000
      4 C4          30.6902  37.0747  37.4486 C.ar           1 <1>                0.0000
      5 C5          31.7055  36.9721  36.5189 C.ar           1 <1>                0.0000
      6 C6          31.6204  37.6801  35.3137 C.ar           1 <1>                0.0000
      7 C7          32.6968  37.5749  34.3202 C.2            1 <1>                0.0000
      8 O8          33.5298  36.6988  34.4190 O.2            1 <1>                0.0000
      9 C9          30.5057  38.4879  35.0584 C.ar           1 <1>                0.0000
     10 C10         29.4978  38.5842  35.9912 C.ar           1 <1>                0.0000
     11 C11         29.5806  37.8775  37.1843 C.ar           1 <1>                0.0000
     12 O12         28.5834  37.9761  38.1000 O.3            1 <1>                0.0000
     13 C13         28.0141  36.7538  38.5735 C.3            1 <1>                0.0000
     14 C14         27.6408  35.8698  37.3820 C.3            1 <1>                0.0000
     15 C15         26.7786  37.0553  39.3821 C.2            1 <1>                0.0000
     16 O16         25.8220  37.5820  38.8544 O.2            1 <1>                0.0000
     17 N17         26.7368  36.7395  40.6917 N.am           1 <1>                0.0000
     18 C18         27.9260  36.1963  41.3526 C.3            1 <1>                0.0000
     19 C19         25.5020  36.9397  41.4542 C.3            1 <1>                0.0000
     20 H20         30.7313  33.9656  37.5101 H              1 <1>                0.0000
     21 H21         31.9626  33.2530  38.5797 H              1 <1>                0.0000
     22 H22         30.4188  33.8243  39.2568 H              1 <1>                0.0000
     23 H23         32.2433  35.4401  39.7139 H              1 <1>                0.0000
     24 H24         32.5558  35.5815  37.9673 H              1 <1>                0.0000
     25 H25         32.5633  36.3480  36.7208 H              1 <1>                0.0000
     26 H26         32.7467  38.2777  33.5016 H              1 <1>                0.0000
     27 H27         30.4368  39.0356  34.1300 H              1 <1>                0.0000
     28 H28         28.6385  39.2077  35.7931 H              1 <1>                0.0000
     29 H29         28.7396  36.2335  39.1988 H              1 <1>                0.0000
     30 H30         27.1229  34.9793  37.7383 H              1 <1>                0.0000
     31 H31         26.9878  36.4247  36.7083 H              1 <1>                0.0000
     32 H32         28.5456  35.5755  36.8503 H              1 <1>                0.0000
     33 H33         28.5230  37.0142  41.7559 H              1 <1>                0.0000
     34 H34         27.6207  35.5351  42.1637 H              1 <1>                0.0000
     35 H35         28.5188  35.6354  40.6302 H              1 <1>                0.0000
     36 H36         24.7153  37.2906  40.7864 H              1 <1>                0.0000
     37 H37         25.1988  35.9966  41.9089 H              1 <1>                0.0000
     38 H38         25.6732  37.6809  42.2350 H              1 <1>                0.0000
@<TRIPOS>BOND
    1    1    2 1     
    2    1   20 1     
    3    1   21 1     
    4    1   22 1     
    5    2    3 1     
    6    2   23 1     
    7    2   24 1     
    8    3    4 1     
    9    4    5 ar    
   10    4   11 ar    
   11    5    6 ar    
   12    5   25 1     
   13    6    7 1     
   14    6    9 ar    
   15    7    8 2     
   16    7   26 1     
   17    9   10 ar    
   18    9   27 1     
   19   10   11 ar    
   20   10   28 1     
   21   11   12 1     
   22   12   13 1     
   23   13   14 1     
   24   13   15 1     
   25   13   29 1     
   26   14   30 1     
   27   14   31 1     
   28   14   32 1     
   29   15   16 2     
   30   15   17 am    
   31   17   18 1     
   32   17   19 1     
   33   18   33 1     
   34   18   34 1     
   35   18   35 1     
   36   19   36 1     
   37   19   37 1     
   38   19   38 1     
@<TRIPOS>SUBSTRUCTURE
      1 ****           1
@<TRIPOS>COMMENT
> <Gold.Version>
2022.2.0

> <Gold.Id.Protein>
1qkm|1qkm_protein|mol2

> <Gold.Protein.RotatedTorsions>
[  496  491  490  487 ] final  150.70 input  -89.99 | X-H torsion

> <Gold.Protein.ActiveResidues>
 MET295  LEU298  THR299  LEU301  ALA302  GLU305  TRP335  MET336  LEU339  MET340 
 GLY342  LEU343  ARG346  PHE356  ILE373  ILE376  PHE377  LEU380  LYS471  GLY472 
 MET473  HIS475  LEU476  LEU477  ASN478  MET479  VAL484  VAL487 

> <Gold.Protein.RotatedAtoms>
   37.2656   33.1105   41.1862 H   0  0  0  0  0  0  0  0  0  0  0  0  # atno 496  bound_to 491 

> <Gold.Score>
     Score     S(PLP)   S(hbond)     S(cho)   S(metal)  DE(clash)   DE(tors)     intcor
     52.83     -54.65       0.00       0.00       0.00       1.42       0.58       0.76

> <Gold.PLP.Fitness>
52.8341

> <Gold.PLP.PLP>
-54.6500

> <Gold.PLP.part.hbond>
0.0000

> <Gold.PLP.part.metal>
0.0000

> <Gold.PLP.part.buried>
-3.5464

> <Gold.PLP.part.nonpolar>
-52.0839

> <Gold.PLP.part.repulsive>
0.6154

> <Gold.PLP.ligand.clash>
1.4159

> <Gold.PLP.ligand.torsion>
0.5790

> <Gold.PLP.Chemscore.Hbond>
0.0000

> <Gold.PLP.Chemscore.CHOScore>
0.0000

> <Gold.PLP.Chemscore.Metal>
0.0000

> <Gold.PLP.Chemscore.Internal.Correction>
0.7580

