#       Name:                EN300-07843_i001
#       Creating user name   aseyller
#       Creation time:       Fri Apr 21 16:22:19 2023


#       File generated by GOLD software.
#

@<TRIPOS>MOLECULE
EN300-07843_i001|benzaldehydes|mol2|1|dock11
    38    38     1
SMALL
USER_CHARGES


@<TRIPOS>ATOM
      1 C1          29.8801  38.5645  35.4248 C.3            1 <1>                0.0000
      2 C2          30.2959  39.4439  36.6058 C.3            1 <1>                0.0000
      3 O3          30.0318  38.7544  37.8293 O.3            1 <1>                0.0000
      4 C4          30.6049  37.5310  37.9847 C.ar           1 <1>                0.0000
      5 C5          31.7799  37.2307  37.3253 C.ar           1 <1>                0.0000
      6 C6          32.3673  35.9699  37.4882 C.ar           1 <1>                0.0000
      7 C7          33.6176  35.6442  36.7899 C.2            1 <1>                0.0000
      8 O8          33.8330  36.1008  35.6871 O.2            1 <1>                0.0000
      9 C9          31.7595  35.0211  38.3191 C.ar           1 <1>                0.0000
     10 C10         30.5877  35.3292  38.9729 C.ar           1 <1>                0.0000
     11 C11         30.0085  36.5820  38.8148 C.ar           1 <1>                0.0000
     12 O12         28.8533  36.8801  39.4625 O.3            1 <1>                0.0000
     13 C13         27.6325  36.5720  38.7866 C.3            1 <1>                0.0000
     14 C14         27.5884  37.3142  37.4495 C.3            1 <1>                0.0000
     15 C15         26.4651  37.0006  39.6379 C.2            1 <1>                0.0000
     16 O16         25.6434  37.7748  39.1949 O.2            1 <1>                0.0000
     17 N17         26.3343  36.5235  40.8916 N.am           1 <1>                0.0000
     18 C18         27.3779  35.6685  41.4626 C.3            1 <1>                0.0000
     19 C19         25.1485  36.8600  41.6833 C.3            1 <1>                0.0000
     20 H20         28.8152  38.3426  35.4941 H              1 <1>                0.0000
     21 H21         30.0816  39.0904  34.4916 H              1 <1>                0.0000
     22 H22         30.4475  37.6340  35.4472 H              1 <1>                0.0000
     23 H23         31.3609  39.6658  36.5363 H              1 <1>                0.0000
     24 H24         29.7287  40.3744  36.5833 H              1 <1>                0.0000
     25 H25         32.2446  37.9659  36.6852 H              1 <1>                0.0000
     26 H26         34.3453  34.9982  37.2585 H              1 <1>                0.0000
     27 H27         32.2095  34.0476  38.4469 H              1 <1>                0.0000
     28 H28         30.1198  34.5965  39.6136 H              1 <1>                0.0000
     29 H29         27.5770  35.4981  38.6080 H              1 <1>                0.0000
     30 H30         26.6195  37.1538  36.9765 H              1 <1>                0.0000
     31 H31         27.7369  38.3805  37.6207 H              1 <1>                0.0000
     32 H32         28.3773  36.9374  36.7986 H              1 <1>                0.0000
     33 H33         28.1171  36.2877  41.9707 H              1 <1>                0.0000
     34 H34         26.9307  34.9771  42.1768 H              1 <1>                0.0000
     35 H35         27.8622  35.1047  40.6654 H              1 <1>                0.0000
     36 H36         24.4612  37.4489  41.0760 H              1 <1>                0.0000
     37 H37         24.6546  35.9433  42.0055 H              1 <1>                0.0000
     38 H38         25.4474  37.4383  42.5577 H              1 <1>                0.0000
@<TRIPOS>BOND
    1    1    2 1     
    2    1   20 1     
    3    1   21 1     
    4    1   22 1     
    5    2    3 1     
    6    2   23 1     
    7    2   24 1     
    8    3    4 1     
    9    4    5 ar    
   10    4   11 ar    
   11    5    6 ar    
   12    5   25 1     
   13    6    7 1     
   14    6    9 ar    
   15    7    8 2     
   16    7   26 1     
   17    9   10 ar    
   18    9   27 1     
   19   10   11 ar    
   20   10   28 1     
   21   11   12 1     
   22   12   13 1     
   23   13   14 1     
   24   13   15 1     
   25   13   29 1     
   26   14   30 1     
   27   14   31 1     
   28   14   32 1     
   29   15   16 2     
   30   15   17 am    
   31   17   18 1     
   32   17   19 1     
   33   18   33 1     
   34   18   34 1     
   35   18   35 1     
   36   19   36 1     
   37   19   37 1     
   38   19   38 1     
@<TRIPOS>SUBSTRUCTURE
      1 ****           1
@<TRIPOS>COMMENT
> <Gold.Version>
2022.2.0

> <Gold.Id.Protein>
1qkm|1qkm_protein|mol2

> <Gold.Protein.RotatedTorsions>
[  496  491  490  487 ] final  -61.70 input  -89.99 | X-H torsion

> <Gold.Protein.ActiveResidues>
 MET295  LEU298  THR299  LEU301  ALA302  GLU305  TRP335  MET336  LEU339  MET340 
 GLY342  LEU343  ARG346  PHE356  ILE373  ILE376  PHE377  LEU380  LYS471  GLY472 
 MET473  HIS475  LEU476  LEU477  ASN478  MET479  VAL484  VAL487 

> <Gold.Protein.RotatedAtoms>
   36.5103   34.7341   41.4601 H   0  0  0  0  0  0  0  0  0  0  0  0  # atno 496  bound_to 491 

> <Gold.Score>
     Score     S(PLP)   S(hbond)     S(cho)   S(metal)  DE(clash)   DE(tors)     intcor
     54.57     -55.83       0.00       0.00       0.00       0.00       1.01       0.76

> <Gold.PLP.Fitness>
54.5672

> <Gold.PLP.PLP>
-55.8277

> <Gold.PLP.part.hbond>
0.0000

> <Gold.PLP.part.metal>
0.0000

> <Gold.PLP.part.buried>
3.4811

> <Gold.PLP.part.nonpolar>
-59.8049

> <Gold.PLP.part.repulsive>
0.1886

> <Gold.PLP.ligand.clash>
0.0005

> <Gold.PLP.ligand.torsion>
1.0090

> <Gold.PLP.Chemscore.Hbond>
0.0000

> <Gold.PLP.Chemscore.CHOScore>
0.0000

> <Gold.PLP.Chemscore.Metal>
0.0000

> <Gold.PLP.Chemscore.Internal.Correction>
0.7580

