#       Name:                EN300-07843_i001
#       Creating user name   aseyller
#       Creation time:       Fri Apr 21 16:22:02 2023


#       File generated by GOLD software.
#

@<TRIPOS>MOLECULE
EN300-07843_i001|benzaldehydes|mol2|1|dock2
    38    38     1
SMALL
USER_CHARGES


@<TRIPOS>ATOM
      1 C1          29.2102  40.2518  36.6720 C.3            1 <1>                0.0000
      2 C2          28.1846  39.1676  37.0090 C.3            1 <1>                0.0000
      3 O3          28.8629  37.9427  37.2950 O.3            1 <1>                0.0000
      4 C4          28.5136  37.2962  38.4393 C.ar           1 <1>                0.0000
      5 C5          27.2293  37.4108  38.9320 C.ar           1 <1>                0.0000
      6 C6          26.8732  36.7431  40.1103 C.ar           1 <1>                0.0000
      7 C7          25.5083  36.8606  40.6397 C.2            1 <1>                0.0000
      8 O8          25.3291  36.9824  41.8331 O.2            1 <1>                0.0000
      9 C9          27.8220  35.9629  40.7820 C.ar           1 <1>                0.0000
     10 C10         29.1006  35.8540  40.2833 C.ar           1 <1>                0.0000
     11 C11         29.4515  36.5126  39.1115 C.ar           1 <1>                0.0000
     12 O12         30.7137  36.4010  38.6244 O.3            1 <1>                0.0000
     13 C13         30.9875  35.2790  37.7829 C.3            1 <1>                0.0000
     14 C14         31.2673  34.0487  38.6482 C.3            1 <1>                0.0000
     15 C15         32.1917  35.5754  36.9267 C.2            1 <1>                0.0000
     16 O16         33.2704  35.0999  37.2117 O.2            1 <1>                0.0000
     17 N17         32.0700  36.3689  35.8441 N.am           1 <1>                0.0000
     18 C18         33.2159  36.5763  34.9553 C.3            1 <1>                0.0000
     19 C19         30.7916  37.0240  35.5562 C.3            1 <1>                0.0000
     20 H20         29.7898  39.9456  35.8011 H              1 <1>                0.0000
     21 H21         28.6928  41.1861  36.4538 H              1 <1>                0.0000
     22 H22         29.8785  40.3963  37.5209 H              1 <1>                0.0000
     23 H23         27.6050  39.4739  37.8798 H              1 <1>                0.0000
     24 H24         27.5162  39.0231  36.1602 H              1 <1>                0.0000
     25 H25         26.5012  38.0143  38.4105 H              1 <1>                0.0000
     26 H26         24.6642  36.8386  39.9663 H              1 <1>                0.0000
     27 H27         27.5510  35.4467  41.6912 H              1 <1>                0.0000
     28 H28         29.8316  35.2518  40.8022 H              1 <1>                0.0000
     29 H29         30.1260  35.0854  37.1437 H              1 <1>                0.0000
     30 H30         31.5667  33.2166  38.0109 H              1 <1>                0.0000
     31 H31         32.0687  34.2740  39.3519 H              1 <1>                0.0000
     32 H32         30.3659  33.7788  39.1984 H              1 <1>                0.0000
     33 H33         33.2111  35.8172  34.1732 H              1 <1>                0.0000
     34 H34         33.1498  37.5654  34.5019 H              1 <1>                0.0000
     35 H35         34.1393  36.5008  35.5293 H              1 <1>                0.0000
     36 H36         30.0821  36.8026  36.3534 H              1 <1>                0.0000
     37 H37         30.9419  38.1018  35.4925 H              1 <1>                0.0000
     38 H38         30.3997  36.6552  34.6083 H              1 <1>                0.0000
@<TRIPOS>BOND
    1    1    2 1     
    2    1   20 1     
    3    1   21 1     
    4    1   22 1     
    5    2    3 1     
    6    2   23 1     
    7    2   24 1     
    8    3    4 1     
    9    4    5 ar    
   10    4   11 ar    
   11    5    6 ar    
   12    5   25 1     
   13    6    7 1     
   14    6    9 ar    
   15    7    8 2     
   16    7   26 1     
   17    9   10 ar    
   18    9   27 1     
   19   10   11 ar    
   20   10   28 1     
   21   11   12 1     
   22   12   13 1     
   23   13   14 1     
   24   13   15 1     
   25   13   29 1     
   26   14   30 1     
   27   14   31 1     
   28   14   32 1     
   29   15   16 2     
   30   15   17 am    
   31   17   18 1     
   32   17   19 1     
   33   18   33 1     
   34   18   34 1     
   35   18   35 1     
   36   19   36 1     
   37   19   37 1     
   38   19   38 1     
@<TRIPOS>SUBSTRUCTURE
      1 ****           1
@<TRIPOS>COMMENT
> <Gold.Version>
2022.2.0

> <Gold.Id.Protein>
1qkm|1qkm_protein|mol2

> <Gold.Protein.RotatedTorsions>
[  496  491  490  487 ] final -154.76 input  -89.99 | X-H torsion

> <Gold.Protein.ActiveResidues>
 MET295  LEU298  THR299  LEU301  ALA302  GLU305  TRP335  MET336  LEU339  MET340 
 GLY342  LEU343  ARG346  PHE356  ILE373  ILE376  PHE377  LEU380  LYS471  GLY472 
 MET473  HIS475  LEU476  LEU477  ASN478  MET479  VAL484  VAL487 

> <Gold.Protein.RotatedAtoms>
   37.2539   33.8454   40.7313 H   0  0  0  0  0  0  0  0  0  0  0  0  # atno 496  bound_to 491 

> <Gold.Score>
     Score     S(PLP)   S(hbond)     S(cho)   S(metal)  DE(clash)   DE(tors)     intcor
     58.92     -61.58       0.27       0.00       0.00       0.00       2.12       0.76

> <Gold.PLP.Fitness>
58.9181

> <Gold.PLP.PLP>
-61.5824

> <Gold.PLP.part.hbond>
-1.0000

> <Gold.PLP.part.metal>
0.0000

> <Gold.PLP.part.buried>
-4.6947

> <Gold.PLP.part.nonpolar>
-56.7201

> <Gold.PLP.part.repulsive>
0.3293

> <Gold.PLP.ligand.clash>
0.0000

> <Gold.PLP.ligand.torsion>
2.1163

> <Gold.PLP.Chemscore.Hbond>
0.2691

> <Gold.PLP.Chemscore.CHOScore>
0.0000

> <Gold.PLP.Chemscore.Metal>
0.0000

> <Gold.Chemscore.Hbonds>
donor molecule, donor type, donor heavy atom, donor atom, acceptor molecule, acceptor atom, score
      P1  H  1258  1270       L1     8  0.27

> <Gold.PLP.Chemscore.Internal.Correction>
0.7609

