#       Name:                EN300-07843_i001
#       Creating user name   aseyller
#       Creation time:       Fri Apr 21 16:22:21 2023


#       File generated by GOLD software.
#

@<TRIPOS>MOLECULE
EN300-07843_i001|benzaldehydes|mol2|1|dock12
    38    38     1
SMALL
USER_CHARGES


@<TRIPOS>ATOM
      1 C1          31.6782  34.5107  38.7614 C.3            1 <1>                0.0000
      2 C2          30.2177  34.8743  39.0369 C.3            1 <1>                0.0000
      3 O3          29.9399  36.1692  38.5002 O.3            1 <1>                0.0000
      4 C4          28.6926  36.6694  38.7088 C.ar           1 <1>                0.0000
      5 C5          27.9878  36.3153  39.8416 C.ar           1 <1>                0.0000
      6 C6          26.7038  36.8327  40.0532 C.ar           1 <1>                0.0000
      7 C7          25.9488  36.4604  41.2566 C.2            1 <1>                0.0000
      8 O8          24.8289  36.8934  41.4280 O.2            1 <1>                0.0000
      9 C9          26.1423  37.7065  39.1144 C.ar           1 <1>                0.0000
     10 C10         26.8525  38.0544  37.9875 C.ar           1 <1>                0.0000
     11 C11         28.1282  37.5446  37.7810 C.ar           1 <1>                0.0000
     12 O12         28.8237  37.8917  36.6681 O.3            1 <1>                0.0000
     13 C13         29.7767  38.9482  36.8017 C.3            1 <1>                0.0000
     14 C14         29.0421  40.2757  36.9990 C.3            1 <1>                0.0000
     15 C15         30.6225  39.0222  35.5567 C.2            1 <1>                0.0000
     16 O16         30.6526  40.0438  34.9037 O.2            1 <1>                0.0000
     17 N17         31.3455  37.9530  35.1687 N.am           1 <1>                0.0000
     18 C18         31.2320  36.6879  35.8988 C.3            1 <1>                0.0000
     19 C19         32.2448  38.0558  34.0167 C.3            1 <1>                0.0000
     20 H20         32.3307  35.2464  39.2315 H              1 <1>                0.0000
     21 H21         31.8901  33.5229  39.1707 H              1 <1>                0.0000
     22 H22         31.8541  34.5035  37.6857 H              1 <1>                0.0000
     23 H23         29.5653  34.1384  38.5668 H              1 <1>                0.0000
     24 H24         30.0417  34.8813  40.1125 H              1 <1>                0.0000
     25 H25         28.4252  35.6406  40.5625 H              1 <1>                0.0000
     26 H26         26.3908  35.8009  41.9889 H              1 <1>                0.0000
     27 H27         25.1522  38.1074  39.2741 H              1 <1>                0.0000
     28 H28         26.4183  38.7285  37.2640 H              1 <1>                0.0000
     29 H29         30.4151  38.7547  37.6637 H              1 <1>                0.0000
     30 H30         29.7638  41.0925  37.0080 H              1 <1>                0.0000
     31 H31         28.3351  40.4246  36.1828 H              1 <1>                0.0000
     32 H32         28.5040  40.2559  37.9466 H              1 <1>                0.0000
     33 H33         30.4398  36.0834  35.4573 H              1 <1>                0.0000
     34 H34         32.1771  36.1480  35.8391 H              1 <1>                0.0000
     35 H35         30.9950  36.8912  36.9430 H              1 <1>                0.0000
     36 H36         32.2418  39.0799  33.6436 H              1 <1>                0.0000
     37 H37         33.2556  37.7822  34.3194 H              1 <1>                0.0000
     38 H38         31.9061  37.3816  33.2300 H              1 <1>                0.0000
@<TRIPOS>BOND
    1    1    2 1     
    2    1   20 1     
    3    1   21 1     
    4    1   22 1     
    5    2    3 1     
    6    2   23 1     
    7    2   24 1     
    8    3    4 1     
    9    4    5 ar    
   10    4   11 ar    
   11    5    6 ar    
   12    5   25 1     
   13    6    7 1     
   14    6    9 ar    
   15    7    8 2     
   16    7   26 1     
   17    9   10 ar    
   18    9   27 1     
   19   10   11 ar    
   20   10   28 1     
   21   11   12 1     
   22   12   13 1     
   23   13   14 1     
   24   13   15 1     
   25   13   29 1     
   26   14   30 1     
   27   14   31 1     
   28   14   32 1     
   29   15   16 2     
   30   15   17 am    
   31   17   18 1     
   32   17   19 1     
   33   18   33 1     
   34   18   34 1     
   35   18   35 1     
   36   19   36 1     
   37   19   37 1     
   38   19   38 1     
@<TRIPOS>SUBSTRUCTURE
      1 ****           1
@<TRIPOS>COMMENT
> <Gold.Version>
2022.2.0

> <Gold.Id.Protein>
1qkm|1qkm_protein|mol2

> <Gold.Protein.RotatedTorsions>
[  496  491  490  487 ] final  -81.98 input  -89.99 | X-H torsion

> <Gold.Protein.ActiveResidues>
 MET295  LEU298  THR299  LEU301  ALA302  GLU305  TRP335  MET336  LEU339  MET340 
 GLY342  LEU343  ARG346  PHE356  ILE373  ILE376  PHE377  LEU380  LYS471  GLY472 
 MET473  HIS475  LEU476  LEU477  ASN478  MET479  VAL484  VAL487 

> <Gold.Protein.RotatedAtoms>
   36.6839   34.6978   41.1793 H   0  0  0  0  0  0  0  0  0  0  0  0  # atno 496  bound_to 491 

> <Gold.Score>
     Score     S(PLP)   S(hbond)     S(cho)   S(metal)  DE(clash)   DE(tors)     intcor
     55.23     -54.42       0.53       0.00       0.00       0.00       0.77       0.76

> <Gold.PLP.Fitness>
55.2286

> <Gold.PLP.PLP>
-54.4153

> <Gold.PLP.part.hbond>
-1.0000

> <Gold.PLP.part.metal>
0.0000

> <Gold.PLP.part.buried>
-1.3063

> <Gold.PLP.part.nonpolar>
-53.9924

> <Gold.PLP.part.repulsive>
1.1321

> <Gold.PLP.ligand.clash>
0.0000

> <Gold.PLP.ligand.torsion>
0.7679

> <Gold.PLP.Chemscore.Hbond>
0.5304

> <Gold.PLP.Chemscore.CHOScore>
0.0000

> <Gold.PLP.Chemscore.Metal>
0.0000

> <Gold.Chemscore.Hbonds>
donor molecule, donor type, donor heavy atom, donor atom, acceptor molecule, acceptor atom, score
      P1  H  1258  1270       L1     8  0.53

> <Gold.PLP.Chemscore.Internal.Correction>
0.7580

