#       Name:                plp ligand
#       Creating user name   aseyller
#       Creation time:       Fri Apr 21 16:21:58 2023


#       File generated by GOLD software.
#

@<TRIPOS>MOLECULE
plp ligand
    38    38     1
SMALL
USER_CHARGES


@<TRIPOS>ATOM
      1 C1          -2.6410   4.2747  -0.0137 NONPOLAR       1 <1>                0.0000
      2 C2          -3.0031   2.7898  -0.0831 NONPOLAR       1 <1>                0.0000
      3 O3          -1.8102   2.0053  -0.0225 ACCEPTOR       1 <1>                0.0000
      4 C4          -1.9566   0.6542  -0.0727 NONPOLAR       1 <1>                0.0000
      5 C5          -3.2165   0.1001  -0.1777 NONPOLAR       1 <1>                0.0000
      6 C6          -3.3632  -1.2916  -0.2296 NONPOLAR       1 <1>                0.0000
      7 C7          -4.7008  -1.8875  -0.3418 NONPOLAR       1 <1>                0.0000
      8 O8          -4.8258  -3.0931  -0.3866 ACCEPTOR       1 <1>                0.0000
      9 C9          -2.2309  -2.1132  -0.1748 NONPOLAR       1 <1>                0.0000
     10 C10         -0.9781  -1.5520  -0.0702 NONPOLAR       1 <1>                0.0000
     11 C11         -0.8332  -0.1711  -0.0240 NONPOLAR       1 <1>                0.0000
     12 O12          0.4047   0.3764   0.0787 ACCEPTOR       1 <1>                0.0000
     13 C13          1.5048  -0.5266   0.2077 NONPOLAR       1 <1>                0.0000
     14 C14          1.6542  -0.9425   1.6724 NONPOLAR       1 <1>                0.0000
     15 C15          2.7687   0.1525  -0.2532 NONPOLAR       1 <1>                0.0000
     16 O16          2.7627   1.3390  -0.5045 ACCEPTOR       1 <1>                0.0000
     17 N17          3.9058  -0.5587  -0.3862 NONPOLAR       1 <1>                0.0000
     18 C18          5.1567   0.1186  -0.7366 NONPOLAR       1 <1>                0.0000
     19 C19          3.8909  -2.0091  -0.1803 NONPOLAR       1 <1>                0.0000
     20 H20         -1.9948   4.5308  -0.8533                1 <1>                0.0000
     21 H21         -3.5509   4.8731  -0.0599                1 <1>                0.0000
     22 H22         -2.1195   4.4782   0.9216                1 <1>                0.0000
     23 H23         -3.6494   2.5338   0.7565                1 <1>                0.0000
     24 H24         -3.5247   2.5863  -1.0183                1 <1>                0.0000
     25 H25         -4.0868   0.7382  -0.2192                1 <1>                0.0000
     26 H26         -5.5732  -1.2522  -0.3843                1 <1>                0.0000
     27 H27         -2.3402  -3.1870  -0.2143                1 <1>                0.0000
     28 H28         -0.1054  -2.1868  -0.0280                1 <1>                0.0000
     29 H29          1.3232  -1.4102  -0.4042                1 <1>                0.0000
     30 H30          2.5476  -1.5565   1.7865                1 <1>                0.0000
     31 H31          1.7430  -0.0526   2.2956                1 <1>                0.0000
     32 H32          0.7786  -1.5147   1.9788                1 <1>                0.0000
     33 H33          5.6708   0.4260   0.1740                1 <1>                0.0000
     34 H34          5.7933  -0.5631  -1.3007                1 <1>                0.0000
     35 H35          4.9367   0.9966  -1.3438                1 <1>                0.0000
     36 H36          2.8697  -2.3385   0.0111                1 <1>                0.0000
     37 H37          4.2721  -2.5066  -1.0721                1 <1>                0.0000
     38 H38          4.5200  -2.2614   0.6734                1 <1>                0.0000
@<TRIPOS>BOND
    1    1    2 1     
    2    1   20 1     
    3    1   21 1     
    4    1   22 1     
    5    2    3 1     
    6    2   23 1     
    7    2   24 1     
    8    3    4 1     
    9    4    5 ar    
   10    4   11 ar    
   11    5    6 ar    
   12    5   25 1     
   13    6    7 1     
   14    6    9 ar    
   15    7    8 2     
   16    7   26 1     
   17    9   10 ar    
   18    9   27 1     
   19   10   11 ar    
   20   10   28 1     
   21   11   12 1     
   22   12   13 1     
   23   13   14 1     
   24   13   15 1     
   25   13   29 1     
   26   14   30 1     
   27   14   31 1     
   28   14   32 1     
   29   15   16 2     
   30   15   17 am    
   31   17   18 1     
   32   17   19 1     
   33   18   33 1     
   34   18   34 1     
   35   18   35 1     
   36   19   36 1     
   37   19   37 1     
   38   19   38 1     
@<TRIPOS>SUBSTRUCTURE
      1 ****           1
@<TRIPOS>SET
DONOR_HYDROGENS      STATIC     ATOMS    <user>   **** ""
0
ATOM$RED        STATIC     ATOMS    COLORGROUP SYSTEM
0
