#       Name:                EN300-81521_i001
#       Creating user name   aseyller
#       Creation time:       Fri Apr 21 17:29:25 2023


#       File generated by GOLD software.
#

@<TRIPOS>MOLECULE
EN300-81521_i001|Sulfonylchlorides|mol2|276|dock4
    17    17     1
SMALL
USER_CHARGES


@<TRIPOS>ATOM
      1 C1          26.9041  36.7604  38.2081 C.3            1 <1>                0.0000
      2 N2          28.1557  36.4511  38.9038 N.pl3          1 <1>                0.0000
      3 C3          28.1240  35.7707  40.2009 C.3            1 <1>                0.0000
      4 C4          28.7774  36.4816  41.3878 C.3            1 <1>                0.0000
      5 C5          27.2530  36.3841  41.2992 C.3            1 <1>                0.0000
      6 S6          29.6064  36.8708  38.2243 S.o2           1 <1>                0.0000
      7 O7          29.4480  36.7267  36.8195 O.2            1 <1>                0.0000
      8 O8          30.0011  38.0886  38.8411 O.2            1 <1>                0.0000
      9 Cl9         30.9571  35.4800  38.7916 Cl             1 <1>                0.0000
     10 H10         26.5537  37.7469  38.5118 H              1 <1>                0.0000
     11 H11         27.0750  36.7512  37.1315 H              1 <1>                0.0000
     12 H12         26.1525  36.0134  38.4631 H              1 <1>                0.0000
     13 H13         28.1959  34.6838  40.1635 H              1 <1>                0.0000
     14 H14         29.2788  35.8623  42.1314 H              1 <1>                0.0000
     15 H15         29.2309  37.4555  41.2036 H              1 <1>                0.0000
     16 H16         26.7037  37.2939  41.0567 H              1 <1>                0.0000
     17 H17         26.7517  35.7006  41.9845 H              1 <1>                0.0000
@<TRIPOS>BOND
    1    1    2 1     
    2    1   10 1     
    3    1   11 1     
    4    1   12 1     
    5    2    3 1     
    6    2    6 1     
    7    3    4 1     
    8    3    5 1     
    9    3   13 1     
   10    4    5 1     
   11    4   14 1     
   12    4   15 1     
   13    5   16 1     
   14    5   17 1     
   15    6    7 2     
   16    6    8 2     
   17    6    9 1     
@<TRIPOS>SUBSTRUCTURE
      1 ****           1
@<TRIPOS>COMMENT
> <Gold.Version>
2022.2.0

> <Gold.Id.Protein>
1qkm|1qkm_protein|mol2

> <Gold.Protein.RotatedTorsions>
[  496  491  490  487 ] final  128.90 input  -89.99 | X-H torsion

> <Gold.Protein.ActiveResidues>
 MET295  LEU298  THR299  LEU301  ALA302  GLU305  TRP335  MET336  LEU339  MET340 
 GLY342  LEU343  ARG346  PHE356  ILE373  ILE376  PHE377  LEU380  LYS471  GLY472 
 MET473  HIS475  LEU476  LEU477  ASN478  MET479  VAL484  VAL487 

> <Gold.Protein.RotatedAtoms>
   37.1455   32.9667   41.4897 H   0  0  0  0  0  0  0  0  0  0  0  0  # atno 496  bound_to 491 

> <Gold.Score>
     Score     S(PLP)   S(hbond)     S(cho)   S(metal)  DE(clash)   DE(tors)     intcor
     27.06     -27.47       0.00       0.00       0.00       0.00       1.23       2.05

> <Gold.PLP.Fitness>
27.0586

> <Gold.PLP.PLP>
-27.4729

> <Gold.PLP.part.hbond>
0.0000

> <Gold.PLP.part.metal>
0.0000

> <Gold.PLP.part.buried>
0.4429

> <Gold.PLP.part.nonpolar>
-28.4780

> <Gold.PLP.part.repulsive>
0.0106

> <Gold.PLP.ligand.clash>
0.0000

> <Gold.PLP.ligand.torsion>
1.2342

> <Gold.PLP.Chemscore.Hbond>
0.0000

> <Gold.PLP.Chemscore.CHOScore>
0.0000

> <Gold.PLP.Chemscore.Metal>
0.0000

> <Gold.PLP.Chemscore.Internal.Correction>
2.0540

