#       Name:                EN300-81521_i001
#       Creating user name   aseyller
#       Creation time:       Fri Apr 21 17:29:28 2023


#       File generated by GOLD software.
#

@<TRIPOS>MOLECULE
EN300-81521_i001|Sulfonylchlorides|mol2|276|dock11
    17    17     1
SMALL
USER_CHARGES


@<TRIPOS>ATOM
      1 C1          31.4572  34.2843  38.7732 C.3            1 <1>                0.0000
      2 N2          31.0016  35.5813  38.2670 N.pl3          1 <1>                0.0000
      3 C3          29.6586  36.0654  38.5959 C.3            1 <1>                0.0000
      4 C4          28.8120  35.2116  39.5421 C.3            1 <1>                0.0000
      5 C5          29.4082  36.5332  40.0310 C.3            1 <1>                0.0000
      6 S6          32.0047  36.5003  37.3227 S.o2           1 <1>                0.0000
      7 O7          31.3390  37.7389  37.1173 O.2            1 <1>                0.0000
      8 O8          33.3002  36.4002  37.8978 O.2            1 <1>                0.0000
      9 Cl9         32.1119  35.6040  35.5156 Cl             1 <1>                0.0000
     10 H10         31.1987  33.5038  38.0576 H              1 <1>                0.0000
     11 H11         32.5383  34.3074  38.9109 H              1 <1>                0.0000
     12 H12         30.9737  34.0766  39.7277 H              1 <1>                0.0000
     13 H13         29.1406  36.5946  37.7962 H              1 <1>                0.0000
     14 H14         27.7370  35.1795  39.3651 H              1 <1>                0.0000
     15 H15         29.2543  34.2898  39.9199 H              1 <1>                0.0000
     16 H16         30.2426  36.4808  40.7304 H              1 <1>                0.0000
     17 H17         28.7254  37.3705  40.1756 H              1 <1>                0.0000
@<TRIPOS>BOND
    1    1    2 1     
    2    1   10 1     
    3    1   11 1     
    4    1   12 1     
    5    2    3 1     
    6    2    6 1     
    7    3    4 1     
    8    3    5 1     
    9    3   13 1     
   10    4    5 1     
   11    4   14 1     
   12    4   15 1     
   13    5   16 1     
   14    5   17 1     
   15    6    7 2     
   16    6    8 2     
   17    6    9 1     
@<TRIPOS>SUBSTRUCTURE
      1 ****           1
@<TRIPOS>COMMENT
> <Gold.Version>
2022.2.0

> <Gold.Id.Protein>
1qkm|1qkm_protein|mol2

> <Gold.Protein.RotatedTorsions>
[  496  491  490  487 ] final   81.96 input  -89.99 | X-H torsion

> <Gold.Protein.ActiveResidues>
 MET295  LEU298  THR299  LEU301  ALA302  GLU305  TRP335  MET336  LEU339  MET340 
 GLY342  LEU343  ARG346  PHE356  ILE373  ILE376  PHE377  LEU380  LYS471  GLY472 
 MET473  HIS475  LEU476  LEU477  ASN478  MET479  VAL484  VAL487 

> <Gold.Protein.RotatedAtoms>
   36.7459   33.0826   42.1153 H   0  0  0  0  0  0  0  0  0  0  0  0  # atno 496  bound_to 491 

> <Gold.Score>
     Score     S(PLP)   S(hbond)     S(cho)   S(metal)  DE(clash)   DE(tors)     intcor
     26.99     -27.26       0.00       0.00       0.00       0.00       1.16       2.05

> <Gold.PLP.Fitness>
26.9932

> <Gold.PLP.PLP>
-27.2612

> <Gold.PLP.part.hbond>
0.0000

> <Gold.PLP.part.metal>
0.0000

> <Gold.PLP.part.buried>
-2.3984

> <Gold.PLP.part.nonpolar>
-25.6459

> <Gold.PLP.part.repulsive>
0.0403

> <Gold.PLP.ligand.clash>
0.0000

> <Gold.PLP.ligand.torsion>
1.1608

> <Gold.PLP.Chemscore.Hbond>
0.0000

> <Gold.PLP.Chemscore.CHOScore>
0.0000

> <Gold.PLP.Chemscore.Metal>
0.0000

> <Gold.PLP.Chemscore.Internal.Correction>
2.0537

