#       Name:                EN300-81521_i001
#       Creating user name   aseyller
#       Creation time:       Fri Apr 21 17:29:24 2023


#       File generated by GOLD software.
#

@<TRIPOS>MOLECULE
EN300-81521_i001|Sulfonylchlorides|mol2|276|dock2
    17    17     1
SMALL
USER_CHARGES


@<TRIPOS>ATOM
      1 C1          27.5904  38.0095  37.5988 C.3            1 <1>                0.0000
      2 N2          27.9174  36.9835  38.5921 N.pl3          1 <1>                0.0000
      3 C3          26.8677  36.0992  39.1047 C.3            1 <1>                0.0000
      4 C4          26.8663  35.8001  40.6052 C.3            1 <1>                0.0000
      5 C5          25.7997  36.7200  40.0075 C.3            1 <1>                0.0000
      6 S6          29.4733  36.8233  39.1358 S.o2           1 <1>                0.0000
      7 O7          30.2814  37.6193  38.2798 O.2            1 <1>                0.0000
      8 O8          29.4261  36.9992  40.5451 O.2            1 <1>                0.0000
      9 Cl9         30.0233  34.9057  38.8184 Cl             1 <1>                0.0000
     10 H10         27.3144  38.9330  38.1078 H              1 <1>                0.0000
     11 H11         28.4579  38.1899  36.9638 H              1 <1>                0.0000
     12 H12         26.7559  37.6690  36.9859 H              1 <1>                0.0000
     13 H13         26.5561  35.3003  38.4319 H              1 <1>                0.0000
     14 H14         26.5534  34.8045  40.9196 H              1 <1>                0.0000
     15 H15         27.6464  36.2612  41.2110 H              1 <1>                0.0000
     16 H16         25.8781  37.7862  40.2201 H              1 <1>                0.0000
     17 H17         24.7851  36.3295  39.9287 H              1 <1>                0.0000
@<TRIPOS>BOND
    1    1    2 1     
    2    1   10 1     
    3    1   11 1     
    4    1   12 1     
    5    2    3 1     
    6    2    6 1     
    7    3    4 1     
    8    3    5 1     
    9    3   13 1     
   10    4    5 1     
   11    4   14 1     
   12    4   15 1     
   13    5   16 1     
   14    5   17 1     
   15    6    7 2     
   16    6    8 2     
   17    6    9 1     
@<TRIPOS>SUBSTRUCTURE
      1 ****           1
@<TRIPOS>COMMENT
> <Gold.Version>
2022.2.0

> <Gold.Id.Protein>
1qkm|1qkm_protein|mol2

> <Gold.Protein.RotatedTorsions>
[  496  491  490  487 ] final -109.72 input  -89.99 | X-H torsion

> <Gold.Protein.ActiveResidues>
 MET295  LEU298  THR299  LEU301  ALA302  GLU305  TRP335  MET336  LEU339  MET340 
 GLY342  LEU343  ARG346  PHE356  ILE373  ILE376  PHE377  LEU380  LYS471  GLY472 
 MET473  HIS475  LEU476  LEU477  ASN478  MET479  VAL484  VAL487 

> <Gold.Protein.RotatedAtoms>
   36.9377   34.4786   40.8761 H   0  0  0  0  0  0  0  0  0  0  0  0  # atno 496  bound_to 491 

> <Gold.Score>
     Score     S(PLP)   S(hbond)     S(cho)   S(metal)  DE(clash)   DE(tors)     intcor
     30.24     -31.00       0.00       0.00       0.00       0.00       1.41       2.05

> <Gold.PLP.Fitness>
30.2434

> <Gold.PLP.PLP>
-31.0021

> <Gold.PLP.part.hbond>
0.0000

> <Gold.PLP.part.metal>
0.0000

> <Gold.PLP.part.buried>
-3.1670

> <Gold.PLP.part.nonpolar>
-27.7120

> <Gold.PLP.part.repulsive>
0.0929

> <Gold.PLP.ligand.clash>
0.0000

> <Gold.PLP.ligand.torsion>
1.4064

> <Gold.PLP.Chemscore.Hbond>
0.0000

> <Gold.PLP.Chemscore.CHOScore>
0.0000

> <Gold.PLP.Chemscore.Metal>
0.0000

> <Gold.PLP.Chemscore.Internal.Correction>
2.0542

