#       Name:                EN300-81521_i001
#       Creating user name   aseyller
#       Creation time:       Fri Apr 21 17:29:30 2023


#       File generated by GOLD software.
#

@<TRIPOS>MOLECULE
EN300-81521_i001|Sulfonylchlorides|mol2|276|dock16
    17    17     1
SMALL
USER_CHARGES


@<TRIPOS>ATOM
      1 C1          28.3615  35.5043  41.0553 C.3            1 <1>                0.0000
      2 N2          28.1102  36.0471  39.7180 N.pl3          1 <1>                0.0000
      3 C3          26.7351  36.2034  39.2374 C.3            1 <1>                0.0000
      4 C4          25.7716  37.0158  40.1050 C.3            1 <1>                0.0000
      5 C5          26.2970  37.6002  38.7921 C.3            1 <1>                0.0000
      6 S6          29.3804  36.4836  38.7494 S.o2           1 <1>                0.0000
      7 O7          28.8778  36.5203  37.4207 O.2            1 <1>                0.0000
      8 O8          29.9993  37.5981  39.3773 O.2            1 <1>                0.0000
      9 Cl9         30.7240  34.9764  38.8096 Cl             1 <1>                0.0000
     10 H10         28.4523  34.4197  40.9961 H              1 <1>                0.0000
     11 H11         29.2861  35.9252  41.4504 H              1 <1>                0.0000
     12 H12         27.5332  35.7640  41.7144 H              1 <1>                0.0000
     13 H13         26.3269  35.3508  38.6948 H              1 <1>                0.0000
     14 H14         24.7295  36.6979  40.1328 H              1 <1>                0.0000
     15 H15         26.1608  37.4339  41.0333 H              1 <1>                0.0000
     16 H16         27.0319  38.4027  38.8568 H              1 <1>                0.0000
     17 H17         25.6005  37.6666  37.9564 H              1 <1>                0.0000
@<TRIPOS>BOND
    1    1    2 1     
    2    1   10 1     
    3    1   11 1     
    4    1   12 1     
    5    2    3 1     
    6    2    6 1     
    7    3    4 1     
    8    3    5 1     
    9    3   13 1     
   10    4    5 1     
   11    4   14 1     
   12    4   15 1     
   13    5   16 1     
   14    5   17 1     
   15    6    7 2     
   16    6    8 2     
   17    6    9 1     
@<TRIPOS>SUBSTRUCTURE
      1 ****           1
@<TRIPOS>COMMENT
> <Gold.Version>
2022.2.0

> <Gold.Id.Protein>
1qkm|1qkm_protein|mol2

> <Gold.Protein.RotatedTorsions>
[  496  491  490  487 ] final  -69.41 input  -89.99 | X-H torsion

> <Gold.Protein.ActiveResidues>
 MET295  LEU298  THR299  LEU301  ALA302  GLU305  TRP335  MET336  LEU339  MET340 
 GLY342  LEU343  ARG346  PHE356  ILE373  ILE376  PHE377  LEU380  LYS471  GLY472 
 MET473  HIS475  LEU476  LEU477  ASN478  MET479  VAL484  VAL487 

> <Gold.Protein.RotatedAtoms>
   36.5733   34.7334   41.3501 H   0  0  0  0  0  0  0  0  0  0  0  0  # atno 496  bound_to 491 

> <Gold.Score>
     Score     S(PLP)   S(hbond)     S(cho)   S(metal)  DE(clash)   DE(tors)     intcor
     29.39     -29.65       0.00       0.00       0.00       0.00       1.16       2.05

> <Gold.PLP.Fitness>
29.3931

> <Gold.PLP.PLP>
-29.6512

> <Gold.PLP.part.hbond>
0.0000

> <Gold.PLP.part.metal>
0.0000

> <Gold.PLP.part.buried>
0.5638

> <Gold.PLP.part.nonpolar>
-30.2137

> <Gold.PLP.part.repulsive>
0.0472

> <Gold.PLP.ligand.clash>
0.0000

> <Gold.PLP.ligand.torsion>
1.1559

> <Gold.PLP.Chemscore.Hbond>
0.0000

> <Gold.PLP.Chemscore.CHOScore>
0.0000

> <Gold.PLP.Chemscore.Metal>
0.0000

> <Gold.PLP.Chemscore.Internal.Correction>
2.0537

