#       Name:                EN300-81521_i001
#       Creating user name   aseyller
#       Creation time:       Fri Apr 21 17:29:27 2023


#       File generated by GOLD software.
#

@<TRIPOS>MOLECULE
EN300-81521_i001|Sulfonylchlorides|mol2|276|dock10
    17    17     1
SMALL
USER_CHARGES


@<TRIPOS>ATOM
      1 C1          32.7537  36.3806  36.3231 C.3            1 <1>                0.0000
      2 N2          31.5802  36.4817  37.1942 N.pl3          1 <1>                0.0000
      3 C3          31.5716  35.8042  38.4931 C.3            1 <1>                0.0000
      4 C4          30.4036  34.8617  38.7906 C.3            1 <1>                0.0000
      5 C5          31.7932  34.2903  38.5017 C.3            1 <1>                0.0000
      6 S6          30.2633  37.3616  36.7106 S.o2           1 <1>                0.0000
      7 O7          30.0175  37.0050  35.3572 O.2            1 <1>                0.0000
      8 O8          29.2915  37.2273  37.7386 O.2            1 <1>                0.0000
      9 Cl9         30.8147  39.3048  36.6972 Cl             1 <1>                0.0000
     10 H10         32.6459  35.5169  35.6670 H              1 <1>                0.0000
     11 H11         32.8385  37.2855  35.7214 H              1 <1>                0.0000
     12 H12         33.6498  36.2642  36.9327 H              1 <1>                0.0000
     13 H13         31.9801  36.3776  39.3252 H              1 <1>                0.0000
     14 H14         30.0440  34.8148  39.8185 H              1 <1>                0.0000
     15 H15         29.6416  34.7457  38.0199 H              1 <1>                0.0000
     16 H16         31.9454  33.7985  37.5409 H              1 <1>                0.0000
     17 H17         32.3477  33.8676  39.3395 H              1 <1>                0.0000
@<TRIPOS>BOND
    1    1    2 1     
    2    1   10 1     
    3    1   11 1     
    4    1   12 1     
    5    2    3 1     
    6    2    6 1     
    7    3    4 1     
    8    3    5 1     
    9    3   13 1     
   10    4    5 1     
   11    4   14 1     
   12    4   15 1     
   13    5   16 1     
   14    5   17 1     
   15    6    7 2     
   16    6    8 2     
   17    6    9 1     
@<TRIPOS>SUBSTRUCTURE
      1 ****           1
@<TRIPOS>COMMENT
> <Gold.Version>
2022.2.0

> <Gold.Id.Protein>
1qkm|1qkm_protein|mol2

> <Gold.Protein.RotatedTorsions>
[  496  491  490  487 ] final   68.42 input  -89.99 | X-H torsion

> <Gold.Protein.ActiveResidues>
 MET295  LEU298  THR299  LEU301  ALA302  GLU305  TRP335  MET336  LEU339  MET340 
 GLY342  LEU343  ARG346  PHE356  ILE373  ILE376  PHE377  LEU380  LYS471  GLY472 
 MET473  HIS475  LEU476  LEU477  ASN478  MET479  VAL484  VAL487 

> <Gold.Protein.RotatedAtoms>
   36.6234   33.2174   42.2428 H   0  0  0  0  0  0  0  0  0  0  0  0  # atno 496  bound_to 491 

> <Gold.Score>
     Score     S(PLP)   S(hbond)     S(cho)   S(metal)  DE(clash)   DE(tors)     intcor
     26.11     -26.20       0.00       0.00       0.00       0.00       1.07       2.05

> <Gold.PLP.Fitness>
26.1127

> <Gold.PLP.PLP>
-26.2001

> <Gold.PLP.part.hbond>
0.0000

> <Gold.PLP.part.metal>
0.0000

> <Gold.PLP.part.buried>
-2.3409

> <Gold.PLP.part.nonpolar>
-23.6551

> <Gold.PLP.part.repulsive>
0.0373

> <Gold.PLP.ligand.clash>
0.0000

> <Gold.PLP.ligand.torsion>
1.0705

> <Gold.PLP.Chemscore.Hbond>
0.0000

> <Gold.PLP.Chemscore.CHOScore>
0.0000

> <Gold.PLP.Chemscore.Metal>
0.0000

> <Gold.PLP.Chemscore.Internal.Correction>
2.0537

