#       Name:                EN300-81521_i001
#       Creating user name   aseyller
#       Creation time:       Fri Apr 21 17:29:31 2023


#       File generated by GOLD software.
#

@<TRIPOS>MOLECULE
EN300-81521_i001|Sulfonylchlorides|mol2|276|dock18
    17    17     1
SMALL
USER_CHARGES


@<TRIPOS>ATOM
      1 C1          30.8807  36.4397  38.2716 C.3            1 <1>                0.0000
      2 N2          29.4924  36.9075  38.2806 N.pl3          1 <1>                0.0000
      3 C3          29.0431  37.8870  37.2881 C.3            1 <1>                0.0000
      4 C4          29.6987  39.2692  37.3126 C.3            1 <1>                0.0000
      5 C5          30.0316  38.2843  36.1900 C.3            1 <1>                0.0000
      6 S6          28.4311  36.3293  39.4127 S.o2           1 <1>                0.0000
      7 O7          27.1993  37.0013  39.1880 O.2            1 <1>                0.0000
      8 O8          28.5587  34.9141  39.3965 O.2            1 <1>                0.0000
      9 Cl9         29.0930  36.9411  41.2204 Cl             1 <1>                0.0000
     10 H10         31.4866  37.0877  38.9050 H              1 <1>                0.0000
     11 H11         30.9225  35.4187  38.6511 H              1 <1>                0.0000
     12 H12         31.2660  36.4646  37.2523 H              1 <1>                0.0000
     13 H13         27.9876  37.8352  37.0209 H              1 <1>                0.0000
     14 H14         29.0747  40.1267  37.0610 H              1 <1>                0.0000
     15 H15         30.4644  39.4498  38.0670 H              1 <1>                0.0000
     16 H16         31.0163  37.8170  36.2060 H              1 <1>                0.0000
     17 H17         29.6266  38.4939  35.2000 H              1 <1>                0.0000
@<TRIPOS>BOND
    1    1    2 1     
    2    1   10 1     
    3    1   11 1     
    4    1   12 1     
    5    2    3 1     
    6    2    6 1     
    7    3    4 1     
    8    3    5 1     
    9    3   13 1     
   10    4    5 1     
   11    4   14 1     
   12    4   15 1     
   13    5   16 1     
   14    5   17 1     
   15    6    7 2     
   16    6    8 2     
   17    6    9 1     
@<TRIPOS>SUBSTRUCTURE
      1 ****           1
@<TRIPOS>COMMENT
> <Gold.Version>
2022.2.0

> <Gold.Id.Protein>
1qkm|1qkm_protein|mol2

> <Gold.Protein.RotatedTorsions>
[  496  491  490  487 ] final   56.97 input  -89.99 | X-H torsion

> <Gold.Protein.ActiveResidues>
 MET295  LEU298  THR299  LEU301  ALA302  GLU305  TRP335  MET336  LEU339  MET340 
 GLY342  LEU343  ARG346  PHE356  ILE373  ILE376  PHE377  LEU380  LYS471  GLY472 
 MET473  HIS475  LEU476  LEU477  ASN478  MET479  VAL484  VAL487 

> <Gold.Protein.RotatedAtoms>
   36.5267   33.3588   42.3209 H   0  0  0  0  0  0  0  0  0  0  0  0  # atno 496  bound_to 491 

> <Gold.Score>
     Score     S(PLP)   S(hbond)     S(cho)   S(metal)  DE(clash)   DE(tors)     intcor
     27.04     -27.15       0.00       0.00       0.00       0.00       1.08       2.05

> <Gold.PLP.Fitness>
27.0392

> <Gold.PLP.PLP>
-27.1461

> <Gold.PLP.part.hbond>
0.0000

> <Gold.PLP.part.metal>
0.0000

> <Gold.PLP.part.buried>
-2.1521

> <Gold.PLP.part.nonpolar>
-25.2310

> <Gold.PLP.part.repulsive>
0.0453

> <Gold.PLP.ligand.clash>
0.0000

> <Gold.PLP.ligand.torsion>
1.0803

> <Gold.PLP.Chemscore.Hbond>
0.0000

> <Gold.PLP.Chemscore.CHOScore>
0.0000

> <Gold.PLP.Chemscore.Metal>
0.0000

> <Gold.PLP.Chemscore.Internal.Correction>
2.0537

