#       Name:                EN300-81521_i001
#       Creating user name   aseyller
#       Creation time:       Fri Apr 21 17:29:27 2023


#       File generated by GOLD software.
#

@<TRIPOS>MOLECULE
EN300-81521_i001|Sulfonylchlorides|mol2|276|dock8
    17    17     1
SMALL
USER_CHARGES


@<TRIPOS>ATOM
      1 C1          30.9110  34.4616  39.0860 C.3            1 <1>                0.0000
      2 N2          30.9282  35.8479  38.6128 N.pl3          1 <1>                0.0000
      3 C3          32.1000  36.3647  37.9014 C.3            1 <1>                0.0000
      4 C4          32.6892  35.4974  36.7871 C.3            1 <1>                0.0000
      5 C5          31.9157  36.7704  36.4377 C.3            1 <1>                0.0000
      6 S6          29.6231  36.8310  38.8821 S.o2           1 <1>                0.0000
      7 O7          30.0022  38.1295  38.4465 O.2            1 <1>                0.0000
      8 O8          28.4894  36.1410  38.3744 O.2            1 <1>                0.0000
      9 Cl9         29.3686  36.9523  40.8824 Cl             1 <1>                0.0000
     10 H10         31.3169  34.4176  40.0967 H              1 <1>                0.0000
     11 H11         29.8857  34.0917  39.0899 H              1 <1>                0.0000
     12 H12         31.5176  33.8440  38.4237 H              1 <1>                0.0000
     13 H13         32.7943  36.9513  38.5029 H              1 <1>                0.0000
     14 H14         33.7710  35.5138  36.6553 H              1 <1>                0.0000
     15 H15         32.2050  34.5424  36.5833 H              1 <1>                0.0000
     16 H16         30.9225  36.6528  36.0041 H              1 <1>                0.0000
     17 H17         32.4886  37.6243  36.0761 H              1 <1>                0.0000
@<TRIPOS>BOND
    1    1    2 1     
    2    1   10 1     
    3    1   11 1     
    4    1   12 1     
    5    2    3 1     
    6    2    6 1     
    7    3    4 1     
    8    3    5 1     
    9    3   13 1     
   10    4    5 1     
   11    4   14 1     
   12    4   15 1     
   13    5   16 1     
   14    5   17 1     
   15    6    7 2     
   16    6    8 2     
   17    6    9 1     
@<TRIPOS>SUBSTRUCTURE
      1 ****           1
@<TRIPOS>COMMENT
> <Gold.Version>
2022.2.0

> <Gold.Id.Protein>
1qkm|1qkm_protein|mol2

> <Gold.Protein.RotatedTorsions>
[  496  491  490  487 ] final -144.13 input  -89.99 | X-H torsion

> <Gold.Protein.ActiveResidues>
 MET295  LEU298  THR299  LEU301  ALA302  GLU305  TRP335  MET336  LEU339  MET340 
 GLY342  LEU343  ARG346  PHE356  ILE373  ILE376  PHE377  LEU380  LYS471  GLY472 
 MET473  HIS475  LEU476  LEU477  ASN478  MET479  VAL484  VAL487 

> <Gold.Protein.RotatedAtoms>
   37.1991   34.0109   40.7203 H   0  0  0  0  0  0  0  0  0  0  0  0  # atno 496  bound_to 491 

> <Gold.Score>
     Score     S(PLP)   S(hbond)     S(cho)   S(metal)  DE(clash)   DE(tors)     intcor
     26.65     -27.06       0.00       0.00       0.00       0.00       1.24       2.05

> <Gold.PLP.Fitness>
26.6455

> <Gold.PLP.PLP>
-27.0644

> <Gold.PLP.part.hbond>
0.0000

> <Gold.PLP.part.metal>
0.0000

> <Gold.PLP.part.buried>
-0.6538

> <Gold.PLP.part.nonpolar>
-25.7758

> <Gold.PLP.part.repulsive>
0.0000

> <Gold.PLP.ligand.clash>
0.0000

> <Gold.PLP.ligand.torsion>
1.2363

> <Gold.PLP.Chemscore.Hbond>
0.0000

> <Gold.PLP.Chemscore.CHOScore>
0.0000

> <Gold.PLP.Chemscore.Metal>
0.0000

> <Gold.PLP.Chemscore.Internal.Correction>
2.0537

