#       Name:                EN300-81521_i001
#       Creating user name   aseyller
#       Creation time:       Fri Apr 21 17:29:26 2023


#       File generated by GOLD software.
#

@<TRIPOS>MOLECULE
EN300-81521_i001|Sulfonylchlorides|mol2|276|dock7
    17    17     1
SMALL
USER_CHARGES


@<TRIPOS>ATOM
      1 C1          30.3087  37.8559  37.6923 C.3            1 <1>                0.0000
      2 N2          30.8540  36.5886  38.1851 N.pl3          1 <1>                0.0000
      3 C3          30.3005  35.9739  39.3943 C.3            1 <1>                0.0000
      4 C4          29.2823  36.7863  40.1971 C.3            1 <1>                0.0000
      5 C5          28.8217  35.5816  39.3739 C.3            1 <1>                0.0000
      6 S6          32.0960  35.8509  37.3755 S.o2           1 <1>                0.0000
      7 O7          31.7574  35.8939  35.9961 O.2            1 <1>                0.0000
      8 O8          33.2978  36.4000  37.8983 O.2            1 <1>                0.0000
      9 Cl9         32.0813  33.9018  37.9059 Cl             1 <1>                0.0000
     10 H10         30.8533  38.6855  38.1431 H              1 <1>                0.0000
     11 H11         30.4133  37.8992  36.6081 H              1 <1>                0.0000
     12 H12         29.2542  37.9259  37.9587 H              1 <1>                0.0000
     13 H13         30.9839  35.3326  39.9508 H              1 <1>                0.0000
     14 H14         29.2957  36.6790  41.2817 H              1 <1>                0.0000
     15 H15         29.0243  37.7780  39.8256 H              1 <1>                0.0000
     16 H16         28.2607  35.7809  38.4608 H              1 <1>                0.0000
     17 H17         28.5321  34.6820  39.9169 H              1 <1>                0.0000
@<TRIPOS>BOND
    1    1    2 1     
    2    1   10 1     
    3    1   11 1     
    4    1   12 1     
    5    2    3 1     
    6    2    6 1     
    7    3    4 1     
    8    3    5 1     
    9    3   13 1     
   10    4    5 1     
   11    4   14 1     
   12    4   15 1     
   13    5   16 1     
   14    5   17 1     
   15    6    7 2     
   16    6    8 2     
   17    6    9 1     
@<TRIPOS>SUBSTRUCTURE
      1 ****           1
@<TRIPOS>COMMENT
> <Gold.Version>
2022.2.0

> <Gold.Id.Protein>
1qkm|1qkm_protein|mol2

> <Gold.Protein.RotatedTorsions>
[  496  491  490  487 ] final  -21.60 input  -89.99 | X-H torsion

> <Gold.Protein.ActiveResidues>
 MET295  LEU298  THR299  LEU301  ALA302  GLU305  TRP335  MET336  LEU339  MET340 
 GLY342  LEU343  ARG346  PHE356  ILE373  ILE376  PHE377  LEU380  LYS471  GLY472 
 MET473  HIS475  LEU476  LEU477  ASN478  MET479  VAL484  VAL487 

> <Gold.Protein.RotatedAtoms>
   36.2853   34.4875   42.0140 H   0  0  0  0  0  0  0  0  0  0  0  0  # atno 496  bound_to 491 

> <Gold.Score>
     Score     S(PLP)   S(hbond)     S(cho)   S(metal)  DE(clash)   DE(tors)     intcor
     27.77     -28.29       0.00       0.00       0.00       0.00       1.28       2.05

> <Gold.PLP.Fitness>
27.7698

> <Gold.PLP.PLP>
-28.2857

> <Gold.PLP.part.hbond>
0.0000

> <Gold.PLP.part.metal>
0.0000

> <Gold.PLP.part.buried>
-1.5250

> <Gold.PLP.part.nonpolar>
-26.9271

> <Gold.PLP.part.repulsive>
0.0881

> <Gold.PLP.ligand.clash>
0.0000

> <Gold.PLP.ligand.torsion>
1.2848

> <Gold.PLP.Chemscore.Hbond>
0.0000

> <Gold.PLP.Chemscore.CHOScore>
0.0000

> <Gold.PLP.Chemscore.Metal>
0.0000

> <Gold.PLP.Chemscore.Internal.Correction>
2.0537

