#       Name:                EN300-81521_i001
#       Creating user name   aseyller
#       Creation time:       Fri Apr 21 17:29:25 2023


#       File generated by GOLD software.
#

@<TRIPOS>MOLECULE
EN300-81521_i001|Sulfonylchlorides|mol2|276|dock3
    17    17     1
SMALL
USER_CHARGES


@<TRIPOS>ATOM
      1 C1          32.3974  35.8283  37.7197 C.3            1 <1>                0.0000
      2 N2          31.4119  36.8755  37.4396 N.pl3          1 <1>                0.0000
      3 C3          30.4739  37.2967  38.4831 C.3            1 <1>                0.0000
      4 C4          28.9803  37.1119  38.2070 C.3            1 <1>                0.0000
      5 C5          29.6907  36.2031  39.2123 C.3            1 <1>                0.0000
      6 S6          31.3581  37.5830  35.9433 S.o2           1 <1>                0.0000
      7 O7          30.2502  37.0056  35.2661 O.2            1 <1>                0.0000
      8 O8          31.4967  38.9812  36.1553 O.2            1 <1>                0.0000
      9 Cl9         33.0099  36.9912  34.9423 Cl             1 <1>                0.0000
     10 H10         31.9723  34.8547  37.4757 H              1 <1>                0.0000
     11 H11         33.2888  35.9973  37.1156 H              1 <1>                0.0000
     12 H12         32.6642  35.8537  38.7762 H              1 <1>                0.0000
     13 H13         30.7745  38.1709  39.0605 H              1 <1>                0.0000
     14 H14         28.2984  37.8642  38.6031 H              1 <1>                0.0000
     15 H15         28.6957  36.6769  37.2490 H              1 <1>                0.0000
     16 H16         29.8734  35.1703  38.9155 H              1 <1>                0.0000
     17 H17         29.4761  36.3576  40.2697 H              1 <1>                0.0000
@<TRIPOS>BOND
    1    1    2 1     
    2    1   10 1     
    3    1   11 1     
    4    1   12 1     
    5    2    3 1     
    6    2    6 1     
    7    3    4 1     
    8    3    5 1     
    9    3   13 1     
   10    4    5 1     
   11    4   14 1     
   12    4   15 1     
   13    5   16 1     
   14    5   17 1     
   15    6    7 2     
   16    6    8 2     
   17    6    9 1     
@<TRIPOS>SUBSTRUCTURE
      1 ****           1
@<TRIPOS>COMMENT
> <Gold.Version>
2022.2.0

> <Gold.Id.Protein>
1qkm|1qkm_protein|mol2

> <Gold.Protein.RotatedTorsions>
[  496  491  490  487 ] final   10.92 input  -89.99 | X-H torsion

> <Gold.Protein.ActiveResidues>
 MET295  LEU298  THR299  LEU301  ALA302  GLU305  TRP335  MET336  LEU339  MET340 
 GLY342  LEU343  ARG346  PHE356  ILE373  ILE376  PHE377  LEU380  LYS471  GLY472 
 MET473  HIS475  LEU476  LEU477  ASN478  MET479  VAL484  VAL487 

> <Gold.Protein.RotatedAtoms>
   36.2753   34.0523   42.3132 H   0  0  0  0  0  0  0  0  0  0  0  0  # atno 496  bound_to 491 

> <Gold.Score>
     Score     S(PLP)   S(hbond)     S(cho)   S(metal)  DE(clash)   DE(tors)     intcor
     26.76     -27.38       0.00       0.00       0.00       0.00       1.34       2.05

> <Gold.PLP.Fitness>
26.7582

> <Gold.PLP.PLP>
-27.3762

> <Gold.PLP.part.hbond>
0.0000

> <Gold.PLP.part.metal>
0.0000

> <Gold.PLP.part.buried>
-2.2661

> <Gold.PLP.part.nonpolar>
-25.3535

> <Gold.PLP.part.repulsive>
0.0466

> <Gold.PLP.ligand.clash>
0.0000

> <Gold.PLP.ligand.torsion>
1.3360

> <Gold.PLP.Chemscore.Hbond>
0.0000

> <Gold.PLP.Chemscore.CHOScore>
0.0000

> <Gold.PLP.Chemscore.Metal>
0.0000

> <Gold.PLP.Chemscore.Internal.Correction>
2.0540

