#       Name:                EN300-81521_i001
#       Creating user name   aseyller
#       Creation time:       Fri Apr 21 17:29:26 2023


#       File generated by GOLD software.
#

@<TRIPOS>MOLECULE
EN300-81521_i001|Sulfonylchlorides|mol2|276|dock6
    17    17     1
SMALL
USER_CHARGES


@<TRIPOS>ATOM
      1 C1          32.5096  36.1058  37.8709 C.3            1 <1>                0.0000
      2 N2          31.7215  36.7036  36.7903 N.pl3          1 <1>                0.0000
      3 C3          32.1227  36.5058  35.3952 C.3            1 <1>                0.0000
      4 C4          32.5729  37.7381  34.6080 C.3            1 <1>                0.0000
      5 C5          33.6015  36.6960  35.0518 C.3            1 <1>                0.0000
      6 S6          30.3772  37.6029  37.1455 S.o2           1 <1>                0.0000
      7 O7          29.3299  37.0996  36.3274 O.2            1 <1>                0.0000
      8 O8          30.2964  37.6611  38.5631 O.2            1 <1>                0.0000
      9 Cl9         30.7359  39.4887  36.5167 Cl             1 <1>                0.0000
     10 H10         33.2843  36.8052  38.1853 H              1 <1>                0.0000
     11 H11         31.8575  35.8823  38.7153 H              1 <1>                0.0000
     12 H12         32.9733  35.1854  37.5163 H              1 <1>                0.0000
     13 H13         31.5751  35.7348  34.8533 H              1 <1>                0.0000
     14 H14         32.3217  37.7777  33.5482 H              1 <1>                0.0000
     15 H15         32.5705  38.6961  35.1281 H              1 <1>                0.0000
     16 H16         34.2758  36.9684  35.8637 H              1 <1>                0.0000
     17 H17         34.0271  36.0501  34.2838 H              1 <1>                0.0000
@<TRIPOS>BOND
    1    1    2 1     
    2    1   10 1     
    3    1   11 1     
    4    1   12 1     
    5    2    3 1     
    6    2    6 1     
    7    3    4 1     
    8    3    5 1     
    9    3   13 1     
   10    4    5 1     
   11    4   14 1     
   12    4   15 1     
   13    5   16 1     
   14    5   17 1     
   15    6    7 2     
   16    6    8 2     
   17    6    9 1     
@<TRIPOS>SUBSTRUCTURE
      1 ****           1
@<TRIPOS>COMMENT
> <Gold.Version>
2022.2.0

> <Gold.Id.Protein>
1qkm|1qkm_protein|mol2

> <Gold.Protein.RotatedTorsions>
[  496  491  490  487 ] final  -70.56 input  -89.99 | X-H torsion

> <Gold.Protein.ActiveResidues>
 MET295  LEU298  THR299  LEU301  ALA302  GLU305  TRP335  MET336  LEU339  MET340 
 GLY342  LEU343  ARG346  PHE356  ILE373  ILE376  PHE377  LEU380  LYS471  GLY472 
 MET473  HIS475  LEU476  LEU477  ASN478  MET479  VAL484  VAL487 

> <Gold.Protein.RotatedAtoms>
   36.5830   34.7319   41.3339 H   0  0  0  0  0  0  0  0  0  0  0  0  # atno 496  bound_to 491 

> <Gold.Score>
     Score     S(PLP)   S(hbond)     S(cho)   S(metal)  DE(clash)   DE(tors)     intcor
     27.24     -27.67       0.00       0.00       0.00       0.00       1.24       2.05

> <Gold.PLP.Fitness>
27.2448

> <Gold.PLP.PLP>
-27.6714

> <Gold.PLP.part.hbond>
0.0000

> <Gold.PLP.part.metal>
0.0000

> <Gold.PLP.part.buried>
-1.8928

> <Gold.PLP.part.nonpolar>
-25.8354

> <Gold.PLP.part.repulsive>
0.0192

> <Gold.PLP.ligand.clash>
0.0000

> <Gold.PLP.ligand.torsion>
1.2401

> <Gold.PLP.Chemscore.Hbond>
0.0000

> <Gold.PLP.Chemscore.CHOScore>
0.0000

> <Gold.PLP.Chemscore.Metal>
0.0000

> <Gold.PLP.Chemscore.Internal.Correction>
2.0537

