#       Name:                EN300-81521_i001
#       Creating user name   aseyller
#       Creation time:       Fri Apr 21 17:29:27 2023


#       File generated by GOLD software.
#

@<TRIPOS>MOLECULE
EN300-81521_i001|Sulfonylchlorides|mol2|276|dock9
    17    17     1
SMALL
USER_CHARGES


@<TRIPOS>ATOM
      1 C1          30.0091  37.0995  36.9809 C.3            1 <1>                0.0000
      2 N2          30.0015  36.3851  38.2598 N.pl3          1 <1>                0.0000
      3 C3          31.2346  35.7782  38.7673 C.3            1 <1>                0.0000
      4 C4          31.7946  34.5746  38.0066 C.3            1 <1>                0.0000
      5 C5          32.4982  35.9304  37.9181 C.3            1 <1>                0.0000
      6 S6          28.5990  36.2632  39.1319 S.o2           1 <1>                0.0000
      7 O7          27.7501  37.3071  38.6745 O.2            1 <1>                0.0000
      8 O8          28.2279  34.8918  39.1054 O.2            1 <1>                0.0000
      9 Cl9         29.0499  36.6953  41.0529 Cl             1 <1>                0.0000
     10 H10         29.7824  36.4026  36.1740 H              1 <1>                0.0000
     11 H11         29.2575  37.8888  37.0012 H              1 <1>                0.0000
     12 H12         30.9929  37.5388  36.8159 H              1 <1>                0.0000
     13 H13         31.3520  35.7878  39.8509 H              1 <1>                0.0000
     14 H14         32.2808  33.7926  38.5897 H              1 <1>                0.0000
     15 H15         31.2456  34.2342  37.1286 H              1 <1>                0.0000
     16 H16         32.4120  36.4819  36.9818 H              1 <1>                0.0000
     17 H17         33.4472  36.0402  38.4429 H              1 <1>                0.0000
@<TRIPOS>BOND
    1    1    2 1     
    2    1   10 1     
    3    1   11 1     
    4    1   12 1     
    5    2    3 1     
    6    2    6 1     
    7    3    4 1     
    8    3    5 1     
    9    3   13 1     
   10    4    5 1     
   11    4   14 1     
   12    4   15 1     
   13    5   16 1     
   14    5   17 1     
   15    6    7 2     
   16    6    8 2     
   17    6    9 1     
@<TRIPOS>SUBSTRUCTURE
      1 ****           1
@<TRIPOS>COMMENT
> <Gold.Version>
2022.2.0

> <Gold.Id.Protein>
1qkm|1qkm_protein|mol2

> <Gold.Protein.RotatedTorsions>
[  496  491  490  487 ] final -123.38 input  -89.99 | X-H torsion

> <Gold.Protein.ActiveResidues>
 MET295  LEU298  THR299  LEU301  ALA302  GLU305  TRP335  MET336  LEU339  MET340 
 GLY342  LEU343  ARG346  PHE356  ILE373  ILE376  PHE377  LEU380  LYS471  GLY472 
 MET473  HIS475  LEU476  LEU477  ASN478  MET479  VAL484  VAL487 

> <Gold.Protein.RotatedAtoms>
   37.0536   34.3118   40.7807 H   0  0  0  0  0  0  0  0  0  0  0  0  # atno 496  bound_to 491 

> <Gold.Score>
     Score     S(PLP)   S(hbond)     S(cho)   S(metal)  DE(clash)   DE(tors)     intcor
     27.94     -28.26       0.00       0.00       0.00       0.00       1.19       2.05

> <Gold.PLP.Fitness>
27.9371

> <Gold.PLP.PLP>
-28.2629

> <Gold.PLP.part.hbond>
0.0000

> <Gold.PLP.part.metal>
0.0000

> <Gold.PLP.part.buried>
-1.5291

> <Gold.PLP.part.nonpolar>
-26.6805

> <Gold.PLP.part.repulsive>
0.0145

> <Gold.PLP.ligand.clash>
0.0000

> <Gold.PLP.ligand.torsion>
1.1897

> <Gold.PLP.Chemscore.Hbond>
0.0000

> <Gold.PLP.Chemscore.CHOScore>
0.0000

> <Gold.PLP.Chemscore.Metal>
0.0000

> <Gold.PLP.Chemscore.Internal.Correction>
2.0537

