#       Name:                EN300-81521_i001
#       Creating user name   aseyller
#       Creation time:       Fri Apr 21 17:29:29 2023


#       File generated by GOLD software.
#

@<TRIPOS>MOLECULE
EN300-81521_i001|Sulfonylchlorides|mol2|276|dock13
    17    17     1
SMALL
USER_CHARGES


@<TRIPOS>ATOM
      1 C1          29.3980  36.6433  38.9579 C.3            1 <1>                0.0000
      2 N2          30.6507  36.6315  38.1985 N.pl3          1 <1>                0.0000
      3 C3          31.7593  35.7751  38.6274 C.3            1 <1>                0.0000
      4 C4          31.4944  34.2712  38.7224 C.3            1 <1>                0.0000
      5 C5          32.3607  34.8253  37.5895 C.3            1 <1>                0.0000
      6 S6          30.8139  37.5863  36.8554 S.o2           1 <1>                0.0000
      7 O7          32.2073  37.8096  36.6886 O.2            1 <1>                0.0000
      8 O8          29.9937  37.0076  35.8496 O.2            1 <1>                0.0000
      9 Cl9         29.9973  39.3809  37.2947 Cl             1 <1>                0.0000
     10 H10         29.4497  37.4087  39.7322 H              1 <1>                0.0000
     11 H11         28.5679  36.8617  38.2860 H              1 <1>                0.0000
     12 H12         29.2442  35.6684  39.4204 H              1 <1>                0.0000
     13 H13         32.4363  36.2141  39.3602 H              1 <1>                0.0000
     14 H14         31.9974  33.7208  39.5174 H              1 <1>                0.0000
     15 H15         30.4953  33.9189  38.4657 H              1 <1>                0.0000
     16 H16         31.9315  34.8376  36.5876 H              1 <1>                0.0000
     17 H17         33.4336  34.6395  37.6392 H              1 <1>                0.0000
@<TRIPOS>BOND
    1    1    2 1     
    2    1   10 1     
    3    1   11 1     
    4    1   12 1     
    5    2    3 1     
    6    2    6 1     
    7    3    4 1     
    8    3    5 1     
    9    3   13 1     
   10    4    5 1     
   11    4   14 1     
   12    4   15 1     
   13    5   16 1     
   14    5   17 1     
   15    6    7 2     
   16    6    8 2     
   17    6    9 1     
@<TRIPOS>SUBSTRUCTURE
      1 ****           1
@<TRIPOS>COMMENT
> <Gold.Version>
2022.2.0

> <Gold.Id.Protein>
1qkm|1qkm_protein|mol2

> <Gold.Protein.RotatedTorsions>
[  496  491  490  487 ] final  166.87 input  -89.99 | X-H torsion

> <Gold.Protein.ActiveResidues>
 MET295  LEU298  THR299  LEU301  ALA302  GLU305  TRP335  MET336  LEU339  MET340 
 GLY342  LEU343  ARG346  PHE356  ILE373  ILE376  PHE377  LEU380  LYS471  GLY472 
 MET473  HIS475  LEU476  LEU477  ASN478  MET479  VAL484  VAL487 

> <Gold.Protein.RotatedAtoms>
   37.3112   33.2862   40.9926 H   0  0  0  0  0  0  0  0  0  0  0  0  # atno 496  bound_to 491 

> <Gold.Score>
     Score     S(PLP)   S(hbond)     S(cho)   S(metal)  DE(clash)   DE(tors)     intcor
     28.45     -28.78       0.00       0.00       0.00       0.00       1.19       2.05

> <Gold.PLP.Fitness>
28.4531

> <Gold.PLP.PLP>
-28.7772

> <Gold.PLP.part.hbond>
0.0000

> <Gold.PLP.part.metal>
0.0000

> <Gold.PLP.part.buried>
-2.0455

> <Gold.PLP.part.nonpolar>
-26.5006

> <Gold.PLP.part.repulsive>
0.0145

> <Gold.PLP.ligand.clash>
0.0000

> <Gold.PLP.ligand.torsion>
1.1889

> <Gold.PLP.Chemscore.Hbond>
0.0000

> <Gold.PLP.Chemscore.CHOScore>
0.0000

> <Gold.PLP.Chemscore.Metal>
0.0000

> <Gold.PLP.Chemscore.Internal.Correction>
2.0537

