#       Name:                EN300-81521_i001
#       Creating user name   aseyller
#       Creation time:       Fri Apr 21 17:29:32 2023


#       File generated by GOLD software.
#

@<TRIPOS>MOLECULE
EN300-81521_i001|Sulfonylchlorides|mol2|276|dock20
    17    17     1
SMALL
USER_CHARGES


@<TRIPOS>ATOM
      1 C1          28.4964  35.9488  41.1671 C.3            1 <1>                0.0000
      2 N2          28.3610  36.6405  39.8828 N.pl3          1 <1>                0.0000
      3 C3          29.5412  37.2150  39.2322 C.3            1 <1>                0.0000
      4 C4          30.6604  36.2549  38.8238 C.3            1 <1>                0.0000
      5 C5          29.7647  36.8845  37.7550 C.3            1 <1>                0.0000
      6 S6          26.8739  36.7731  39.1665 S.o2           1 <1>                0.0000
      7 O7          26.9552  37.8762  38.2743 O.2            1 <1>                0.0000
      8 O8          26.5098  35.4635  38.7522 O.2            1 <1>                0.0000
      9 Cl9         25.5608  37.3012  40.6079 Cl             1 <1>                0.0000
     10 H10         28.3709  36.6641  41.9800 H              1 <1>                0.0000
     11 H11         27.7340  35.1736  41.2444 H              1 <1>                0.0000
     12 H12         29.4849  35.4942  41.2325 H              1 <1>                0.0000
     13 H13         29.8304  38.2083  39.5753 H              1 <1>                0.0000
     14 H14         31.6858  36.6168  38.8979 H              1 <1>                0.0000
     15 H15         30.5186  35.1959  39.0393 H              1 <1>                0.0000
     16 H16         29.0336  36.2396  37.2674 H              1 <1>                0.0000
     17 H17         30.2009  37.6605  37.1261 H              1 <1>                0.0000
@<TRIPOS>BOND
    1    1    2 1     
    2    1   10 1     
    3    1   11 1     
    4    1   12 1     
    5    2    3 1     
    6    2    6 1     
    7    3    4 1     
    8    3    5 1     
    9    3   13 1     
   10    4    5 1     
   11    4   14 1     
   12    4   15 1     
   13    5   16 1     
   14    5   17 1     
   15    6    7 2     
   16    6    8 2     
   17    6    9 1     
@<TRIPOS>SUBSTRUCTURE
      1 ****           1
@<TRIPOS>COMMENT
> <Gold.Version>
2022.2.0

> <Gold.Id.Protein>
1qkm|1qkm_protein|mol2

> <Gold.Protein.RotatedTorsions>
[  496  491  490  487 ] final -171.02 input  -89.99 | X-H torsion

> <Gold.Protein.ActiveResidues>
 MET295  LEU298  THR299  LEU301  ALA302  GLU305  TRP335  MET336  LEU339  MET340 
 GLY342  LEU343  ARG346  PHE356  ILE373  ILE376  PHE377  LEU380  LYS471  GLY472 
 MET473  HIS475  LEU476  LEU477  ASN478  MET479  VAL484  VAL487 

> <Gold.Protein.RotatedAtoms>
   37.3065   33.5935   40.8021 H   0  0  0  0  0  0  0  0  0  0  0  0  # atno 496  bound_to 491 

> <Gold.Score>
     Score     S(PLP)   S(hbond)     S(cho)   S(metal)  DE(clash)   DE(tors)     intcor
     28.22     -28.64       0.00       0.00       0.00       0.00       1.23       2.05

> <Gold.PLP.Fitness>
28.2246

> <Gold.PLP.PLP>
-28.6398

> <Gold.PLP.part.hbond>
0.0000

> <Gold.PLP.part.metal>
0.0000

> <Gold.PLP.part.buried>
-0.3763

> <Gold.PLP.part.nonpolar>
-28.5508

> <Gold.PLP.part.repulsive>
0.0785

> <Gold.PLP.ligand.clash>
0.0000

> <Gold.PLP.ligand.torsion>
1.2344

> <Gold.PLP.Chemscore.Hbond>
0.0000

> <Gold.PLP.Chemscore.CHOScore>
0.0000

> <Gold.PLP.Chemscore.Metal>
0.0000

> <Gold.PLP.Chemscore.Internal.Correction>
2.0537

