#       Name:                EN300-81521_i001
#       Creating user name   aseyller
#       Creation time:       Fri Apr 21 17:29:31 2023


#       File generated by GOLD software.
#

@<TRIPOS>MOLECULE
EN300-81521_i001|Sulfonylchlorides|mol2|276|dock17
    17    17     1
SMALL
USER_CHARGES


@<TRIPOS>ATOM
      1 C1          28.5476  38.2321  37.3643 C.3            1 <1>                0.0000
      2 N2          29.8262  37.6151  37.7258 N.pl3          1 <1>                0.0000
      3 C3          29.9996  37.0105  39.0489 C.3            1 <1>                0.0000
      4 C4          28.9758  35.9608  39.4857 C.3            1 <1>                0.0000
      5 C5          30.3945  35.5333  39.1043 C.3            1 <1>                0.0000
      6 S6          31.0755  37.6013  36.6390 S.o2           1 <1>                0.0000
      7 O7          30.6978  36.7029  35.6048 O.2            1 <1>                0.0000
      8 O8          31.4162  38.9604  36.4019 O.2            1 <1>                0.0000
      9 Cl9         32.6652  36.7681  37.5658 Cl             1 <1>                0.0000
     10 H10         28.5609  39.2858  37.6430 H              1 <1>                0.0000
     11 H11         28.3921  38.1426  36.2891 H              1 <1>                0.0000
     12 H12         27.7384  37.7270  37.8917 H              1 <1>                0.0000
     13 H13         30.4044  37.6690  39.8174 H              1 <1>                0.0000
     14 H14         28.7072  35.9285  40.5415 H              1 <1>                0.0000
     15 H15         28.1731  35.7201  38.7886 H              1 <1>                0.0000
     16 H16         30.5251  35.0114  38.1562 H              1 <1>                0.0000
     17 H17         31.0593  35.2198  39.9092 H              1 <1>                0.0000
@<TRIPOS>BOND
    1    1    2 1     
    2    1   10 1     
    3    1   11 1     
    4    1   12 1     
    5    2    3 1     
    6    2    6 1     
    7    3    4 1     
    8    3    5 1     
    9    3   13 1     
   10    4    5 1     
   11    4   14 1     
   12    4   15 1     
   13    5   16 1     
   14    5   17 1     
   15    6    7 2     
   16    6    8 2     
   17    6    9 1     
@<TRIPOS>SUBSTRUCTURE
      1 ****           1
@<TRIPOS>COMMENT
> <Gold.Version>
2022.2.0

> <Gold.Id.Protein>
1qkm|1qkm_protein|mol2

> <Gold.Protein.RotatedTorsions>
[  496  491  490  487 ] final  -57.46 input  -89.99 | X-H torsion

> <Gold.Protein.ActiveResidues>
 MET295  LEU298  THR299  LEU301  ALA302  GLU305  TRP335  MET336  LEU339  MET340 
 GLY342  LEU343  ARG346  PHE356  ILE373  ILE376  PHE377  LEU380  LYS471  GLY472 
 MET473  HIS475  LEU476  LEU477  ASN478  MET479  VAL484  VAL487 

> <Gold.Protein.RotatedAtoms>
   36.4776   34.7275   41.5216 H   0  0  0  0  0  0  0  0  0  0  0  0  # atno 496  bound_to 491 

> <Gold.Score>
     Score     S(PLP)   S(hbond)     S(cho)   S(metal)  DE(clash)   DE(tors)     intcor
     24.96     -25.51       0.00       0.00       0.00       0.00       1.31       2.05

> <Gold.PLP.Fitness>
24.9579

> <Gold.PLP.PLP>
-25.5149

> <Gold.PLP.part.hbond>
0.0000

> <Gold.PLP.part.metal>
0.0000

> <Gold.PLP.part.buried>
-1.4757

> <Gold.PLP.part.nonpolar>
-24.0665

> <Gold.PLP.part.repulsive>
0.0461

> <Gold.PLP.ligand.clash>
0.0000

> <Gold.PLP.ligand.torsion>
1.3053

> <Gold.PLP.Chemscore.Hbond>
0.0000

> <Gold.PLP.Chemscore.CHOScore>
0.0000

> <Gold.PLP.Chemscore.Metal>
0.0000

> <Gold.PLP.Chemscore.Internal.Correction>
2.0537

