#       Name:                EN300-81521_i001
#       Creating user name   aseyller
#       Creation time:       Fri Apr 21 17:29:29 2023


#       File generated by GOLD software.
#

@<TRIPOS>MOLECULE
EN300-81521_i001|Sulfonylchlorides|mol2|276|dock14
    17    17     1
SMALL
USER_CHARGES


@<TRIPOS>ATOM
      1 C1          31.4910  35.7988  38.5294 C.3            1 <1>                0.0000
      2 N2          30.5324  36.8331  38.1323 N.pl3          1 <1>                0.0000
      3 C3          29.3478  37.0888  38.9554 C.3            1 <1>                0.0000
      4 C4          28.3370  35.9509  39.1116 C.3            1 <1>                0.0000
      5 C5          29.2372  36.3412  40.2857 C.3            1 <1>                0.0000
      6 S6          30.7879  37.7130  36.7529 S.o2           1 <1>                0.0000
      7 O7          32.1919  37.9103  36.6570 O.2            1 <1>                0.0000
      8 O8          30.0188  37.0915  35.7323 O.2            1 <1>                0.0000
      9 Cl9         29.9744  39.5382  37.0486 Cl             1 <1>                0.0000
     10 H10         31.2018  34.8460  38.0861 H              1 <1>                0.0000
     11 H11         32.4869  36.0738  38.1820 H              1 <1>                0.0000
     12 H12         31.4974  35.7071  39.6155 H              1 <1>                0.0000
     13 H13         28.9583  38.1061  38.9156 H              1 <1>                0.0000
     14 H14         27.2826  36.2196  39.1750 H              1 <1>                0.0000
     15 H15         28.5534  35.0120  38.6020 H              1 <1>                0.0000
     16 H16         30.0457  35.6590  40.5485 H              1 <1>                0.0000
     17 H17         28.7749  36.8665  41.1214 H              1 <1>                0.0000
@<TRIPOS>BOND
    1    1    2 1     
    2    1   10 1     
    3    1   11 1     
    4    1   12 1     
    5    2    3 1     
    6    2    6 1     
    7    3    4 1     
    8    3    5 1     
    9    3   13 1     
   10    4    5 1     
   11    4   14 1     
   12    4   15 1     
   13    5   16 1     
   14    5   17 1     
   15    6    7 2     
   16    6    8 2     
   17    6    9 1     
@<TRIPOS>SUBSTRUCTURE
      1 ****           1
@<TRIPOS>COMMENT
> <Gold.Version>
2022.2.0

> <Gold.Id.Protein>
1qkm|1qkm_protein|mol2

> <Gold.Protein.RotatedTorsions>
[  496  491  490  487 ] final   72.52 input  -89.99 | X-H torsion

> <Gold.Protein.ActiveResidues>
 MET295  LEU298  THR299  LEU301  ALA302  GLU305  TRP335  MET336  LEU339  MET340 
 GLY342  LEU343  ARG346  PHE356  ILE373  ILE376  PHE377  LEU380  LYS471  GLY472 
 MET473  HIS475  LEU476  LEU477  ASN478  MET479  VAL484  VAL487 

> <Gold.Protein.RotatedAtoms>
   36.6599   33.1725   42.2079 H   0  0  0  0  0  0  0  0  0  0  0  0  # atno 496  bound_to 491 

> <Gold.Score>
     Score     S(PLP)   S(hbond)     S(cho)   S(metal)  DE(clash)   DE(tors)     intcor
     26.59     -27.01       0.00       0.00       0.00       0.00       1.23       2.05

> <Gold.PLP.Fitness>
26.5932

> <Gold.PLP.PLP>
-27.0064

> <Gold.PLP.part.hbond>
0.0000

> <Gold.PLP.part.metal>
0.0000

> <Gold.PLP.part.buried>
-1.8281

> <Gold.PLP.part.nonpolar>
-25.7386

> <Gold.PLP.part.repulsive>
0.0185

> <Gold.PLP.ligand.clash>
0.0000

> <Gold.PLP.ligand.torsion>
1.2335

> <Gold.PLP.Chemscore.Hbond>
0.0000

> <Gold.PLP.Chemscore.CHOScore>
0.0000

> <Gold.PLP.Chemscore.Metal>
0.0000

> <Gold.PLP.Chemscore.Internal.Correction>
2.0537

