#       Name:                EN300-81521_i001
#       Creating user name   aseyller
#       Creation time:       Fri Apr 21 17:29:28 2023


#       File generated by GOLD software.
#

@<TRIPOS>MOLECULE
EN300-81521_i001|Sulfonylchlorides|mol2|276|dock12
    17    17     1
SMALL
USER_CHARGES


@<TRIPOS>ATOM
      1 C1          30.0611  37.3370  38.4010 C.3            1 <1>                0.0000
      2 N2          31.1575  37.0119  37.4852 N.pl3          1 <1>                0.0000
      3 C3          32.2176  36.0936  37.9086 C.3            1 <1>                0.0000
      4 C4          31.8014  34.6876  38.3458 C.3            1 <1>                0.0000
      5 C5          32.5138  34.8931  37.0074 C.3            1 <1>                0.0000
      6 S6          31.1986  37.6825  35.9717 S.o2           1 <1>                0.0000
      7 O7          30.2163  37.0007  35.2039 O.2            1 <1>                0.0000
      8 O8          31.2003  39.0914  36.1570 O.2            1 <1>                0.0000
      9 Cl9         32.9865  37.2121  35.1576 Cl             1 <1>                0.0000
     10 H10         30.3303  38.2110  38.9942 H              1 <1>                0.0000
     11 H11         29.1597  37.5513  37.8268 H              1 <1>                0.0000
     12 H12         29.8777  36.4909  39.0631 H              1 <1>                0.0000
     13 H13         33.0587  36.5536  38.4272 H              1 <1>                0.0000
     14 H14         32.3690  34.2226  39.1517 H              1 <1>                0.0000
     15 H15         30.7389  34.4460  38.3185 H              1 <1>                0.0000
     16 H16         31.9198  34.7865  36.0996 H              1 <1>                0.0000
     17 H17         33.5499  34.5632  36.9328 H              1 <1>                0.0000
@<TRIPOS>BOND
    1    1    2 1     
    2    1   10 1     
    3    1   11 1     
    4    1   12 1     
    5    2    3 1     
    6    2    6 1     
    7    3    4 1     
    8    3    5 1     
    9    3   13 1     
   10    4    5 1     
   11    4   14 1     
   12    4   15 1     
   13    5   16 1     
   14    5   17 1     
   15    6    7 2     
   16    6    8 2     
   17    6    9 1     
@<TRIPOS>SUBSTRUCTURE
      1 ****           1
@<TRIPOS>COMMENT
> <Gold.Version>
2022.2.0

> <Gold.Id.Protein>
1qkm|1qkm_protein|mol2

> <Gold.Protein.RotatedTorsions>
[  496  491  490  487 ] final -104.61 input  -89.99 | X-H torsion

> <Gold.Protein.ActiveResidues>
 MET295  LEU298  THR299  LEU301  ALA302  GLU305  TRP335  MET336  LEU339  MET340 
 GLY342  LEU343  ARG346  PHE356  ILE373  ILE376  PHE377  LEU380  LYS471  GLY472 
 MET473  HIS475  LEU476  LEU477  ASN478  MET479  VAL484  VAL487 

> <Gold.Protein.RotatedAtoms>
   36.8918   34.5321   40.9219 H   0  0  0  0  0  0  0  0  0  0  0  0  # atno 496  bound_to 491 

> <Gold.Score>
     Score     S(PLP)   S(hbond)     S(cho)   S(metal)  DE(clash)   DE(tors)     intcor
     27.89     -28.44       0.00       0.00       0.00       0.00       1.30       2.05

> <Gold.PLP.Fitness>
27.8939

> <Gold.PLP.PLP>
-28.4411

> <Gold.PLP.part.hbond>
0.0000

> <Gold.PLP.part.metal>
0.0000

> <Gold.PLP.part.buried>
-2.4620

> <Gold.PLP.part.nonpolar>
-25.9442

> <Gold.PLP.part.repulsive>
0.0487

> <Gold.PLP.ligand.clash>
0.0000

> <Gold.PLP.ligand.torsion>
1.3004

> <Gold.PLP.Chemscore.Hbond>
0.0000

> <Gold.PLP.Chemscore.CHOScore>
0.0000

> <Gold.PLP.Chemscore.Metal>
0.0000

> <Gold.PLP.Chemscore.Internal.Correction>
2.0537

