#       Name:                EN300-81521_i001
#       Creating user name   aseyller
#       Creation time:       Fri Apr 21 17:29:25 2023


#       File generated by GOLD software.
#

@<TRIPOS>MOLECULE
EN300-81521_i001|Sulfonylchlorides|mol2|276|dock5
    17    17     1
SMALL
USER_CHARGES


@<TRIPOS>ATOM
      1 C1          28.7703  36.2182  41.7836 C.3            1 <1>                0.0000
      2 N2          28.0493  36.2782  40.5097 N.pl3          1 <1>                0.0000
      3 C3          26.5901  36.1496  40.4871 C.3            1 <1>                0.0000
      4 C4          25.7874  37.0423  41.4356 C.3            1 <1>                0.0000
      5 C5          25.7857  37.3269  39.9322 C.3            1 <1>                0.0000
      6 S6          28.8837  36.4914  39.0953 S.o2           1 <1>                0.0000
      7 O7          27.9214  36.4444  38.0507 O.2            1 <1>                0.0000
      8 O8          29.7510  37.5976  39.3038 O.2            1 <1>                0.0000
      9 Cl9         30.0698  34.8747  38.8512 Cl             1 <1>                0.0000
     10 H10         29.0405  35.1845  41.9998 H              1 <1>                0.0000
     11 H11         29.6742  36.8239  41.7184 H              1 <1>                0.0000
     12 H12         28.1328  36.6013  42.5803 H              1 <1>                0.0000
     13 H13         26.2095  35.1459  40.2978 H              1 <1>                0.0000
     14 H14         24.8785  36.6260  41.8699 H              1 <1>                0.0000
     15 H15         26.3449  37.7253  42.0764 H              1 <1>                0.0000
     16 H16         26.3421  38.1971  39.5841 H              1 <1>                0.0000
     17 H17         24.8757  37.0978  39.3776 H              1 <1>                0.0000
@<TRIPOS>BOND
    1    1    2 1     
    2    1   10 1     
    3    1   11 1     
    4    1   12 1     
    5    2    3 1     
    6    2    6 1     
    7    3    4 1     
    8    3    5 1     
    9    3   13 1     
   10    4    5 1     
   11    4   14 1     
   12    4   15 1     
   13    5   16 1     
   14    5   17 1     
   15    6    7 2     
   16    6    8 2     
   17    6    9 1     
@<TRIPOS>SUBSTRUCTURE
      1 ****           1
@<TRIPOS>COMMENT
> <Gold.Version>
2022.2.0

> <Gold.Id.Protein>
1qkm|1qkm_protein|mol2

> <Gold.Protein.RotatedTorsions>
[  496  491  490  487 ] final   99.42 input  -89.99 | X-H torsion

> <Gold.Protein.ActiveResidues>
 MET295  LEU298  THR299  LEU301  ALA302  GLU305  TRP335  MET336  LEU339  MET340 
 GLY342  LEU343  ARG346  PHE356  ILE373  ILE376  PHE377  LEU380  LYS471  GLY472 
 MET473  HIS475  LEU476  LEU477  ASN478  MET479  VAL484  VAL487 

> <Gold.Protein.RotatedAtoms>
   36.9064   32.9714   41.9059 H   0  0  0  0  0  0  0  0  0  0  0  0  # atno 496  bound_to 491 

> <Gold.Score>
     Score     S(PLP)   S(hbond)     S(cho)   S(metal)  DE(clash)   DE(tors)     intcor
     32.44     -32.64       0.00       0.00       0.00       0.00       1.13       2.05

> <Gold.PLP.Fitness>
32.4370

> <Gold.PLP.PLP>
-32.6397

> <Gold.PLP.part.hbond>
0.0000

> <Gold.PLP.part.metal>
0.0000

> <Gold.PLP.part.buried>
-1.7812

> <Gold.PLP.part.nonpolar>
-31.8447

> <Gold.PLP.part.repulsive>
0.0380

> <Gold.PLP.ligand.clash>
0.0000

> <Gold.PLP.ligand.torsion>
1.1283

> <Gold.PLP.Chemscore.Hbond>
0.0000

> <Gold.PLP.Chemscore.CHOScore>
0.0000

> <Gold.PLP.Chemscore.Metal>
0.0000

> <Gold.PLP.Chemscore.Internal.Correction>
2.0540

