#       Name:                EN300-81521_i001
#       Creating user name   aseyller
#       Creation time:       Fri Apr 21 17:29:32 2023


#       File generated by GOLD software.
#

@<TRIPOS>MOLECULE
EN300-81521_i001|Sulfonylchlorides|mol2|276|dock19
    17    17     1
SMALL
USER_CHARGES


@<TRIPOS>ATOM
      1 C1          30.3714  37.6484  37.6564 C.3            1 <1>                0.0000
      2 N2          30.3063  36.4902  38.5512 N.pl3          1 <1>                0.0000
      3 C3          31.5026  35.6778  38.7859 C.3            1 <1>                0.0000
      4 C4          31.4007  34.1754  38.5147 C.3            1 <1>                0.0000
      5 C5          32.1962  35.0722  37.5639 C.3            1 <1>                0.0000
      6 S6          28.8805  36.0993  39.2971 S.o2           1 <1>                0.0000
      7 O7          28.6892  34.7062  39.0920 O.2            1 <1>                0.0000
      8 O8          28.9250  36.6962  40.5858 O.2            1 <1>                0.0000
      9 Cl9         27.4013  37.0329  38.2867 Cl             1 <1>                0.0000
     10 H10         30.1360  37.3354  36.6392 H              1 <1>                0.0000
     11 H11         29.6512  38.3994  37.9812 H              1 <1>                0.0000
     12 H12         31.3752  38.0722  37.6830 H              1 <1>                0.0000
     13 H13         32.1329  35.9979  39.6156 H              1 <1>                0.0000
     14 H14         31.9643  33.5072  39.1657 H              1 <1>                0.0000
     15 H15         30.4436  33.7915  38.1617 H              1 <1>                0.0000
     16 H16         31.7624  35.2782  36.5854 H              1 <1>                0.0000
     17 H17         33.2830  34.9939  37.5894 H              1 <1>                0.0000
@<TRIPOS>BOND
    1    1    2 1     
    2    1   10 1     
    3    1   11 1     
    4    1   12 1     
    5    2    3 1     
    6    2    6 1     
    7    3    4 1     
    8    3    5 1     
    9    3   13 1     
   10    4    5 1     
   11    4   14 1     
   12    4   15 1     
   13    5   16 1     
   14    5   17 1     
   15    6    7 2     
   16    6    8 2     
   17    6    9 1     
@<TRIPOS>SUBSTRUCTURE
      1 ****           1
@<TRIPOS>COMMENT
> <Gold.Version>
2022.2.0

> <Gold.Id.Protein>
1qkm|1qkm_protein|mol2

> <Gold.Protein.RotatedTorsions>
[  496  491  490  487 ] final  129.02 input  -89.99 | X-H torsion

> <Gold.Protein.ActiveResidues>
 MET295  LEU298  THR299  LEU301  ALA302  GLU305  TRP335  MET336  LEU339  MET340 
 GLY342  LEU343  ARG346  PHE356  ILE373  ILE376  PHE377  LEU380  LYS471  GLY472 
 MET473  HIS475  LEU476  LEU477  ASN478  MET479  VAL484  VAL487 

> <Gold.Protein.RotatedAtoms>
   37.1463   32.9672   41.4879 H   0  0  0  0  0  0  0  0  0  0  0  0  # atno 496  bound_to 491 

> <Gold.Score>
     Score     S(PLP)   S(hbond)     S(cho)   S(metal)  DE(clash)   DE(tors)     intcor
     28.97     -29.46       0.00       0.00       0.00       0.00       1.27       2.05

> <Gold.PLP.Fitness>
28.9670

> <Gold.PLP.PLP>
-29.4599

> <Gold.PLP.part.hbond>
0.0000

> <Gold.PLP.part.metal>
0.0000

> <Gold.PLP.part.buried>
-2.8177

> <Gold.PLP.part.nonpolar>
-27.0569

> <Gold.PLP.part.repulsive>
0.1135

> <Gold.PLP.ligand.clash>
0.0000

> <Gold.PLP.ligand.torsion>
1.2733

> <Gold.PLP.Chemscore.Hbond>
0.0000

> <Gold.PLP.Chemscore.CHOScore>
0.0000

> <Gold.PLP.Chemscore.Metal>
0.0000

> <Gold.PLP.Chemscore.Internal.Correction>
2.0537

