#       Name:                plp ligand
#       Creating user name   aseyller
#       Creation time:       Fri Apr 21 17:29:23 2023


#       File generated by GOLD software.
#

@<TRIPOS>MOLECULE
plp ligand
    17    17     1
SMALL
USER_CHARGES


@<TRIPOS>ATOM
      1 C1          -0.2363  -1.1367   1.1457 NONPOLAR       1 <1>                0.0000
      2 N2          -0.5798  -0.3445  -0.0378 NONPOLAR       1 <1>                0.0000
      3 C3           0.4699   0.3617  -0.7765 NONPOLAR       1 <1>                0.0000
      4 C4           1.2822   1.4133  -0.0180 NONPOLAR       1 <1>                0.0000
      5 C5           1.9219   0.0739  -0.3893 NONPOLAR       1 <1>                0.0000
      6 S6          -2.1546  -0.2471  -0.5405 NONPOLAR       1 <1>                0.0000
      7 O7          -2.1150   0.0763  -1.9237 ACCEPTOR       1 <1>                0.0000
      8 O8          -2.8107  -1.3997  -0.0303 ACCEPTOR       1 <1>                0.0000
      9 Cl9         -2.9832   1.3411   0.3930 NONPOLAR       1 <1>                0.0000
     10 H10         -0.2896  -0.5060   2.0331                1 <1>                0.0000
     11 H11         -0.9388  -1.9642   1.2454                1 <1>                0.0000
     12 H12          0.7749  -1.5293   1.0392                1 <1>                0.0000
     13 H13          0.2576   0.5522  -1.8285                1 <1>                0.0000
     14 H14          1.6046   2.2954  -0.5711                1 <1>                0.0000
     15 H15          1.0356   1.5797   1.0306                1 <1>                0.0000
     16 H16          2.0961  -0.6408   0.4151                1 <1>                0.0000
     17 H17          2.6651   0.0749  -1.1866                1 <1>                0.0000
@<TRIPOS>BOND
    1    1    2 1     
    2    1   10 1     
    3    1   11 1     
    4    1   12 1     
    5    2    3 1     
    6    2    6 1     
    7    3    4 1     
    8    3    5 1     
    9    3   13 1     
   10    4    5 1     
   11    4   14 1     
   12    4   15 1     
   13    5   16 1     
   14    5   17 1     
   15    6    7 2     
   16    6    8 2     
   17    6    9 1     
@<TRIPOS>SUBSTRUCTURE
      1 ****           1
@<TRIPOS>SET
DONOR_HYDROGENS      STATIC     ATOMS    <user>   **** ""
0
ATOM$RED        STATIC     ATOMS    COLORGROUP SYSTEM
0
