#       Name:                EN300-120148_i001
#       Creating user name   aseyller
#       Creation time:       Fri Apr 21 19:48:05 2023


#       File generated by GOLD software.
#

@<TRIPOS>MOLECULE
EN300-120148_i001|Sulfonylchlorides|mol2|910|dock7
    32    32     1
SMALL
USER_CHARGES


@<TRIPOS>ATOM
      1 C1          26.2071  36.4593  40.7908 C.3            1 <1>                0.0000
      2 C2          26.5680  36.7003  39.3238 C.3            1 <1>                0.0000
      3 C3          26.1923  35.4689  38.4972 C.3            1 <1>                0.0000
      4 C4          25.8009  37.9175  38.8031 C.3            1 <1>                0.0000
      5 C5          28.0717  36.9558  39.2037 C.3            1 <1>                0.0000
      6 C6          28.8378  35.7033  39.6357 C.3            1 <1>                0.0000
      7 C7          30.3430  35.9742  39.5472 C.3            1 <1>                0.0000
      8 N8          30.6610  36.4379  38.1898 N.pl3          1 <1>                0.0000
      9 C9          29.9179  37.5806  37.6415 C.3            1 <1>                0.0000
     10 C10         28.4176  37.2917  37.7512 C.3            1 <1>                0.0000
     11 S11         31.8350  35.6871  37.2953 S.o2           1 <1>                0.0000
     12 O12         31.8167  34.3185  37.6772 O.2            1 <1>                0.0000
     13 O13         31.6575  36.1222  35.9542 O.2            1 <1>                0.0000
     14 Cl14        33.6142  36.4252  37.9037 Cl             1 <1>                0.0000
     15 H15         26.7536  35.5923  41.1617 H              1 <1>                0.0000
     16 H16         26.4748  37.3366  41.3798 H              1 <1>                0.0000
     17 H17         25.1359  36.2774  40.8764 H              1 <1>                0.0000
     18 H18         25.1211  35.2869  38.5826 H              1 <1>                0.0000
     19 H19         26.4495  35.6406  37.4519 H              1 <1>                0.0000
     20 H20         26.7389  34.6018  38.8680 H              1 <1>                0.0000
     21 H21         26.0685  38.7948  39.3920 H              1 <1>                0.0000
     22 H22         26.0580  38.0892  37.7579 H              1 <1>                0.0000
     23 H23         24.7296  37.7355  38.8886 H              1 <1>                0.0000
     24 H24         28.3505  37.7914  39.8458 H              1 <1>                0.0000
     25 H25         28.5732  35.4511  40.6626 H              1 <1>                0.0000
     26 H26         28.5782  34.8733  38.9784 H              1 <1>                0.0000
     27 H27         30.6190  36.7421  40.2698 H              1 <1>                0.0000
     28 H28         30.8924  35.0567  39.7581 H              1 <1>                0.0000
     29 H29         30.1594  38.4797  38.2086 H              1 <1>                0.0000
     30 H30         30.1870  37.7231  36.5948 H              1 <1>                0.0000
     31 H31         28.1620  36.4469  37.1117 H              1 <1>                0.0000
     32 H32         27.8539  38.1701  37.4369 H              1 <1>                0.0000
@<TRIPOS>BOND
    1    1    2 1     
    2    1   15 1     
    3    1   16 1     
    4    1   17 1     
    5    2    3 1     
    6    2    4 1     
    7    2    5 1     
    8    3   18 1     
    9    3   19 1     
   10    3   20 1     
   11    4   21 1     
   12    4   22 1     
   13    4   23 1     
   14    5    6 1     
   15    5   10 1     
   16    5   24 1     
   17    6    7 1     
   18    6   25 1     
   19    6   26 1     
   20    7    8 1     
   21    7   27 1     
   22    7   28 1     
   23    8    9 1     
   24    8   11 1     
   25    9   10 1     
   26    9   29 1     
   27    9   30 1     
   28   10   31 1     
   29   10   32 1     
   30   11   12 2     
   31   11   13 2     
   32   11   14 1     
@<TRIPOS>SUBSTRUCTURE
      1 ****           1
@<TRIPOS>COMMENT
> <Gold.Version>
2022.2.0

> <Gold.Id.Protein>
1qkm|1qkm_protein|mol2

> <Gold.Protein.RotatedTorsions>
[  496  491  490  487 ] final  102.19 input  -89.99 | X-H torsion

> <Gold.Protein.ActiveResidues>
 MET295  LEU298  THR299  LEU301  ALA302  GLU305  TRP335  MET336  LEU339  MET340 
 GLY342  LEU343  ARG346  PHE356  ILE373  ILE376  PHE377  LEU380  LYS471  GLY472 
 MET473  HIS475  LEU476  LEU477  ASN478  MET479  VAL484  VAL487 

> <Gold.Protein.RotatedAtoms>
   36.9312   32.9610   41.8691 H   0  0  0  0  0  0  0  0  0  0  0  0  # atno 496  bound_to 491 

> <Gold.Score>
     Score     S(PLP)   S(hbond)     S(cho)   S(metal)  DE(clash)   DE(tors)     intcor
     41.36     -41.42       0.00       0.00       0.00       0.00       1.02       1.98

> <Gold.PLP.Fitness>
41.3621

> <Gold.PLP.PLP>
-41.4192

> <Gold.PLP.part.hbond>
0.0000

> <Gold.PLP.part.metal>
0.0000

> <Gold.PLP.part.buried>
-2.5183

> <Gold.PLP.part.nonpolar>
-39.1587

> <Gold.PLP.part.repulsive>
0.0740

> <Gold.PLP.ligand.clash>
0.0000

> <Gold.PLP.ligand.torsion>
1.0178

> <Gold.PLP.Chemscore.Hbond>
0.0000

> <Gold.PLP.Chemscore.CHOScore>
0.0000

> <Gold.PLP.Chemscore.Metal>
0.0000

> <Gold.PLP.Chemscore.Internal.Correction>
1.9786

