#       Name:                EN300-120148_i001
#       Creating user name   aseyller
#       Creation time:       Fri Apr 21 19:48:14 2023


#       File generated by GOLD software.
#

@<TRIPOS>MOLECULE
EN300-120148_i001|Sulfonylchlorides|mol2|910|dock17
    32    32     1
SMALL
USER_CHARGES


@<TRIPOS>ATOM
      1 C1          27.6221  34.7382  39.3427 C.3            1 <1>                0.0000
      2 C2          27.8819  36.0050  40.1602 C.3            1 <1>                0.0000
      3 C3          26.5662  36.7582  40.3658 C.3            1 <1>                0.0000
      4 C4          28.4687  35.6228  41.5206 C.3            1 <1>                0.0000
      5 C5          28.8710  36.9010  39.4119 C.3            1 <1>                0.0000
      6 C6          30.1468  36.1114  39.1103 C.3            1 <1>                0.0000
      7 C7          31.1480  37.0215  38.3918 C.3            1 <1>                0.0000
      8 N8          30.4986  37.5952  37.2053 N.pl3          1 <1>                0.0000
      9 C9          29.2190  38.2979  37.3706 C.3            1 <1>                0.0000
     10 C10         28.2394  37.3735  38.1004 C.3            1 <1>                0.0000
     11 S11         31.1960  37.4527  35.7101 S.o2           1 <1>                0.0000
     12 O12         32.5479  37.0751  35.9323 O.2            1 <1>                0.0000
     13 O13         30.2960  36.6895  34.9184 O.2            1 <1>                0.0000
     14 Cl14        31.2466  39.3004  34.8953 Cl             1 <1>                0.0000
     15 H15         27.2041  35.0105  38.3736 H              1 <1>                0.0000
     16 H16         28.5595  34.2016  39.1962 H              1 <1>                0.0000
     17 H17         26.9175  34.0999  39.8758 H              1 <1>                0.0000
     18 H18         25.8616  36.1200  40.8989 H              1 <1>                0.0000
     19 H19         26.7513  37.6608  40.9482 H              1 <1>                0.0000
     20 H20         26.1482  37.0306  39.3967 H              1 <1>                0.0000
     21 H21         29.4060  35.0861  41.3741 H              1 <1>                0.0000
     22 H22         28.6539  36.5253  42.1030 H              1 <1>                0.0000
     23 H23         27.7641  34.9844  42.0537 H              1 <1>                0.0000
     24 H24         29.1163  37.7655  40.0288 H              1 <1>                0.0000
     25 H25         30.5834  35.7552  40.0434 H              1 <1>                0.0000
     26 H26         29.9060  35.2606  38.4727 H              1 <1>                0.0000
     27 H27         31.4590  37.8231  39.0617 H              1 <1>                0.0000
     28 H28         32.0176  36.4393  38.0869 H              1 <1>                0.0000
     29 H29         29.3726  39.2037  37.9571 H              1 <1>                0.0000
     30 H30         28.8158  38.5579  36.3918 H              1 <1>                0.0000
     31 H31         28.0165  36.5110  37.4724 H              1 <1>                0.0000
     32 H32         27.3185  37.9158  38.3147 H              1 <1>                0.0000
@<TRIPOS>BOND
    1    1    2 1     
    2    1   15 1     
    3    1   16 1     
    4    1   17 1     
    5    2    3 1     
    6    2    4 1     
    7    2    5 1     
    8    3   18 1     
    9    3   19 1     
   10    3   20 1     
   11    4   21 1     
   12    4   22 1     
   13    4   23 1     
   14    5    6 1     
   15    5   10 1     
   16    5   24 1     
   17    6    7 1     
   18    6   25 1     
   19    6   26 1     
   20    7    8 1     
   21    7   27 1     
   22    7   28 1     
   23    8    9 1     
   24    8   11 1     
   25    9   10 1     
   26    9   29 1     
   27    9   30 1     
   28   10   31 1     
   29   10   32 1     
   30   11   12 2     
   31   11   13 2     
   32   11   14 1     
@<TRIPOS>SUBSTRUCTURE
      1 ****           1
@<TRIPOS>COMMENT
> <Gold.Version>
2022.2.0

> <Gold.Id.Protein>
1qkm|1qkm_protein|mol2

> <Gold.Protein.RotatedTorsions>
[  496  491  490  487 ] final  -83.56 input  -89.99 | X-H torsion

> <Gold.Protein.ActiveResidues>
 MET295  LEU298  THR299  LEU301  ALA302  GLU305  TRP335  MET336  LEU339  MET340 
 GLY342  LEU343  ARG346  PHE356  ILE373  ILE376  PHE377  LEU380  LYS471  GLY472 
 MET473  HIS475  LEU476  LEU477  ASN478  MET479  VAL484  VAL487 

> <Gold.Protein.RotatedAtoms>
   36.6981   34.6904   41.1590 H   0  0  0  0  0  0  0  0  0  0  0  0  # atno 496  bound_to 491 

> <Gold.Score>
     Score     S(PLP)   S(hbond)     S(cho)   S(metal)  DE(clash)   DE(tors)     intcor
     38.28     -38.56       0.00       0.00       0.00       0.00       1.13       1.98

> <Gold.PLP.Fitness>
38.2789

> <Gold.PLP.PLP>
-38.5585

> <Gold.PLP.part.hbond>
0.0000

> <Gold.PLP.part.metal>
0.0000

> <Gold.PLP.part.buried>
-2.9277

> <Gold.PLP.part.nonpolar>
-36.5869

> <Gold.PLP.part.repulsive>
0.1217

> <Gold.PLP.ligand.clash>
0.0000

> <Gold.PLP.ligand.torsion>
1.1291

> <Gold.PLP.Chemscore.Hbond>
0.0000

> <Gold.PLP.Chemscore.CHOScore>
0.0000

> <Gold.PLP.Chemscore.Metal>
0.0000

> <Gold.PLP.Chemscore.Internal.Correction>
1.9786

