#       Name:                EN300-120148_i001
#       Creating user name   aseyller
#       Creation time:       Fri Apr 21 19:48:08 2023


#       File generated by GOLD software.
#

@<TRIPOS>MOLECULE
EN300-120148_i001|Sulfonylchlorides|mol2|910|dock10
    32    32     1
SMALL
USER_CHARGES


@<TRIPOS>ATOM
      1 C1          33.6424  36.0008  37.0429 C.3            1 <1>                0.0000
      2 C2          32.4087  36.6136  36.3773 C.3            1 <1>                0.0000
      3 C3          32.8318  37.8092  35.5215 C.3            1 <1>                0.0000
      4 C4          31.7337  35.5652  35.4906 C.3            1 <1>                0.0000
      5 C5          31.4266  37.0793  37.4542 C.3            1 <1>                0.0000
      6 C6          30.1663  37.6363  36.7883 C.3            1 <1>                0.0000
      7 C7          29.2001  38.1333  37.8683 C.3            1 <1>                0.0000
      8 N8          28.9484  37.0400  38.8170 N.pl3          1 <1>                0.0000
      9 C9          30.0960  36.3729  39.4466 C.3            1 <1>                0.0000
     10 C10         31.0521  35.8956  38.3491 C.3            1 <1>                0.0000
     11 S11         27.4006  36.5690  39.1701 S.o2           1 <1>                0.0000
     12 O12         26.5459  37.5799  38.6535 O.2            1 <1>                0.0000
     13 O13         27.3018  35.2018  38.7958 O.2            1 <1>                0.0000
     14 Cl14        27.2019  36.6261  41.1795 Cl             1 <1>                0.0000
     15 H15         34.1233  36.7477  37.6745 H              1 <1>                0.0000
     16 H16         33.3411  35.1490  37.6526 H              1 <1>                0.0000
     17 H17         34.3421  35.6690  36.2757 H              1 <1>                0.0000
     18 H18         33.5313  37.4775  34.7543 H              1 <1>                0.0000
     19 H19         31.9527  38.2458  35.0474 H              1 <1>                0.0000
     20 H20         33.3126  38.5561  36.1532 H              1 <1>                0.0000
     21 H21         31.4323  34.7134  36.1004 H              1 <1>                0.0000
     22 H22         30.8547  36.0018  35.0166 H              1 <1>                0.0000
     23 H23         32.4333  35.2334  34.7235 H              1 <1>                0.0000
     24 H24         31.8925  37.8579  38.0583 H              1 <1>                0.0000
     25 H25         30.4367  38.4644  36.1331 H              1 <1>                0.0000
     26 H26         29.6862  36.8512  36.2040 H              1 <1>                0.0000
     27 H27         29.6436  38.9787  38.3942 H              1 <1>                0.0000
     28 H28         28.2616  38.4394  37.4061 H              1 <1>                0.0000
     29 H29         30.6126  37.0747  40.1015 H              1 <1>                0.0000
     30 H30         29.7486  35.5173  40.0260 H              1 <1>                0.0000
     31 H31         30.5638  35.1269  37.7501 H              1 <1>                0.0000
     32 H32         31.9531  35.4847  38.8047 H              1 <1>                0.0000
@<TRIPOS>BOND
    1    1    2 1     
    2    1   15 1     
    3    1   16 1     
    4    1   17 1     
    5    2    3 1     
    6    2    4 1     
    7    2    5 1     
    8    3   18 1     
    9    3   19 1     
   10    3   20 1     
   11    4   21 1     
   12    4   22 1     
   13    4   23 1     
   14    5    6 1     
   15    5   10 1     
   16    5   24 1     
   17    6    7 1     
   18    6   25 1     
   19    6   26 1     
   20    7    8 1     
   21    7   27 1     
   22    7   28 1     
   23    8    9 1     
   24    8   11 1     
   25    9   10 1     
   26    9   29 1     
   27    9   30 1     
   28   10   31 1     
   29   10   32 1     
   30   11   12 2     
   31   11   13 2     
   32   11   14 1     
@<TRIPOS>SUBSTRUCTURE
      1 ****           1
@<TRIPOS>COMMENT
> <Gold.Version>
2022.2.0

> <Gold.Id.Protein>
1qkm|1qkm_protein|mol2

> <Gold.Protein.RotatedTorsions>
[  496  491  490  487 ] final  121.74 input  -89.99 | X-H torsion

> <Gold.Protein.ActiveResidues>
 MET295  LEU298  THR299  LEU301  ALA302  GLU305  TRP335  MET336  LEU339  MET340 
 GLY342  LEU343  ARG346  PHE356  ILE373  ILE376  PHE377  LEU380  LYS471  GLY472 
 MET473  HIS475  LEU476  LEU477  ASN478  MET479  VAL484  VAL487 

> <Gold.Protein.RotatedAtoms>
   37.0939   32.9462   41.5935 H   0  0  0  0  0  0  0  0  0  0  0  0  # atno 496  bound_to 491 

> <Gold.Score>
     Score     S(PLP)   S(hbond)     S(cho)   S(metal)  DE(clash)   DE(tors)     intcor
     39.49     -39.70       0.00       0.00       0.00       0.00       1.10       1.98

> <Gold.PLP.Fitness>
39.4932

> <Gold.PLP.PLP>
-39.7046

> <Gold.PLP.part.hbond>
0.0000

> <Gold.PLP.part.metal>
0.0000

> <Gold.PLP.part.buried>
-3.0575

> <Gold.PLP.part.nonpolar>
-37.2119

> <Gold.PLP.part.repulsive>
0.0360

> <Gold.PLP.ligand.clash>
0.0000

> <Gold.PLP.ligand.torsion>
1.0950

> <Gold.PLP.Chemscore.Hbond>
0.0000

> <Gold.PLP.Chemscore.CHOScore>
0.0000

> <Gold.PLP.Chemscore.Metal>
0.0000

> <Gold.PLP.Chemscore.Internal.Correction>
1.9786

