#       Name:                EN300-120148_i001
#       Creating user name   aseyller
#       Creation time:       Fri Apr 21 19:48:06 2023


#       File generated by GOLD software.
#

@<TRIPOS>MOLECULE
EN300-120148_i001|Sulfonylchlorides|mol2|910|dock8
    32    32     1
SMALL
USER_CHARGES


@<TRIPOS>ATOM
      1 C1          26.5509  35.3996  38.2543 C.3            1 <1>                0.0000
      2 C2          26.8298  36.4687  39.3125 C.3            1 <1>                0.0000
      3 C3          25.6539  37.4455  39.3731 C.3            1 <1>                0.0000
      4 C4          27.0089  35.8010  40.6775 C.3            1 <1>                0.0000
      5 C5          28.1059  37.2289  38.9454 C.3            1 <1>                0.0000
      6 C6          29.2620  36.2385  38.7880 C.3            1 <1>                0.0000
      7 C7          30.5450  37.0063  38.4546 C.3            1 <1>                0.0000
      8 N8          30.3017  37.8427  37.2715 N.pl3          1 <1>                0.0000
      9 C9          29.1592  38.7664  37.2823 C.3            1 <1>                0.0000
     10 C10         27.8917  37.9790  37.6288 C.3            1 <1>                0.0000
     11 S11         31.2966  37.7465  35.9512 S.o2           1 <1>                0.0000
     12 O12         32.6273  37.7614  36.4495 O.2            1 <1>                0.0000
     13 O13         30.7832  36.7010  35.1372 O.2            1 <1>                0.0000
     14 Cl14        31.0621  39.4554  34.8999 Cl             1 <1>                0.0000
     15 H15         26.4233  35.8753  37.2820 H              1 <1>                0.0000
     16 H16         27.3887  34.7037  38.2112 H              1 <1>                0.0000
     17 H17         25.6419  34.8580  38.5158 H              1 <1>                0.0000
     18 H18         24.7448  36.9040  39.6346 H              1 <1>                0.0000
     19 H19         25.8527  38.2073  40.1270 H              1 <1>                0.0000
     20 H20         25.5263  37.9213  38.4007 H              1 <1>                0.0000
     21 H21         27.8467  35.1050  40.6343 H              1 <1>                0.0000
     22 H22         27.2077  36.5627  41.4313 H              1 <1>                0.0000
     23 H23         26.0999  35.2594  40.9389 H              1 <1>                0.0000
     24 H24         28.3436  37.9420  39.7349 H              1 <1>                0.0000
     25 H25         29.3988  35.6881  39.7189 H              1 <1>                0.0000
     26 H26         29.0358  35.5405  37.9819 H              1 <1>                0.0000
     27 H27         30.8223  37.6383  39.2982 H              1 <1>                0.0000
     28 H28         31.3488  36.3007  38.2442 H              1 <1>                0.0000
     29 H29         29.3235  39.5421  38.0303 H              1 <1>                0.0000
     30 H30         29.0487  39.2223  36.2983 H              1 <1>                0.0000
     31 H31         27.6784  37.2646  36.8336 H              1 <1>                0.0000
     32 H32         27.0532  38.6674  37.7345 H              1 <1>                0.0000
@<TRIPOS>BOND
    1    1    2 1     
    2    1   15 1     
    3    1   16 1     
    4    1   17 1     
    5    2    3 1     
    6    2    4 1     
    7    2    5 1     
    8    3   18 1     
    9    3   19 1     
   10    3   20 1     
   11    4   21 1     
   12    4   22 1     
   13    4   23 1     
   14    5    6 1     
   15    5   10 1     
   16    5   24 1     
   17    6    7 1     
   18    6   25 1     
   19    6   26 1     
   20    7    8 1     
   21    7   27 1     
   22    7   28 1     
   23    8    9 1     
   24    8   11 1     
   25    9   10 1     
   26    9   29 1     
   27    9   30 1     
   28   10   31 1     
   29   10   32 1     
   30   11   12 2     
   31   11   13 2     
   32   11   14 1     
@<TRIPOS>SUBSTRUCTURE
      1 ****           1
@<TRIPOS>COMMENT
> <Gold.Version>
2022.2.0

> <Gold.Id.Protein>
1qkm|1qkm_protein|mol2

> <Gold.Protein.RotatedTorsions>
[  496  491  490  487 ] final   59.85 input  -89.99 | X-H torsion

> <Gold.Protein.ActiveResidues>
 MET295  LEU298  THR299  LEU301  ALA302  GLU305  TRP335  MET336  LEU339  MET340 
 GLY342  LEU343  ARG346  PHE356  ILE373  ILE376  PHE377  LEU380  LYS471  GLY472 
 MET473  HIS475  LEU476  LEU477  ASN478  MET479  VAL484  VAL487 

> <Gold.Protein.RotatedAtoms>
   36.5503   33.3211   42.3040 H   0  0  0  0  0  0  0  0  0  0  0  0  # atno 496  bound_to 491 

> <Gold.Score>
     Score     S(PLP)   S(hbond)     S(cho)   S(metal)  DE(clash)   DE(tors)     intcor
     40.83     -41.35       0.00       0.00       0.00       0.00       1.25       1.98

> <Gold.PLP.Fitness>
40.8252

> <Gold.PLP.PLP>
-41.3512

> <Gold.PLP.part.hbond>
0.0000

> <Gold.PLP.part.metal>
0.0000

> <Gold.PLP.part.buried>
-2.8298

> <Gold.PLP.part.nonpolar>
-38.8231

> <Gold.PLP.part.repulsive>
0.0837

> <Gold.PLP.ligand.clash>
0.0000

> <Gold.PLP.ligand.torsion>
1.2523

> <Gold.PLP.Chemscore.Hbond>
0.0000

> <Gold.PLP.Chemscore.CHOScore>
0.0000

> <Gold.PLP.Chemscore.Metal>
0.0000

> <Gold.PLP.Chemscore.Internal.Correction>
1.9786

