#       Name:                EN300-120148_i001
#       Creating user name   aseyller
#       Creation time:       Fri Apr 21 19:48:08 2023


#       File generated by GOLD software.
#

@<TRIPOS>MOLECULE
EN300-120148_i001|Sulfonylchlorides|mol2|910|dock11
    32    32     1
SMALL
USER_CHARGES


@<TRIPOS>ATOM
      1 C1          33.5642  36.3185  37.9725 C.3            1 <1>                0.0000
      2 C2          32.2620  35.9816  37.2436 C.3            1 <1>                0.0000
      3 C3          32.4065  36.3199  35.7586 C.3            1 <1>                0.0000
      4 C4          31.9614  34.4895  37.3999 C.3            1 <1>                0.0000
      5 C5          31.1157  36.7983  37.8436 C.3            1 <1>                0.0000
      6 C6          29.9352  36.8118  36.8698 C.3            1 <1>                0.0000
      7 C7          28.8025  37.6589  37.4583 C.3            1 <1>                0.0000
      8 N8          28.4754  37.1471  38.7961 N.pl3          1 <1>                0.0000
      9 C9          29.5551  37.0078  39.7827 C.3            1 <1>                0.0000
     10 C10         30.6793  36.1681  39.1682 C.3            1 <1>                0.0000
     11 S11         26.9191  36.7356  39.1847 S.o2           1 <1>                0.0000
     12 O12         26.1002  37.8161  38.7590 O.2            1 <1>                0.0000
     13 O13         26.7346  35.3986  38.7403 O.2            1 <1>                0.0000
     14 Cl14        26.7985  36.6885  41.2005 Cl             1 <1>                0.0000
     15 H15         33.7784  37.3815  37.8612 H              1 <1>                0.0000
     16 H16         33.4613  36.0776  39.0306 H              1 <1>                0.0000
     17 H17         34.3809  35.7367  37.5452 H              1 <1>                0.0000
     18 H18         33.2231  35.7381  35.3311 H              1 <1>                0.0000
     19 H19         31.4786  36.0798  35.2392 H              1 <1>                0.0000
     20 H20         32.6206  37.3828  35.6473 H              1 <1>                0.0000
     21 H21         31.8585  34.2486  38.4579 H              1 <1>                0.0000
     22 H22         31.0336  34.2495  36.8807 H              1 <1>                0.0000
     23 H23         32.7780  33.9077  36.9725 H              1 <1>                0.0000
     24 H24         31.4517  37.8199  38.0210 H              1 <1>                0.0000
     25 H25         30.2529  37.2394  35.9187 H              1 <1>                0.0000
     26 H26         29.5826  35.7926  36.7112 H              1 <1>                0.0000
     27 H27         29.1240  38.6977  37.5329 H              1 <1>                0.0000
     28 H28         27.9242  37.5913  36.8164 H              1 <1>                0.0000
     29 H29         29.9381  37.9936  40.0470 H              1 <1>                0.0000
     30 H30         29.1733  36.5107  40.6745 H              1 <1>                0.0000
     31 H31         30.3198  35.1550  38.9880 H              1 <1>                0.0000
     32 H32         31.5267  36.1375  39.8531 H              1 <1>                0.0000
@<TRIPOS>BOND
    1    1    2 1     
    2    1   15 1     
    3    1   16 1     
    4    1   17 1     
    5    2    3 1     
    6    2    4 1     
    7    2    5 1     
    8    3   18 1     
    9    3   19 1     
   10    3   20 1     
   11    4   21 1     
   12    4   22 1     
   13    4   23 1     
   14    5    6 1     
   15    5   10 1     
   16    5   24 1     
   17    6    7 1     
   18    6   25 1     
   19    6   26 1     
   20    7    8 1     
   21    7   27 1     
   22    7   28 1     
   23    8    9 1     
   24    8   11 1     
   25    9   10 1     
   26    9   29 1     
   27    9   30 1     
   28   10   31 1     
   29   10   32 1     
   30   11   12 2     
   31   11   13 2     
   32   11   14 1     
@<TRIPOS>SUBSTRUCTURE
      1 ****           1
@<TRIPOS>COMMENT
> <Gold.Version>
2022.2.0

> <Gold.Id.Protein>
1qkm|1qkm_protein|mol2

> <Gold.Protein.RotatedTorsions>
[  496  491  490  487 ] final  -29.99 input  -89.99 | X-H torsion

> <Gold.Protein.ActiveResidues>
 MET295  LEU298  THR299  LEU301  ALA302  GLU305  TRP335  MET336  LEU339  MET340 
 GLY342  LEU343  ARG346  PHE356  ILE373  ILE376  PHE377  LEU380  LYS471  GLY472 
 MET473  HIS475  LEU476  LEU477  ASN478  MET479  VAL484  VAL487 

> <Gold.Protein.RotatedAtoms>
   36.3148   34.5710   41.9082 H   0  0  0  0  0  0  0  0  0  0  0  0  # atno 496  bound_to 491 

> <Gold.Score>
     Score     S(PLP)   S(hbond)     S(cho)   S(metal)  DE(clash)   DE(tors)     intcor
     39.25     -40.63       0.00       0.00       0.00       0.00       1.68       1.98

> <Gold.PLP.Fitness>
39.2484

> <Gold.PLP.PLP>
-40.6329

> <Gold.PLP.part.hbond>
0.0000

> <Gold.PLP.part.metal>
0.0000

> <Gold.PLP.part.buried>
-1.4876

> <Gold.PLP.part.nonpolar>
-39.5181

> <Gold.PLP.part.repulsive>
0.1032

> <Gold.PLP.ligand.clash>
0.0000

> <Gold.PLP.ligand.torsion>
1.6816

> <Gold.PLP.Chemscore.Hbond>
0.0000

> <Gold.PLP.Chemscore.CHOScore>
0.0000

> <Gold.PLP.Chemscore.Metal>
0.0000

> <Gold.PLP.Chemscore.Internal.Correction>
1.9786

