#       Name:                EN300-120148_i001
#       Creating user name   aseyller
#       Creation time:       Fri Apr 21 19:48:15 2023


#       File generated by GOLD software.
#

@<TRIPOS>MOLECULE
EN300-120148_i001|Sulfonylchlorides|mol2|910|dock18
    32    32     1
SMALL
USER_CHARGES


@<TRIPOS>ATOM
      1 C1          32.6924  37.9147  35.7118 C.3            1 <1>                0.0000
      2 C2          32.3402  36.6968  36.5681 C.3            1 <1>                0.0000
      3 C3          31.8011  35.5811  35.6708 C.3            1 <1>                0.0000
      4 C4          33.5931  36.2054  37.2960 C.3            1 <1>                0.0000
      5 C5          31.2740  37.0860  37.5942 C.3            1 <1>                0.0000
      6 C6          29.9677  37.4204  36.8703 C.3            1 <1>                0.0000
      7 C7          28.9129  37.8429  37.8978 C.3            1 <1>                0.0000
      8 N8          28.7883  36.7851  38.9099 N.pl3          1 <1>                0.0000
      9 C9          29.9992  36.3241  39.6026 C.3            1 <1>                0.0000
     10 C10         31.0418  35.9186  38.5561 C.3            1 <1>                0.0000
     11 S11         27.3111  36.1256  39.2634 S.o2           1 <1>                0.0000
     12 O12         27.0241  35.2026  38.2217 O.2            1 <1>                0.0000
     13 O13         27.3528  35.7601  40.6360 O.2            1 <1>                0.0000
     14 Cl14        25.9434  37.6041  39.1082 Cl             1 <1>                0.0000
     15 H15         31.7999  38.2648  35.1933 H              1 <1>                0.0000
     16 H16         33.0765  38.7097  36.3511 H              1 <1>                0.0000
     17 H17         33.4520  37.6375  34.9808 H              1 <1>                0.0000
     18 H18         32.5606  35.3038  34.9398 H              1 <1>                0.0000
     19 H19         31.5501  34.7134  36.2810 H              1 <1>                0.0000
     20 H20         30.9085  35.9311  35.1523 H              1 <1>                0.0000
     21 H21         33.9771  37.0004  37.9353 H              1 <1>                0.0000
     22 H22         33.3421  35.3378  37.9062 H              1 <1>                0.0000
     23 H23         34.3526  35.9282  36.5650 H              1 <1>                0.0000
     24 H24         31.6113  37.9573  38.1557 H              1 <1>                0.0000
     25 H25         30.1393  38.2365  36.1684 H              1 <1>                0.0000
     26 H26         29.6167  36.5419  36.3288 H              1 <1>                0.0000
     27 H27         29.2210  38.7724  38.3766 H              1 <1>                0.0000
     28 H28         27.9542  37.9865  37.3994 H              1 <1>                0.0000
     29 H29         30.3958  37.1296  40.2205 H              1 <1>                0.0000
     30 H30         29.7571  35.4654  40.2291 H              1 <1>                0.0000
     31 H31         30.6807  35.0543  37.9987 H              1 <1>                0.0000
     32 H32         31.9779  35.6657  39.0540 H              1 <1>                0.0000
@<TRIPOS>BOND
    1    1    2 1     
    2    1   15 1     
    3    1   16 1     
    4    1   17 1     
    5    2    3 1     
    6    2    4 1     
    7    2    5 1     
    8    3   18 1     
    9    3   19 1     
   10    3   20 1     
   11    4   21 1     
   12    4   22 1     
   13    4   23 1     
   14    5    6 1     
   15    5   10 1     
   16    5   24 1     
   17    6    7 1     
   18    6   25 1     
   19    6   26 1     
   20    7    8 1     
   21    7   27 1     
   22    7   28 1     
   23    8    9 1     
   24    8   11 1     
   25    9   10 1     
   26    9   29 1     
   27    9   30 1     
   28   10   31 1     
   29   10   32 1     
   30   11   12 2     
   31   11   13 2     
   32   11   14 1     
@<TRIPOS>SUBSTRUCTURE
      1 ****           1
@<TRIPOS>COMMENT
> <Gold.Version>
2022.2.0

> <Gold.Id.Protein>
1qkm|1qkm_protein|mol2

> <Gold.Protein.RotatedTorsions>
[  496  491  490  487 ] final   -0.72 input  -89.99 | X-H torsion

> <Gold.Protein.ActiveResidues>
 MET295  LEU298  THR299  LEU301  ALA302  GLU305  TRP335  MET336  LEU339  MET340 
 GLY342  LEU343  ARG346  PHE356  ILE373  ILE376  PHE377  LEU380  LYS471  GLY472 
 MET473  HIS475  LEU476  LEU477  ASN478  MET479  VAL484  VAL487 

> <Gold.Protein.RotatedAtoms>
   36.2594   34.2238   42.2301 H   0  0  0  0  0  0  0  0  0  0  0  0  # atno 496  bound_to 491 

> <Gold.Score>
     Score     S(PLP)   S(hbond)     S(cho)   S(metal)  DE(clash)   DE(tors)     intcor
     38.01     -38.51       0.00       0.00       0.00       0.00       1.24       1.98

> <Gold.PLP.Fitness>
38.0150

> <Gold.PLP.PLP>
-38.5130

> <Gold.PLP.part.hbond>
0.0000

> <Gold.PLP.part.metal>
0.0000

> <Gold.PLP.part.buried>
-0.4579

> <Gold.PLP.part.nonpolar>
-38.7824

> <Gold.PLP.part.repulsive>
0.1355

> <Gold.PLP.ligand.clash>
0.0000

> <Gold.PLP.ligand.torsion>
1.2383

> <Gold.PLP.Chemscore.Hbond>
0.0000

> <Gold.PLP.Chemscore.CHOScore>
0.0000

> <Gold.PLP.Chemscore.Metal>
0.0000

> <Gold.PLP.Chemscore.Internal.Correction>
1.9786

