#       Name:                EN300-120148_i001
#       Creating user name   aseyller
#       Creation time:       Fri Apr 21 19:48:12 2023


#       File generated by GOLD software.
#

@<TRIPOS>MOLECULE
EN300-120148_i001|Sulfonylchlorides|mol2|910|dock15
    32    32     1
SMALL
USER_CHARGES


@<TRIPOS>ATOM
      1 C1          27.8788  34.9416  39.2846 C.3            1 <1>                0.0000
      2 C2          28.0300  36.3156  39.9403 C.3            1 <1>                0.0000
      3 C3          26.6598  36.9898  40.0335 C.3            1 <1>                0.0000
      4 C4          28.6131  36.1491  41.3450 C.3            1 <1>                0.0000
      5 C5          28.9685  37.1821  39.0981 C.3            1 <1>                0.0000
      6 C6          30.2257  36.3820  38.7495 C.3            1 <1>                0.0000
      7 C7          31.1781  37.2638  37.9358 C.3            1 <1>                0.0000
      8 N8          30.4554  37.7902  36.7699 N.pl3          1 <1>                0.0000
      9 C9          29.1863  38.4982  36.9862 C.3            1 <1>                0.0000
     10 C10         28.2562  37.6026  37.8105 C.3            1 <1>                0.0000
     11 S11         31.0599  37.5896  35.2414 S.o2           1 <1>                0.0000
     12 O12         31.0832  36.1895  34.9996 O.2            1 <1>                0.0000
     13 O13         30.3654  38.5102  34.4111 O.2            1 <1>                0.0000
     14 Cl14        32.9869  38.1944  35.2763 Cl             1 <1>                0.0000
     15 H15         27.4635  35.0602  38.2839 H              1 <1>                0.0000
     16 H16         28.8550  34.4613  39.2182 H              1 <1>                0.0000
     17 H17         27.2103  34.3243  39.8846 H              1 <1>                0.0000
     18 H18         25.9912  36.3726  40.6335 H              1 <1>                0.0000
     19 H19         26.7676  37.9688  40.5006 H              1 <1>                0.0000
     20 H20         26.2445  37.1085  39.0327 H              1 <1>                0.0000
     21 H21         29.5893  35.6688  41.2786 H              1 <1>                0.0000
     22 H22         28.7209  37.1280  41.8121 H              1 <1>                0.0000
     23 H23         27.9445  35.5318  41.9450 H              1 <1>                0.0000
     24 H24         29.2488  38.0703  39.6644 H              1 <1>                0.0000
     25 H25         30.7199  36.0629  39.6672 H              1 <1>                0.0000
     26 H26         29.9486  35.5068  38.1617 H              1 <1>                0.0000
     27 H27         31.5274  38.0912  38.5534 H              1 <1>                0.0000
     28 H28         32.0290  36.6705  37.6009 H              1 <1>                0.0000
     29 H29         29.3731  39.4264  37.5263 H              1 <1>                0.0000
     30 H30         28.7229  38.7195  36.0246 H              1 <1>                0.0000
     31 H31         27.9976  36.7160  37.2316 H              1 <1>                0.0000
     32 H32         27.3485  38.1524  38.0598 H              1 <1>                0.0000
@<TRIPOS>BOND
    1    1    2 1     
    2    1   15 1     
    3    1   16 1     
    4    1   17 1     
    5    2    3 1     
    6    2    4 1     
    7    2    5 1     
    8    3   18 1     
    9    3   19 1     
   10    3   20 1     
   11    4   21 1     
   12    4   22 1     
   13    4   23 1     
   14    5    6 1     
   15    5   10 1     
   16    5   24 1     
   17    6    7 1     
   18    6   25 1     
   19    6   26 1     
   20    7    8 1     
   21    7   27 1     
   22    7   28 1     
   23    8    9 1     
   24    8   11 1     
   25    9   10 1     
   26    9   29 1     
   27    9   30 1     
   28   10   31 1     
   29   10   32 1     
   30   11   12 2     
   31   11   13 2     
   32   11   14 1     
@<TRIPOS>SUBSTRUCTURE
      1 ****           1
@<TRIPOS>COMMENT
> <Gold.Version>
2022.2.0

> <Gold.Id.Protein>
1qkm|1qkm_protein|mol2

> <Gold.Protein.RotatedTorsions>
[  496  491  490  487 ] final  142.60 input  -89.99 | X-H torsion

> <Gold.Protein.ActiveResidues>
 MET295  LEU298  THR299  LEU301  ALA302  GLU305  TRP335  MET336  LEU339  MET340 
 GLY342  LEU343  ARG346  PHE356  ILE373  ILE376  PHE377  LEU380  LYS471  GLY472 
 MET473  HIS475  LEU476  LEU477  ASN478  MET479  VAL484  VAL487 

> <Gold.Protein.RotatedAtoms>
   37.2282   33.0435   41.2951 H   0  0  0  0  0  0  0  0  0  0  0  0  # atno 496  bound_to 491 

> <Gold.Score>
     Score     S(PLP)   S(hbond)     S(cho)   S(metal)  DE(clash)   DE(tors)     intcor
     39.10     -39.77       0.00       0.00       0.00       0.00       1.32       1.98

> <Gold.PLP.Fitness>
39.0988

> <Gold.PLP.PLP>
-39.7666

> <Gold.PLP.part.hbond>
0.0000

> <Gold.PLP.part.metal>
0.0000

> <Gold.PLP.part.buried>
-1.1933

> <Gold.PLP.part.nonpolar>
-38.7465

> <Gold.PLP.part.repulsive>
0.1218

> <Gold.PLP.ligand.clash>
0.0000

> <Gold.PLP.ligand.torsion>
1.3232

> <Gold.PLP.Chemscore.Hbond>
0.0000

> <Gold.PLP.Chemscore.CHOScore>
0.0000

> <Gold.PLP.Chemscore.Metal>
0.0000

> <Gold.PLP.Chemscore.Internal.Correction>
1.9786

