#       Name:                EN300-120148_i001
#       Creating user name   aseyller
#       Creation time:       Fri Apr 21 19:48:10 2023


#       File generated by GOLD software.
#

@<TRIPOS>MOLECULE
EN300-120148_i001|Sulfonylchlorides|mol2|910|dock13
    32    32     1
SMALL
USER_CHARGES


@<TRIPOS>ATOM
      1 C1          26.7983  37.0009  40.1212 C.3            1 <1>                0.0000
      2 C2          28.0724  36.2139  40.4342 C.3            1 <1>                0.0000
      3 C3          28.9221  36.9970  41.4369 C.3            1 <1>                0.0000
      4 C4          27.6993  34.8561  41.0326 C.3            1 <1>                0.0000
      5 C5          28.8701  36.0015  39.1459 C.3            1 <1>                0.0000
      6 C6          29.0394  37.3405  38.4245 C.3            1 <1>                0.0000
      7 C7          29.8084  37.1185  37.1182 C.3            1 <1>                0.0000
      8 N8          31.0719  36.4337  37.4238 N.pl3          1 <1>                0.0000
      9 C9          31.0292  35.1829  38.1933 C.3            1 <1>                0.0000
     10 C10         30.2466  35.4265  39.4875 C.3            1 <1>                0.0000
     11 S11         32.5164  37.0596  36.9101 S.o2           1 <1>                0.0000
     12 O12         32.2628  38.4105  36.5496 O.2            1 <1>                0.0000
     13 O13         33.4846  36.6825  37.8795 O.2            1 <1>                0.0000
     14 Cl14        33.0123  36.0976  35.2046 Cl             1 <1>                0.0000
     15 H15         27.0641  37.9681  39.6948 H              1 <1>                0.0000
     16 H16         26.1929  36.4430  39.4068 H              1 <1>                0.0000
     17 H17         26.2300  37.1522  41.0389 H              1 <1>                0.0000
     18 H18         28.3540  37.1483  42.3547 H              1 <1>                0.0000
     19 H19         29.8300  36.4363  41.6599 H              1 <1>                0.0000
     20 H20         29.1880  37.9643  41.0105 H              1 <1>                0.0000
     21 H21         27.0938  34.2983  40.3182 H              1 <1>                0.0000
     22 H22         28.6070  34.2954  41.2556 H              1 <1>                0.0000
     23 H23         27.1310  35.0074  41.9503 H              1 <1>                0.0000
     24 H24         28.3363  35.3054  38.4989 H              1 <1>                0.0000
     25 H25         28.0585  37.7607  38.2023 H              1 <1>                0.0000
     26 H26         29.5950  38.0291  39.0612 H              1 <1>                0.0000
     27 H27         29.2130  36.5032  36.4438 H              1 <1>                0.0000
     28 H28         30.0180  38.0801  36.6497 H              1 <1>                0.0000
     29 H29         30.5334  34.4095  37.6065 H              1 <1>                0.0000
     30 H30         32.0444  34.8672  38.4341 H              1 <1>                0.0000
     31 H31         30.7908  36.1331  40.1142 H              1 <1>                0.0000
     32 H32         30.1249  34.4843  40.0219 H              1 <1>                0.0000
@<TRIPOS>BOND
    1    1    2 1     
    2    1   15 1     
    3    1   16 1     
    4    1   17 1     
    5    2    3 1     
    6    2    4 1     
    7    2    5 1     
    8    3   18 1     
    9    3   19 1     
   10    3   20 1     
   11    4   21 1     
   12    4   22 1     
   13    4   23 1     
   14    5    6 1     
   15    5   10 1     
   16    5   24 1     
   17    6    7 1     
   18    6   25 1     
   19    6   26 1     
   20    7    8 1     
   21    7   27 1     
   22    7   28 1     
   23    8    9 1     
   24    8   11 1     
   25    9   10 1     
   26    9   29 1     
   27    9   30 1     
   28   10   31 1     
   29   10   32 1     
   30   11   12 2     
   31   11   13 2     
   32   11   14 1     
@<TRIPOS>SUBSTRUCTURE
      1 ****           1
@<TRIPOS>COMMENT
> <Gold.Version>
2022.2.0

> <Gold.Id.Protein>
1qkm|1qkm_protein|mol2

> <Gold.Protein.RotatedTorsions>
[  496  491  490  487 ] final   93.49 input  -89.99 | X-H torsion

> <Gold.Protein.ActiveResidues>
 MET295  LEU298  THR299  LEU301  ALA302  GLU305  TRP335  MET336  LEU339  MET340 
 GLY342  LEU343  ARG346  PHE356  ILE373  ILE376  PHE377  LEU380  LYS471  GLY472 
 MET473  HIS475  LEU476  LEU477  ASN478  MET479  VAL484  VAL487 

> <Gold.Protein.RotatedAtoms>
   36.8524   33.0006   41.9817 H   0  0  0  0  0  0  0  0  0  0  0  0  # atno 496  bound_to 491 

> <Gold.Score>
     Score     S(PLP)   S(hbond)     S(cho)   S(metal)  DE(clash)   DE(tors)     intcor
     37.78     -38.05       0.00       0.00       0.00       0.00       1.13       1.98

> <Gold.PLP.Fitness>
37.7766

> <Gold.PLP.PLP>
-38.0512

> <Gold.PLP.part.hbond>
0.0000

> <Gold.PLP.part.metal>
0.0000

> <Gold.PLP.part.buried>
2.1191

> <Gold.PLP.part.nonpolar>
-40.0921

> <Gold.PLP.part.repulsive>
0.0382

> <Gold.PLP.ligand.clash>
0.0000

> <Gold.PLP.ligand.torsion>
1.1266

> <Gold.PLP.Chemscore.Hbond>
0.0000

> <Gold.PLP.Chemscore.CHOScore>
0.0000

> <Gold.PLP.Chemscore.Metal>
0.0000

> <Gold.PLP.Chemscore.Internal.Correction>
1.9786

