#       Name:                EN300-120148_i001
#       Creating user name   aseyller
#       Creation time:       Fri Apr 21 19:48:02 2023


#       File generated by GOLD software.
#

@<TRIPOS>MOLECULE
EN300-120148_i001|Sulfonylchlorides|mol2|910|dock1
    32    32     1
SMALL
USER_CHARGES


@<TRIPOS>ATOM
      1 C1          26.6210  35.3889  38.1942 C.3            1 <1>                0.0000
      2 C2          26.8901  36.4488  39.2642 C.3            1 <1>                0.0000
      3 C3          25.8383  37.5552  39.1620 C.3            1 <1>                0.0000
      4 C4          26.8192  35.8042  40.6500 C.3            1 <1>                0.0000
      5 C5          28.2820  37.0471  39.0507 C.3            1 <1>                0.0000
      6 C6          29.3260  35.9281  39.0674 C.3            1 <1>                0.0000
      7 C7          30.7214  36.5343  38.8880 C.3            1 <1>                0.0000
      8 N8          30.7295  37.3490  37.6653 N.pl3          1 <1>                0.0000
      9 C9          29.7098  38.3948  37.5065 C.3            1 <1>                0.0000
     10 C10         28.3258  37.7678  37.7013 C.3            1 <1>                0.0000
     11 S11         31.8665  37.0934  36.4888 S.o2           1 <1>                0.0000
     12 O12         31.2064  36.4047  35.4356 O.2            1 <1>                0.0000
     13 O13         32.5400  38.3313  36.3059 O.2            1 <1>                0.0000
     14 Cl14        33.2300  35.8085  37.2440 Cl             1 <1>                0.0000
     15 H15         26.6715  35.8481  37.2070 H              1 <1>                0.0000
     16 H16         27.3703  34.6006  38.2670 H              1 <1>                0.0000
     17 H17         25.6294  34.9626  38.3463 H              1 <1>                0.0000
     18 H18         24.8467  37.1290  39.3141 H              1 <1>                0.0000
     19 H19         26.0301  38.3104  39.9243 H              1 <1>                0.0000
     20 H20         25.8888  38.0145  38.1748 H              1 <1>                0.0000
     21 H21         27.5686  35.0159  40.7227 H              1 <1>                0.0000
     22 H22         27.0111  36.5593  41.4122 H              1 <1>                0.0000
     23 H23         25.8277  35.3779  40.8021 H              1 <1>                0.0000
     24 H24         28.4983  37.7574  39.8487 H              1 <1>                0.0000
     25 H25         29.2783  35.4003  40.0199 H              1 <1>                0.0000
     26 H26         29.1249  35.2308  38.2540 H              1 <1>                0.0000
     27 H27         30.9603  37.1617  39.7467 H              1 <1>                0.0000
     28 H28         31.4581  35.7358  38.8000 H              1 <1>                0.0000
     29 H29         29.8663  39.1740  38.2525 H              1 <1>                0.0000
     30 H30         29.7792  38.8239  36.5068 H              1 <1>                0.0000
     31 H31         28.1342  37.0532  36.9008 H              1 <1>                0.0000
     32 H32         27.5663  38.5493  37.6814 H              1 <1>                0.0000
@<TRIPOS>BOND
    1    1    2 1     
    2    1   15 1     
    3    1   16 1     
    4    1   17 1     
    5    2    3 1     
    6    2    4 1     
    7    2    5 1     
    8    3   18 1     
    9    3   19 1     
   10    3   20 1     
   11    4   21 1     
   12    4   22 1     
   13    4   23 1     
   14    5    6 1     
   15    5   10 1     
   16    5   24 1     
   17    6    7 1     
   18    6   25 1     
   19    6   26 1     
   20    7    8 1     
   21    7   27 1     
   22    7   28 1     
   23    8    9 1     
   24    8   11 1     
   25    9   10 1     
   26    9   29 1     
   27    9   30 1     
   28   10   31 1     
   29   10   32 1     
   30   11   12 2     
   31   11   13 2     
   32   11   14 1     
@<TRIPOS>SUBSTRUCTURE
      1 ****           1
@<TRIPOS>COMMENT
> <Gold.Version>
2022.2.0

> <Gold.Id.Protein>
1qkm|1qkm_protein|mol2

> <Gold.Protein.RotatedTorsions>
[  496  491  490  487 ] final -104.35 input  -89.99 | X-H torsion

> <Gold.Protein.ActiveResidues>
 MET295  LEU298  THR299  LEU301  ALA302  GLU305  TRP335  MET336  LEU339  MET340 
 GLY342  LEU343  ARG346  PHE356  ILE373  ILE376  PHE377  LEU380  LYS471  GLY472 
 MET473  HIS475  LEU476  LEU477  ASN478  MET479  VAL484  VAL487 

> <Gold.Protein.RotatedAtoms>
   36.8894   34.5347   40.9244 H   0  0  0  0  0  0  0  0  0  0  0  0  # atno 496  bound_to 491 

> <Gold.Score>
     Score     S(PLP)   S(hbond)     S(cho)   S(metal)  DE(clash)   DE(tors)     intcor
     41.89     -42.45       0.00       0.00       0.00       0.00       1.27       1.98

> <Gold.PLP.Fitness>
41.8865

> <Gold.PLP.PLP>
-42.4526

> <Gold.PLP.part.hbond>
0.0000

> <Gold.PLP.part.metal>
0.0000

> <Gold.PLP.part.buried>
-2.9040

> <Gold.PLP.part.nonpolar>
-40.3281

> <Gold.PLP.part.repulsive>
0.0871

> <Gold.PLP.ligand.clash>
0.0000

> <Gold.PLP.ligand.torsion>
1.2726

> <Gold.PLP.Chemscore.Hbond>
0.0000

> <Gold.PLP.Chemscore.CHOScore>
0.0000

> <Gold.PLP.Chemscore.Metal>
0.0000

> <Gold.PLP.Chemscore.Internal.Correction>
1.9791

