#       Name:                EN300-120148_i001
#       Creating user name   aseyller
#       Creation time:       Fri Apr 21 19:48:16 2023


#       File generated by GOLD software.
#

@<TRIPOS>MOLECULE
EN300-120148_i001|Sulfonylchlorides|mol2|910|dock19
    32    32     1
SMALL
USER_CHARGES


@<TRIPOS>ATOM
      1 C1          26.7262  37.1830  39.3081 C.3            1 <1>                0.0000
      2 C2          27.7233  36.0338  39.4685 C.3            1 <1>                0.0000
      3 C3          27.6603  35.5000  40.9009 C.3            1 <1>                0.0000
      4 C4          27.3700  34.9117  38.4902 C.3            1 <1>                0.0000
      5 C5          29.1368  36.5402  39.1746 C.3            1 <1>                0.0000
      6 C6          30.0838  35.3478  39.0206 C.3            1 <1>                0.0000
      7 C7          31.5043  35.8592  38.7608 C.3            1 <1>                0.0000
      8 N8          31.4774  36.7621  37.6020 N.pl3          1 <1>                0.0000
      9 C9          30.5368  37.8907  37.6076 C.3            1 <1>                0.0000
     10 C10         29.1272  37.3566  37.8802 C.3            1 <1>                0.0000
     11 S11         32.4883  36.5125  36.3144 S.o2           1 <1>                0.0000
     12 O12         32.0351  35.3287  35.6720 O.2            1 <1>                0.0000
     13 O13         32.6056  37.7621  35.6481 O.2            1 <1>                0.0000
     14 Cl14        34.3167  36.0910  37.0625 Cl             1 <1>                0.0000
     15 H15         26.9779  37.9824  40.0050 H              1 <1>                0.0000
     16 H16         26.7711  37.5633  38.2875 H              1 <1>                0.0000
     17 H17         25.7192  36.8223  39.5174 H              1 <1>                0.0000
     18 H18         26.6533  35.1393  41.1103 H              1 <1>                0.0000
     19 H19         28.3707  34.6812  41.0152 H              1 <1>                0.0000
     20 H20         27.9121  36.2994  41.5979 H              1 <1>                0.0000
     21 H21         27.4148  35.2920  37.4696 H              1 <1>                0.0000
     22 H22         28.0804  34.0929  38.6044 H              1 <1>                0.0000
     23 H23         26.3629  34.5509  38.6995 H              1 <1>                0.0000
     24 H24         29.4758  37.1690  39.9979 H              1 <1>                0.0000
     25 H25         30.0724  34.7537  39.9344 H              1 <1>                0.0000
     26 H26         29.7598  34.7319  38.1816 H              1 <1>                0.0000
     27 H27         31.8640  36.3993  39.6366 H              1 <1>                0.0000
     28 H28         32.1636  35.0166  38.5523 H              1 <1>                0.0000
     29 H29         30.8176  38.5966  38.3893 H              1 <1>                0.0000
     30 H30         30.5578  38.3886  36.6381 H              1 <1>                0.0000
     31 H31         28.8122  36.7218  37.0520 H              1 <1>                0.0000
     32 H32         28.4349  38.1923  37.9824 H              1 <1>                0.0000
@<TRIPOS>BOND
    1    1    2 1     
    2    1   15 1     
    3    1   16 1     
    4    1   17 1     
    5    2    3 1     
    6    2    4 1     
    7    2    5 1     
    8    3   18 1     
    9    3   19 1     
   10    3   20 1     
   11    4   21 1     
   12    4   22 1     
   13    4   23 1     
   14    5    6 1     
   15    5   10 1     
   16    5   24 1     
   17    6    7 1     
   18    6   25 1     
   19    6   26 1     
   20    7    8 1     
   21    7   27 1     
   22    7   28 1     
   23    8    9 1     
   24    8   11 1     
   25    9   10 1     
   26    9   29 1     
   27    9   30 1     
   28   10   31 1     
   29   10   32 1     
   30   11   12 2     
   31   11   13 2     
   32   11   14 1     
@<TRIPOS>SUBSTRUCTURE
      1 ****           1
@<TRIPOS>COMMENT
> <Gold.Version>
2022.2.0

> <Gold.Id.Protein>
1qkm|1qkm_protein|mol2

> <Gold.Protein.RotatedTorsions>
[  496  491  490  487 ] final   -4.32 input  -89.99 | X-H torsion

> <Gold.Protein.ActiveResidues>
 MET295  LEU298  THR299  LEU301  ALA302  GLU305  TRP335  MET336  LEU339  MET340 
 GLY342  LEU343  ARG346  PHE356  ILE373  ILE376  PHE377  LEU380  LYS471  GLY472 
 MET473  HIS475  LEU476  LEU477  ASN478  MET479  VAL484  VAL487 

> <Gold.Protein.RotatedAtoms>
   36.2588   34.2740   42.1985 H   0  0  0  0  0  0  0  0  0  0  0  0  # atno 496  bound_to 491 

> <Gold.Score>
     Score     S(PLP)   S(hbond)     S(cho)   S(metal)  DE(clash)   DE(tors)     intcor
     36.34     -37.10       0.00       0.00       0.00       0.00       1.37       1.98

> <Gold.PLP.Fitness>
36.3364

> <Gold.PLP.PLP>
-37.1020

> <Gold.PLP.part.hbond>
0.0000

> <Gold.PLP.part.metal>
0.0000

> <Gold.PLP.part.buried>
-2.4551

> <Gold.PLP.part.nonpolar>
-35.0809

> <Gold.PLP.part.repulsive>
0.1367

> <Gold.PLP.ligand.clash>
0.0000

> <Gold.PLP.ligand.torsion>
1.3721

> <Gold.PLP.Chemscore.Hbond>
0.0000

> <Gold.PLP.Chemscore.CHOScore>
0.0000

> <Gold.PLP.Chemscore.Metal>
0.0000

> <Gold.PLP.Chemscore.Internal.Correction>
1.9786

