#       Name:                EN300-120148_i001
#       Creating user name   aseyller
#       Creation time:       Fri Apr 21 19:48:11 2023


#       File generated by GOLD software.
#

@<TRIPOS>MOLECULE
EN300-120148_i001|Sulfonylchlorides|mol2|910|dock14
    32    32     1
SMALL
USER_CHARGES


@<TRIPOS>ATOM
      1 C1          31.3009  36.3416  34.8932 C.3            1 <1>                0.0000
      2 C2          31.6512  37.7155  35.4679 C.3            1 <1>                0.0000
      3 C3          33.1596  37.7974  35.7105 C.3            1 <1>                0.0000
      4 C4          31.2342  38.8043  34.4772 C.3            1 <1>                0.0000
      5 C5          30.9101  37.9190  36.7909 C.3            1 <1>                0.0000
      6 C6          29.4027  37.9619  36.5295 C.3            1 <1>                0.0000
      7 C7          28.6659  38.2003  37.8512 C.3            1 <1>                0.0000
      8 N8          29.0819  37.1736  38.8164 N.pl3          1 <1>                0.0000
      9 C9          30.5161  36.9865  39.0745 C.3            1 <1>                0.0000
     10 C10         31.2322  36.7617  37.7391 C.3            1 <1>                0.0000
     11 S11         27.9556  36.2454  39.5988 S.o2           1 <1>                0.0000
     12 O12         26.7085  36.9076  39.4383 O.2            1 <1>                0.0000
     13 O13         28.1827  34.9051  39.1851 O.2            1 <1>                0.0000
     14 Cl14        28.3887  36.3150  41.5706 Cl             1 <1>                0.0000
     15 H15         31.5980  35.5660  35.5990 H              1 <1>                0.0000
     16 H16         30.2263  36.2832  34.7203 H              1 <1>                0.0000
     17 H17         31.8289  36.1967  33.9507 H              1 <1>                0.0000
     18 H18         33.6876  37.6525  34.7681 H              1 <1>                0.0000
     19 H19         33.4092  38.7763  36.1201 H              1 <1>                0.0000
     20 H20         33.4567  37.0218  36.4164 H              1 <1>                0.0000
     21 H21         30.1596  38.7459  34.3043 H              1 <1>                0.0000
     22 H22         31.4837  39.7832  34.8867 H              1 <1>                0.0000
     23 H23         31.7622  38.6594  33.5347 H              1 <1>                0.0000
     24 H24         31.2270  38.8584  37.2439 H              1 <1>                0.0000
     25 H25         29.1768  38.7718  35.8357 H              1 <1>                0.0000
     26 H26         29.0809  37.0134  36.0994 H              1 <1>                0.0000
     27 H27         28.9179  39.1881  38.2370 H              1 <1>                0.0000
     28 H28         27.5903  38.1333  37.6872 H              1 <1>                0.0000
     29 H29         30.9191  37.8753  39.5601 H              1 <1>                0.0000
     30 H30         30.6614  36.1185  39.7177 H              1 <1>                0.0000
     31 H31         30.8932  35.8245  37.2977 H              1 <1>                0.0000
     32 H32         32.3084  36.7172  37.9063 H              1 <1>                0.0000
@<TRIPOS>BOND
    1    1    2 1     
    2    1   15 1     
    3    1   16 1     
    4    1   17 1     
    5    2    3 1     
    6    2    4 1     
    7    2    5 1     
    8    3   18 1     
    9    3   19 1     
   10    3   20 1     
   11    4   21 1     
   12    4   22 1     
   13    4   23 1     
   14    5    6 1     
   15    5   10 1     
   16    5   24 1     
   17    6    7 1     
   18    6   25 1     
   19    6   26 1     
   20    7    8 1     
   21    7   27 1     
   22    7   28 1     
   23    8    9 1     
   24    8   11 1     
   25    9   10 1     
   26    9   29 1     
   27    9   30 1     
   28   10   31 1     
   29   10   32 1     
   30   11   12 2     
   31   11   13 2     
   32   11   14 1     
@<TRIPOS>SUBSTRUCTURE
      1 ****           1
@<TRIPOS>COMMENT
> <Gold.Version>
2022.2.0

> <Gold.Id.Protein>
1qkm|1qkm_protein|mol2

> <Gold.Protein.RotatedTorsions>
[  496  491  490  487 ] final -149.21 input  -89.99 | X-H torsion

> <Gold.Protein.ActiveResidues>
 MET295  LEU298  THR299  LEU301  ALA302  GLU305  TRP335  MET336  LEU339  MET340 
 GLY342  LEU343  ARG346  PHE356  ILE373  ILE376  PHE377  LEU380  LYS471  GLY472 
 MET473  HIS475  LEU476  LEU477  ASN478  MET479  VAL484  VAL487 

> <Gold.Protein.RotatedAtoms>
   37.2272   33.9322   40.7220 H   0  0  0  0  0  0  0  0  0  0  0  0  # atno 496  bound_to 491 

> <Gold.Score>
     Score     S(PLP)   S(hbond)     S(cho)   S(metal)  DE(clash)   DE(tors)     intcor
     36.99     -37.29       0.00       0.00       0.00       0.00       1.14       1.98

> <Gold.PLP.Fitness>
36.9920

> <Gold.PLP.PLP>
-37.2915

> <Gold.PLP.part.hbond>
0.0000

> <Gold.PLP.part.metal>
0.0000

> <Gold.PLP.part.buried>
-2.6282

> <Gold.PLP.part.nonpolar>
-34.6728

> <Gold.PLP.part.repulsive>
0.0506

> <Gold.PLP.ligand.clash>
0.0000

> <Gold.PLP.ligand.torsion>
1.1391

> <Gold.PLP.Chemscore.Hbond>
0.0000

> <Gold.PLP.Chemscore.CHOScore>
0.0000

> <Gold.PLP.Chemscore.Metal>
0.0000

> <Gold.PLP.Chemscore.Internal.Correction>
1.9786

