#       Name:                EN300-120148_i001
#       Creating user name   aseyller
#       Creation time:       Fri Apr 21 19:48:07 2023


#       File generated by GOLD software.
#

@<TRIPOS>MOLECULE
EN300-120148_i001|Sulfonylchlorides|mol2|910|dock9
    32    32     1
SMALL
USER_CHARGES


@<TRIPOS>ATOM
      1 C1          27.0969  36.9968  39.8033 C.3            1 <1>                0.0000
      2 C2          28.2331  35.9751  39.8784 C.3            1 <1>                0.0000
      3 C3          28.5001  35.6157  41.3413 C.3            1 <1>                0.0000
      4 C4          27.8370  34.7141  39.1076 C.3            1 <1>                0.0000
      5 C5          29.4987  36.5735  39.2610 C.3            1 <1>                0.0000
      6 C6          30.5554  35.4779  39.1016 C.3            1 <1>                0.0000
      7 C7          31.8328  36.0874  38.5155 C.3            1 <1>                0.0000
      8 N8          31.4944  36.7855  37.2678 N.pl3          1 <1>                0.0000
      9 C9          30.4276  37.7955  37.2904 C.3            1 <1>                0.0000
     10 C10         29.1660  37.1669  37.8902 C.3            1 <1>                0.0000
     11 S11         32.3003  36.4408  35.8629 S.o2           1 <1>                0.0000
     12 O12         33.5553  35.8939  36.2440 O.2            1 <1>                0.0000
     13 O13         31.3762  35.7571  35.0274 O.2            1 <1>                0.0000
     14 Cl14        32.6974  38.2005  34.9539 Cl             1 <1>                0.0000
     15 H15         27.3791  37.8951  40.3523 H              1 <1>                0.0000
     16 H16         26.9067  37.2529  38.7610 H              1 <1>                0.0000
     17 H17         26.1953  36.5705  40.2430 H              1 <1>                0.0000
     18 H18         27.5986  35.1894  41.7812 H              1 <1>                0.0000
     19 H19         29.3097  34.8878  41.3948 H              1 <1>                0.0000
     20 H20         28.7824  36.5141  41.8904 H              1 <1>                0.0000
     21 H21         27.6467  34.9702  38.0653 H              1 <1>                0.0000
     22 H22         28.6465  33.9862  39.1610 H              1 <1>                0.0000
     23 H23         26.9353  34.2878  39.5474 H              1 <1>                0.0000
     24 H24         29.8845  37.3579  39.9122 H              1 <1>                0.0000
     25 H25         30.7748  35.0397  40.0752 H              1 <1>                0.0000
     26 H26         30.1799  34.7052  38.4306 H              1 <1>                0.0000
     27 H27         32.2593  36.7953  39.2262 H              1 <1>                0.0000
     28 H28         32.5532  35.2962  38.3077 H              1 <1>                0.0000
     29 H29         30.7395  38.6428  37.9012 H              1 <1>                0.0000
     30 H30         30.2209  38.1314  36.2742 H              1 <1>                0.0000
     31 H31         28.8036  36.3784  37.2306 H              1 <1>                0.0000
     32 H32         28.3965  37.9309  38.0016 H              1 <1>                0.0000
@<TRIPOS>BOND
    1    1    2 1     
    2    1   15 1     
    3    1   16 1     
    4    1   17 1     
    5    2    3 1     
    6    2    4 1     
    7    2    5 1     
    8    3   18 1     
    9    3   19 1     
   10    3   20 1     
   11    4   21 1     
   12    4   22 1     
   13    4   23 1     
   14    5    6 1     
   15    5   10 1     
   16    5   24 1     
   17    6    7 1     
   18    6   25 1     
   19    6   26 1     
   20    7    8 1     
   21    7   27 1     
   22    7   28 1     
   23    8    9 1     
   24    8   11 1     
   25    9   10 1     
   26    9   29 1     
   27    9   30 1     
   28   10   31 1     
   29   10   32 1     
   30   11   12 2     
   31   11   13 2     
   32   11   14 1     
@<TRIPOS>SUBSTRUCTURE
      1 ****           1
@<TRIPOS>COMMENT
> <Gold.Version>
2022.2.0

> <Gold.Id.Protein>
1qkm|1qkm_protein|mol2

> <Gold.Protein.RotatedTorsions>
[  496  491  490  487 ] final   60.13 input  -89.99 | X-H torsion

> <Gold.Protein.ActiveResidues>
 MET295  LEU298  THR299  LEU301  ALA302  GLU305  TRP335  MET336  LEU339  MET340 
 GLY342  LEU343  ARG346  PHE356  ILE373  ILE376  PHE377  LEU380  LYS471  GLY472 
 MET473  HIS475  LEU476  LEU477  ASN478  MET479  VAL484  VAL487 

> <Gold.Protein.RotatedAtoms>
   36.5526   33.3175   42.3022 H   0  0  0  0  0  0  0  0  0  0  0  0  # atno 496  bound_to 491 

> <Gold.Score>
     Score     S(PLP)   S(hbond)     S(cho)   S(metal)  DE(clash)   DE(tors)     intcor
     38.53     -39.14       0.00       0.00       0.00       0.00       1.29       1.98

> <Gold.PLP.Fitness>
38.5314

> <Gold.PLP.PLP>
-39.1426

> <Gold.PLP.part.hbond>
0.0000

> <Gold.PLP.part.metal>
0.0000

> <Gold.PLP.part.buried>
-0.7922

> <Gold.PLP.part.nonpolar>
-38.6247

> <Gold.PLP.part.repulsive>
0.1285

> <Gold.PLP.ligand.clash>
0.0000

> <Gold.PLP.ligand.torsion>
1.2949

> <Gold.PLP.Chemscore.Hbond>
0.0000

> <Gold.PLP.Chemscore.CHOScore>
0.0000

> <Gold.PLP.Chemscore.Metal>
0.0000

> <Gold.PLP.Chemscore.Internal.Correction>
1.9786

