#       Name:                EN300-120148_i001
#       Creating user name   aseyller
#       Creation time:       Fri Apr 21 19:48:13 2023


#       File generated by GOLD software.
#

@<TRIPOS>MOLECULE
EN300-120148_i001|Sulfonylchlorides|mol2|910|dock16
    32    32     1
SMALL
USER_CHARGES


@<TRIPOS>ATOM
      1 C1          34.1004  36.4021  35.4952 C.3            1 <1>                0.0000
      2 C2          32.6457  36.8621  35.3814 C.3            1 <1>                0.0000
      3 C3          32.5912  38.2053  34.6509 C.3            1 <1>                0.0000
      4 C4          31.8418  35.8225  34.5978 C.3            1 <1>                0.0000
      5 C5          32.0492  37.0184  36.7816 C.3            1 <1>                0.0000
      6 C6          30.6795  37.6934  36.6798 C.3            1 <1>                0.0000
      7 C7          30.1006  37.8796  38.0859 C.3            1 <1>                0.0000
      8 N8          30.0826  36.5775  38.7662 N.pl3          1 <1>                0.0000
      9 C9          31.3284  35.8023  38.8410 C.3            1 <1>                0.0000
     10 C10         31.8935  35.6393  37.4265 C.3            1 <1>                0.0000
     11 S11         28.6848  35.9950  39.4362 S.o2           1 <1>                0.0000
     12 O12         28.6225  34.6159  39.0991 O.2            1 <1>                0.0000
     13 O13         28.6532  36.4699  40.7752 O.2            1 <1>                0.0000
     14 Cl14        27.1458  36.8863  38.4784 Cl             1 <1>                0.0000
     15 H15         34.6731  37.1427  36.0534 H              1 <1>                0.0000
     16 H16         34.1393  35.4451  36.0156 H              1 <1>                0.0000
     17 H17         34.5254  36.2907  34.4977 H              1 <1>                0.0000
     18 H18         33.0161  38.0939  33.6534 H              1 <1>                0.0000
     19 H19         31.5547  38.5330  34.5699 H              1 <1>                0.0000
     20 H20         33.1638  38.9459  35.2091 H              1 <1>                0.0000
     21 H21         31.8807  34.8655  35.1183 H              1 <1>                0.0000
     22 H22         30.8054  36.1501  34.5168 H              1 <1>                0.0000
     23 H23         32.2668  35.7110  33.6003 H              1 <1>                0.0000
     24 H24         32.7118  37.6318  37.3922 H              1 <1>                0.0000
     25 H25         30.7879  38.6658  36.1993 H              1 <1>                0.0000
     26 H26         30.0088  37.0684  36.0901 H              1 <1>                0.0000
     27 H27         30.7224  38.5768  38.6476 H              1 <1>                0.0000
     28 H28         29.0849  38.2686  38.0144 H              1 <1>                0.0000
     29 H29         32.0504  36.3299  39.4643 H              1 <1>                0.0000
     30 H30         31.1228  34.8205  39.2677 H              1 <1>                0.0000
     31 H31         31.2114  35.0336  36.8298 H              1 <1>                0.0000
     32 H32         32.8660  35.1496  37.4773 H              1 <1>                0.0000
@<TRIPOS>BOND
    1    1    2 1     
    2    1   15 1     
    3    1   16 1     
    4    1   17 1     
    5    2    3 1     
    6    2    4 1     
    7    2    5 1     
    8    3   18 1     
    9    3   19 1     
   10    3   20 1     
   11    4   21 1     
   12    4   22 1     
   13    4   23 1     
   14    5    6 1     
   15    5   10 1     
   16    5   24 1     
   17    6    7 1     
   18    6   25 1     
   19    6   26 1     
   20    7    8 1     
   21    7   27 1     
   22    7   28 1     
   23    8    9 1     
   24    8   11 1     
   25    9   10 1     
   26    9   29 1     
   27    9   30 1     
   28   10   31 1     
   29   10   32 1     
   30   11   12 2     
   31   11   13 2     
   32   11   14 1     
@<TRIPOS>SUBSTRUCTURE
      1 ****           1
@<TRIPOS>COMMENT
> <Gold.Version>
2022.2.0

> <Gold.Id.Protein>
1qkm|1qkm_protein|mol2

> <Gold.Protein.RotatedTorsions>
[  496  491  490  487 ] final  164.30 input  -89.99 | X-H torsion

> <Gold.Protein.ActiveResidues>
 MET295  LEU298  THR299  LEU301  ALA302  GLU305  TRP335  MET336  LEU339  MET340 
 GLY342  LEU343  ARG346  PHE356  ILE373  ILE376  PHE377  LEU380  LYS471  GLY472 
 MET473  HIS475  LEU476  LEU477  ASN478  MET479  VAL484  VAL487 

> <Gold.Protein.RotatedAtoms>
   37.3066   33.2549   41.0208 H   0  0  0  0  0  0  0  0  0  0  0  0  # atno 496  bound_to 491 

> <Gold.Score>
     Score     S(PLP)   S(hbond)     S(cho)   S(metal)  DE(clash)   DE(tors)     intcor
     39.18     -39.89       0.00       0.00       0.00       0.00       1.34       1.98

> <Gold.PLP.Fitness>
39.1769

> <Gold.PLP.PLP>
-39.8860

> <Gold.PLP.part.hbond>
0.0000

> <Gold.PLP.part.metal>
0.0000

> <Gold.PLP.part.buried>
-0.0017

> <Gold.PLP.part.nonpolar>
-40.3631

> <Gold.PLP.part.repulsive>
0.1287

> <Gold.PLP.ligand.clash>
0.0000

> <Gold.PLP.ligand.torsion>
1.3439

> <Gold.PLP.Chemscore.Hbond>
0.0000

> <Gold.PLP.Chemscore.CHOScore>
0.0000

> <Gold.PLP.Chemscore.Metal>
0.0000

> <Gold.PLP.Chemscore.Internal.Correction>
1.9786

