#       Name:                EN300-120148_i001
#       Creating user name   aseyller
#       Creation time:       Fri Apr 21 19:48:03 2023


#       File generated by GOLD software.
#

@<TRIPOS>MOLECULE
EN300-120148_i001|Sulfonylchlorides|mol2|910|dock3
    32    32     1
SMALL
USER_CHARGES


@<TRIPOS>ATOM
      1 C1          27.0107  35.8007  40.7212 C.3            1 <1>                0.0000
      2 C2          27.0496  36.4251  39.3251 C.3            1 <1>                0.0000
      3 C3          26.6621  35.3725  38.2846 C.3            1 <1>                0.0000
      4 C4          26.0632  37.5929  39.2609 C.3            1 <1>                0.0000
      5 C5          28.4626  36.9345  39.0334 C.3            1 <1>                0.0000
      6 C6          29.4422  35.7588  39.0511 C.3            1 <1>                0.0000
      7 C7          30.8605  36.2772  38.7931 C.3            1 <1>                0.0000
      8 N8          30.8626  37.0456  37.5408 N.pl3          1 <1>                0.0000
      9 C9          29.8972  38.1418  37.3830 C.3            1 <1>                0.0000
     10 C10         28.4897  37.6026  37.6568 C.3            1 <1>                0.0000
     11 S11         31.9331  36.6833  36.3305 S.o2           1 <1>                0.0000
     12 O12         32.9967  35.9627  36.9379 O.2            1 <1>                0.0000
     13 O13         31.1620  36.1695  35.2531 O.2            1 <1>                0.0000
     14 Cl14        32.7210  38.4283  35.6867 Cl             1 <1>                0.0000
     15 H15         27.7134  34.9688  40.7670 H              1 <1>                0.0000
     16 H16         27.2868  36.5506  41.4626 H              1 <1>                0.0000
     17 H17         26.0041  35.4379  40.9291 H              1 <1>                0.0000
     18 H18         25.6556  35.0096  38.4923 H              1 <1>                0.0000
     19 H19         26.6899  35.8174  37.2899 H              1 <1>                0.0000
     20 H20         27.3649  34.5406  38.3303 H              1 <1>                0.0000
     21 H21         26.3393  38.3428  40.0022 H              1 <1>                0.0000
     22 H22         26.0910  38.0378  38.2662 H              1 <1>                0.0000
     23 H23         25.0566  37.2301  39.4687 H              1 <1>                0.0000
     24 H24         28.7515  37.6594  39.7945 H              1 <1>                0.0000
     25 H25         29.4052  35.2691  40.0243 H              1 <1>                0.0000
     26 H26         29.1685  35.0455  38.2737 H              1 <1>                0.0000
     27 H27         31.1700  36.9202  39.6170 H              1 <1>                0.0000
     28 H28         31.5471  35.4351  38.7063 H              1 <1>                0.0000
     29 H29         30.1281  38.9370  38.0919 H              1 <1>                0.0000
     30 H30         29.9483  38.5301  36.3657 H              1 <1>                0.0000
     31 H31         28.2250  36.8719  36.8926 H              1 <1>                0.0000
     32 H32         27.7748  38.4252  37.6375 H              1 <1>                0.0000
@<TRIPOS>BOND
    1    1    2 1     
    2    1   15 1     
    3    1   16 1     
    4    1   17 1     
    5    2    3 1     
    6    2    4 1     
    7    2    5 1     
    8    3   18 1     
    9    3   19 1     
   10    3   20 1     
   11    4   21 1     
   12    4   22 1     
   13    4   23 1     
   14    5    6 1     
   15    5   10 1     
   16    5   24 1     
   17    6    7 1     
   18    6   25 1     
   19    6   26 1     
   20    7    8 1     
   21    7   27 1     
   22    7   28 1     
   23    8    9 1     
   24    8   11 1     
   25    9   10 1     
   26    9   29 1     
   27    9   30 1     
   28   10   31 1     
   29   10   32 1     
   30   11   12 2     
   31   11   13 2     
   32   11   14 1     
@<TRIPOS>SUBSTRUCTURE
      1 ****           1
@<TRIPOS>COMMENT
> <Gold.Version>
2022.2.0

> <Gold.Id.Protein>
1qkm|1qkm_protein|mol2

> <Gold.Protein.RotatedTorsions>
[  496  491  490  487 ] final -147.65 input  -89.99 | X-H torsion

> <Gold.Protein.ActiveResidues>
 MET295  LEU298  THR299  LEU301  ALA302  GLU305  TRP335  MET336  LEU339  MET340 
 GLY342  LEU343  ARG346  PHE356  ILE373  ILE376  PHE377  LEU380  LYS471  GLY472 
 MET473  HIS475  LEU476  LEU477  ASN478  MET479  VAL484  VAL487 

> <Gold.Protein.RotatedAtoms>
   37.2189   33.9565   40.7208 H   0  0  0  0  0  0  0  0  0  0  0  0  # atno 496  bound_to 491 

> <Gold.Score>
     Score     S(PLP)   S(hbond)     S(cho)   S(metal)  DE(clash)   DE(tors)     intcor
     39.54     -39.81       0.00       0.00       0.00       0.00       1.13       1.98

> <Gold.PLP.Fitness>
39.5350

> <Gold.PLP.PLP>
-39.8105

> <Gold.PLP.part.hbond>
0.0000

> <Gold.PLP.part.metal>
0.0000

> <Gold.PLP.part.buried>
-2.4639

> <Gold.PLP.part.nonpolar>
-37.4395

> <Gold.PLP.part.repulsive>
0.0802

> <Gold.PLP.ligand.clash>
0.0000

> <Gold.PLP.ligand.torsion>
1.1273

> <Gold.PLP.Chemscore.Hbond>
0.0000

> <Gold.PLP.Chemscore.CHOScore>
0.0000

> <Gold.PLP.Chemscore.Metal>
0.0000

> <Gold.PLP.Chemscore.Internal.Correction>
1.9791

