#       Name:                EN300-120148_i001
#       Creating user name   aseyller
#       Creation time:       Fri Apr 21 19:48:09 2023


#       File generated by GOLD software.
#

@<TRIPOS>MOLECULE
EN300-120148_i001|Sulfonylchlorides|mol2|910|dock12
    32    32     1
SMALL
USER_CHARGES


@<TRIPOS>ATOM
      1 C1          26.2353  37.9193  38.4865 C.3            1 <1>                0.0000
      2 C2          26.8656  36.6743  39.1137 C.3            1 <1>                0.0000
      3 C3          26.3053  36.4739  40.5232 C.3            1 <1>                0.0000
      4 C4          26.5389  35.4500  38.2562 C.3            1 <1>                0.0000
      5 C5          28.3832  36.8538  39.1890 C.3            1 <1>                0.0000
      6 C6          29.0416  35.5059  39.4924 C.3            1 <1>                0.0000
      7 C7          30.5578  35.6958  39.6012 C.3            1 <1>                0.0000
      8 N8          31.0429  36.3416  38.3739 N.pl3          1 <1>                0.0000
      9 C9          30.4152  37.5976  37.9411 C.3            1 <1>                0.0000
     10 C10         28.9007  37.3864  37.8508 C.3            1 <1>                0.0000
     11 S11         32.2739  35.6670  37.4955 S.o2           1 <1>                0.0000
     12 O12         33.4611  36.3462  37.8811 O.2            1 <1>                0.0000
     13 O13         32.1158  34.2586  37.5989 O.2            1 <1>                0.0000
     14 Cl14        31.9524  36.1362  35.5572 Cl             1 <1>                0.0000
     15 H15         26.4681  38.7914  39.0974 H              1 <1>                0.0000
     16 H16         26.6345  38.0621  37.4824 H              1 <1>                0.0000
     17 H17         25.1542  37.7914  38.4329 H              1 <1>                0.0000
     18 H18         25.2242  36.3460  40.4696 H              1 <1>                0.0000
     19 H19         26.7544  35.5869  40.9701 H              1 <1>                0.0000
     20 H20         26.5381  37.3460  41.1341 H              1 <1>                0.0000
     21 H21         26.9380  35.5928  37.2520 H              1 <1>                0.0000
     22 H22         26.9880  34.5630  38.7030 H              1 <1>                0.0000
     23 H23         25.4577  35.3222  38.2025 H              1 <1>                0.0000
     24 H24         28.6262  37.5629  39.9803 H              1 <1>                0.0000
     25 H25         28.6552  35.1161  40.4341 H              1 <1>                0.0000
     26 H26         28.8196  34.8036  38.6889 H              1 <1>                0.0000
     27 H27         30.7863  36.3260  40.4607 H              1 <1>                0.0000
     28 H28         31.0401  34.7253  39.7186 H              1 <1>                0.0000
     29 H29         30.6322  38.3830  38.6651 H              1 <1>                0.0000
     30 H30         30.8035  37.8820  36.9631 H              1 <1>                0.0000
     31 H31         28.6800  36.6664  37.0628 H              1 <1>                0.0000
     32 H32         28.4140  38.3351  37.6242 H              1 <1>                0.0000
@<TRIPOS>BOND
    1    1    2 1     
    2    1   15 1     
    3    1   16 1     
    4    1   17 1     
    5    2    3 1     
    6    2    4 1     
    7    2    5 1     
    8    3   18 1     
    9    3   19 1     
   10    3   20 1     
   11    4   21 1     
   12    4   22 1     
   13    4   23 1     
   14    5    6 1     
   15    5   10 1     
   16    5   24 1     
   17    6    7 1     
   18    6   25 1     
   19    6   26 1     
   20    7    8 1     
   21    7   27 1     
   22    7   28 1     
   23    8    9 1     
   24    8   11 1     
   25    9   10 1     
   26    9   29 1     
   27    9   30 1     
   28   10   31 1     
   29   10   32 1     
   30   11   12 2     
   31   11   13 2     
   32   11   14 1     
@<TRIPOS>SUBSTRUCTURE
      1 ****           1
@<TRIPOS>COMMENT
> <Gold.Version>
2022.2.0

> <Gold.Id.Protein>
1qkm|1qkm_protein|mol2

> <Gold.Protein.RotatedTorsions>
[  496  491  490  487 ] final   39.81 input  -89.99 | X-H torsion

> <Gold.Protein.ActiveResidues>
 MET295  LEU298  THR299  LEU301  ALA302  GLU305  TRP335  MET336  LEU339  MET340 
 GLY342  LEU343  ARG346  PHE356  ILE373  ILE376  PHE377  LEU380  LYS471  GLY472 
 MET473  HIS475  LEU476  LEU477  ASN478  MET479  VAL484  VAL487 

> <Gold.Protein.RotatedAtoms>
   36.4025   33.6042   42.3799 H   0  0  0  0  0  0  0  0  0  0  0  0  # atno 496  bound_to 491 

> <Gold.Score>
     Score     S(PLP)   S(hbond)     S(cho)   S(metal)  DE(clash)   DE(tors)     intcor
     41.04     -41.99       0.00       0.00       0.00       0.00       1.46       1.98

> <Gold.PLP.Fitness>
41.0440

> <Gold.PLP.PLP>
-41.9865

> <Gold.PLP.part.hbond>
0.0000

> <Gold.PLP.part.metal>
0.0000

> <Gold.PLP.part.buried>
-0.4475

> <Gold.PLP.part.nonpolar>
-41.7404

> <Gold.PLP.part.repulsive>
0.0649

> <Gold.PLP.ligand.clash>
0.0000

> <Gold.PLP.ligand.torsion>
1.4606

> <Gold.PLP.Chemscore.Hbond>
0.0000

> <Gold.PLP.Chemscore.CHOScore>
0.0000

> <Gold.PLP.Chemscore.Metal>
0.0000

> <Gold.PLP.Chemscore.Internal.Correction>
1.9786

