#       Name:                EN300-120148_i001
#       Creating user name   aseyller
#       Creation time:       Fri Apr 21 19:48:17 2023


#       File generated by GOLD software.
#

@<TRIPOS>MOLECULE
EN300-120148_i001|Sulfonylchlorides|mol2|910|dock20
    32    32     1
SMALL
USER_CHARGES


@<TRIPOS>ATOM
      1 C1          28.8686  37.1117  41.6373 C.3            1 <1>                0.0000
      2 C2          27.9374  36.3191  40.7179 C.3            1 <1>                0.0000
      3 C3          27.7890  34.8922  41.2496 C.3            1 <1>                0.0000
      4 C4          26.5647  36.9937  40.6778 C.3            1 <1>                0.0000
      5 C5          28.5272  36.2788  39.3067 C.3            1 <1>                0.0000
      6 C6          28.3202  37.6351  38.6287 C.3            1 <1>                0.0000
      7 C7          28.8808  37.5801  37.2040 C.3            1 <1>                0.0000
      8 N8          30.2823  37.1430  37.2639 N.pl3          1 <1>                0.0000
      9 C9          30.6038  35.8967  37.9722 C.3            1 <1>                0.0000
     10 C10         30.0240  35.9704  39.3882 C.3            1 <1>                0.0000
     11 S11         31.4765  38.0380  36.5462 S.o2           1 <1>                0.0000
     12 O12         31.0420  39.3905  36.5839 O.2            1 <1>                0.0000
     13 O13         32.7030  37.5997  37.1143 O.2            1 <1>                0.0000
     14 Cl14        31.5299  37.5103  34.5971 Cl             1 <1>                0.0000
     15 H15         29.8465  36.6311  41.6659 H              1 <1>                0.0000
     16 H16         28.9744  38.1283  41.2586 H              1 <1>                0.0000
     17 H17         28.4485  37.1405  42.6427 H              1 <1>                0.0000
     18 H18         27.3688  34.9209  42.2549 H              1 <1>                0.0000
     19 H19         27.1256  34.3275  40.5945 H              1 <1>                0.0000
     20 H20         28.7669  34.4116  41.2781 H              1 <1>                0.0000
     21 H21         26.6705  38.0103  40.2991 H              1 <1>                0.0000
     22 H22         25.9013  36.4291  40.0227 H              1 <1>                0.0000
     23 H23         26.1446  37.0225  41.6832 H              1 <1>                0.0000
     24 H24         28.0278  35.5028  38.7265 H              1 <1>                0.0000
     25 H25         27.2552  37.8647  38.5920 H              1 <1>                0.0000
     26 H26         28.8402  38.4079  39.1947 H              1 <1>                0.0000
     27 H27         28.3022  36.8721  36.6108 H              1 <1>                0.0000
     28 H28         28.8258  38.5702  36.7513 H              1 <1>                0.0000
     29 H29         30.1658  35.0513  37.4415 H              1 <1>                0.0000
     30 H30         31.6859  35.7759  38.0263 H              1 <1>                0.0000
     31 H31         30.5279  36.7589  39.9471 H              1 <1>                0.0000
     32 H32         30.1718  35.0153  39.8921 H              1 <1>                0.0000
@<TRIPOS>BOND
    1    1    2 1     
    2    1   15 1     
    3    1   16 1     
    4    1   17 1     
    5    2    3 1     
    6    2    4 1     
    7    2    5 1     
    8    3   18 1     
    9    3   19 1     
   10    3   20 1     
   11    4   21 1     
   12    4   22 1     
   13    4   23 1     
   14    5    6 1     
   15    5   10 1     
   16    5   24 1     
   17    6    7 1     
   18    6   25 1     
   19    6   26 1     
   20    7    8 1     
   21    7   27 1     
   22    7   28 1     
   23    8    9 1     
   24    8   11 1     
   25    9   10 1     
   26    9   29 1     
   27    9   30 1     
   28   10   31 1     
   29   10   32 1     
   30   11   12 2     
   31   11   13 2     
   32   11   14 1     
@<TRIPOS>SUBSTRUCTURE
      1 ****           1
@<TRIPOS>COMMENT
> <Gold.Version>
2022.2.0

> <Gold.Id.Protein>
1qkm|1qkm_protein|mol2

> <Gold.Protein.RotatedTorsions>
[  496  491  490  487 ] final  135.38 input  -89.99 | X-H torsion

> <Gold.Protein.ActiveResidues>
 MET295  LEU298  THR299  LEU301  ALA302  GLU305  TRP335  MET336  LEU339  MET340 
 GLY342  LEU343  ARG346  PHE356  ILE373  ILE376  PHE377  LEU380  LYS471  GLY472 
 MET473  HIS475  LEU476  LEU477  ASN478  MET479  VAL484  VAL487 

> <Gold.Protein.RotatedAtoms>
   37.1875   32.9971   41.3965 H   0  0  0  0  0  0  0  0  0  0  0  0  # atno 496  bound_to 491 

> <Gold.Score>
     Score     S(PLP)   S(hbond)     S(cho)   S(metal)  DE(clash)   DE(tors)     intcor
     36.35     -37.05       0.00       0.00       0.00       0.00       1.34       1.98

> <Gold.PLP.Fitness>
36.3491

> <Gold.PLP.PLP>
-37.0535

> <Gold.PLP.part.hbond>
0.0000

> <Gold.PLP.part.metal>
0.0000

> <Gold.PLP.part.buried>
-0.0365

> <Gold.PLP.part.nonpolar>
-36.7714

> <Gold.PLP.part.repulsive>
0.0000

> <Gold.PLP.ligand.clash>
0.0000

> <Gold.PLP.ligand.torsion>
1.3415

> <Gold.PLP.Chemscore.Hbond>
0.0000

> <Gold.PLP.Chemscore.CHOScore>
0.0000

> <Gold.PLP.Chemscore.Metal>
0.0000

> <Gold.PLP.Chemscore.Internal.Correction>
1.9786

