#       Name:                EN300-120148_i001
#       Creating user name   aseyller
#       Creation time:       Fri Apr 21 19:48:02 2023


#       File generated by GOLD software.
#

@<TRIPOS>MOLECULE
EN300-120148_i001|Sulfonylchlorides|mol2|910|dock2
    32    32     1
SMALL
USER_CHARGES


@<TRIPOS>ATOM
      1 C1          25.8209  37.5986  39.3635 C.3            1 <1>                0.0000
      2 C2          26.7744  36.4088  39.4886 C.3            1 <1>                0.0000
      3 C3          26.6498  35.8001  40.8868 C.3            1 <1>                0.0000
      4 C4          26.4149  35.3545  38.4397 C.3            1 <1>                0.0000
      5 C5          28.2122  36.8816  39.2645 C.3            1 <1>                0.0000
      6 C6          29.1520  35.6737  39.2652 C.3            1 <1>                0.0000
      7 C7          30.5943  36.1539  39.0752 C.3            1 <1>                0.0000
      8 N8          30.6638  36.9719  37.8566 N.pl3          1 <1>                0.0000
      9 C9          29.7403  38.1055  37.7132 C.3            1 <1>                0.0000
     10 C10         28.3076  37.6035  37.9185 C.3            1 <1>                0.0000
     11 S11         31.7623  36.6228  36.6677 S.o2           1 <1>                0.0000
     12 O12         32.7116  37.6803  36.6755 O.2            1 <1>                0.0000
     13 O13         32.1183  35.2577  36.8383 O.2            1 <1>                0.0000
     14 Cl14        30.7900  36.7423  34.9012 Cl             1 <1>                0.0000
     15 H15         26.0770  38.3496  40.1108 H              1 <1>                0.0000
     16 H16         25.9097  38.0323  38.3674 H              1 <1>                0.0000
     17 H17         24.7967  37.2618  39.5232 H              1 <1>                0.0000
     18 H18         25.6256  35.4633  41.0465 H              1 <1>                0.0000
     19 H19         27.3292  34.9524  40.9759 H              1 <1>                0.0000
     20 H20         26.9060  36.5511  41.6341 H              1 <1>                0.0000
     21 H21         26.5037  35.7882  37.4436 H              1 <1>                0.0000
     22 H22         27.0943  34.5068  38.5287 H              1 <1>                0.0000
     23 H23         25.3907  35.0177  38.5993 H              1 <1>                0.0000
     24 H24         28.4985  37.5649  40.0640 H              1 <1>                0.0000
     25 H25         29.0663  35.1465  40.2154 H              1 <1>                0.0000
     26 H26         28.8819  35.0021  38.4503 H              1 <1>                0.0000
     27 H27         30.8964  36.7522  39.9347 H              1 <1>                0.0000
     28 H28         31.2559  35.2933  38.9758 H              1 <1>                0.0000
     29 H29         29.9727  38.8632  38.4617 H              1 <1>                0.0000
     30 H30         29.8383  38.5327  36.7152 H              1 <1>                0.0000
     31 H31         28.0454  36.9137  37.1163 H              1 <1>                0.0000
     32 H32         27.6208  38.4499  37.9101 H              1 <1>                0.0000
@<TRIPOS>BOND
    1    1    2 1     
    2    1   15 1     
    3    1   16 1     
    4    1   17 1     
    5    2    3 1     
    6    2    4 1     
    7    2    5 1     
    8    3   18 1     
    9    3   19 1     
   10    3   20 1     
   11    4   21 1     
   12    4   22 1     
   13    4   23 1     
   14    5    6 1     
   15    5   10 1     
   16    5   24 1     
   17    6    7 1     
   18    6   25 1     
   19    6   26 1     
   20    7    8 1     
   21    7   27 1     
   22    7   28 1     
   23    8    9 1     
   24    8   11 1     
   25    9   10 1     
   26    9   29 1     
   27    9   30 1     
   28   10   31 1     
   29   10   32 1     
   30   11   12 2     
   31   11   13 2     
   32   11   14 1     
@<TRIPOS>SUBSTRUCTURE
      1 ****           1
@<TRIPOS>COMMENT
> <Gold.Version>
2022.2.0

> <Gold.Id.Protein>
1qkm|1qkm_protein|mol2

> <Gold.Protein.RotatedTorsions>
[  496  491  490  487 ] final -148.59 input  -89.99 | X-H torsion

> <Gold.Protein.ActiveResidues>
 MET295  LEU298  THR299  LEU301  ALA302  GLU305  TRP335  MET336  LEU339  MET340 
 GLY342  LEU343  ARG346  PHE356  ILE373  ILE376  PHE377  LEU380  LYS471  GLY472 
 MET473  HIS475  LEU476  LEU477  ASN478  MET479  VAL484  VAL487 

> <Gold.Protein.RotatedAtoms>
   37.2239   33.9419   40.7214 H   0  0  0  0  0  0  0  0  0  0  0  0  # atno 496  bound_to 491 

> <Gold.Score>
     Score     S(PLP)   S(hbond)     S(cho)   S(metal)  DE(clash)   DE(tors)     intcor
     41.14     -41.49       0.00       0.00       0.00       0.00       1.17       1.98

> <Gold.PLP.Fitness>
41.1399

> <Gold.PLP.PLP>
-41.4939

> <Gold.PLP.part.hbond>
0.0000

> <Gold.PLP.part.metal>
0.0000

> <Gold.PLP.part.buried>
-2.2253

> <Gold.PLP.part.nonpolar>
-39.5807

> <Gold.PLP.part.repulsive>
0.0103

> <Gold.PLP.ligand.clash>
0.0000

> <Gold.PLP.ligand.torsion>
1.1665

> <Gold.PLP.Chemscore.Hbond>
0.0000

> <Gold.PLP.Chemscore.CHOScore>
0.0000

> <Gold.PLP.Chemscore.Metal>
0.0000

> <Gold.PLP.Chemscore.Internal.Correction>
1.9791

