#       Name:                EN300-120148_i001
#       Creating user name   aseyller
#       Creation time:       Fri Apr 21 19:48:04 2023


#       File generated by GOLD software.
#

@<TRIPOS>MOLECULE
EN300-120148_i001|Sulfonylchlorides|mol2|910|dock5
    32    32     1
SMALL
USER_CHARGES


@<TRIPOS>ATOM
      1 C1          26.2626  36.4110  40.7579 C.3            1 <1>                0.0000
      2 C2          26.6605  36.6973  39.3087 C.3            1 <1>                0.0000
      3 C3          26.3475  35.4753  38.4429 C.3            1 <1>                0.0000
      4 C4          25.8731  37.9033  38.7923 C.3            1 <1>                0.0000
      5 C5          28.1588  36.9997  39.2413 C.3            1 <1>                0.0000
      6 C6          28.9496  35.7474  39.6269 C.3            1 <1>                0.0000
      7 C7          30.4481  36.0637  39.5919 C.3            1 <1>                0.0000
      8 N8          30.7860  36.6074  38.2694 N.pl3          1 <1>                0.0000
      9 C9          30.0241  37.7568  37.7625 C.3            1 <1>                0.0000
     10 C10         28.5304  37.4216  37.8179 C.3            1 <1>                0.0000
     11 S11         32.0026  35.9375  37.3676 S.o2           1 <1>                0.0000
     12 O12         31.6294  36.1006  36.0062 O.2            1 <1>                0.0000
     13 O13         33.2207  36.4348  37.9045 O.2            1 <1>                0.0000
     14 Cl14        31.9896  33.9500  37.7284 Cl             1 <1>                0.0000
     15 H15         26.8235  35.5518  41.1258 H              1 <1>                0.0000
     16 H16         26.4856  37.2815  41.3748 H              1 <1>                0.0000
     17 H17         25.1952  36.1955  40.8059 H              1 <1>                0.0000
     18 H18         25.2801  35.2598  38.4908 H              1 <1>                0.0000
     19 H19         26.6310  35.6793  37.4103 H              1 <1>                0.0000
     20 H20         26.9085  34.6161  38.8107 H              1 <1>                0.0000
     21 H21         26.0961  38.7738  39.4091 H              1 <1>                0.0000
     22 H22         26.1567  38.1073  37.7598 H              1 <1>                0.0000
     23 H23         24.8057  37.6878  38.8403 H              1 <1>                0.0000
     24 H24         28.3977  37.8073  39.9333 H              1 <1>                0.0000
     25 H25         28.6672  35.4339  40.6319 H              1 <1>                0.0000
     26 H26         28.7302  34.9468  38.9204 H              1 <1>                0.0000
     27 H27         30.6842  36.7994  40.3607 H              1 <1>                0.0000
     28 H28         31.0183  35.1517  39.7686 H              1 <1>                0.0000
     29 H29         30.2257  38.6308  38.3821 H              1 <1>                0.0000
     30 H30         30.3146  37.9620  36.7321 H              1 <1>                0.0000
     31 H31         28.3149  36.6053  37.1286 H              1 <1>                0.0000
     32 H32         27.9497  38.2998  37.5355 H              1 <1>                0.0000
@<TRIPOS>BOND
    1    1    2 1     
    2    1   15 1     
    3    1   16 1     
    4    1   17 1     
    5    2    3 1     
    6    2    4 1     
    7    2    5 1     
    8    3   18 1     
    9    3   19 1     
   10    3   20 1     
   11    4   21 1     
   12    4   22 1     
   13    4   23 1     
   14    5    6 1     
   15    5   10 1     
   16    5   24 1     
   17    6    7 1     
   18    6   25 1     
   19    6   26 1     
   20    7    8 1     
   21    7   27 1     
   22    7   28 1     
   23    8    9 1     
   24    8   11 1     
   25    9   10 1     
   26    9   29 1     
   27    9   30 1     
   28   10   31 1     
   29   10   32 1     
   30   11   12 2     
   31   11   13 2     
   32   11   14 1     
@<TRIPOS>SUBSTRUCTURE
      1 ****           1
@<TRIPOS>COMMENT
> <Gold.Version>
2022.2.0

> <Gold.Id.Protein>
1qkm|1qkm_protein|mol2

> <Gold.Protein.RotatedTorsions>
[  496  491  490  487 ] final -167.87 input  -89.99 | X-H torsion

> <Gold.Protein.ActiveResidues>
 MET295  LEU298  THR299  LEU301  ALA302  GLU305  TRP335  MET336  LEU339  MET340 
 GLY342  LEU343  ARG346  PHE356  ILE373  ILE376  PHE377  LEU380  LYS471  GLY472 
 MET473  HIS475  LEU476  LEU477  ASN478  MET479  VAL484  VAL487 

> <Gold.Protein.RotatedAtoms>
   37.2994   33.6415   40.7834 H   0  0  0  0  0  0  0  0  0  0  0  0  # atno 496  bound_to 491 

> <Gold.Score>
     Score     S(PLP)   S(hbond)     S(cho)   S(metal)  DE(clash)   DE(tors)     intcor
     43.14     -43.61       0.00       0.00       0.00       0.00       1.22       1.98

> <Gold.PLP.Fitness>
43.1421

> <Gold.PLP.PLP>
-43.6080

> <Gold.PLP.part.hbond>
0.0000

> <Gold.PLP.part.metal>
0.0000

> <Gold.PLP.part.buried>
-1.2877

> <Gold.PLP.part.nonpolar>
-42.6430

> <Gold.PLP.part.repulsive>
0.0829

> <Gold.PLP.ligand.clash>
0.0000

> <Gold.PLP.ligand.torsion>
1.2225

> <Gold.PLP.Chemscore.Hbond>
0.0000

> <Gold.PLP.Chemscore.CHOScore>
0.0000

> <Gold.PLP.Chemscore.Metal>
0.0000

> <Gold.PLP.Chemscore.Internal.Correction>
1.9791

