#       Name:                EN300-120148_i001
#       Creating user name   aseyller
#       Creation time:       Fri Apr 21 19:48:03 2023


#       File generated by GOLD software.
#

@<TRIPOS>MOLECULE
EN300-120148_i001|Sulfonylchlorides|mol2|910|dock4
    32    32     1
SMALL
USER_CHARGES


@<TRIPOS>ATOM
      1 C1          27.4651  34.8978  39.1053 C.3            1 <1>                0.0000
      2 C2          27.8519  36.0548  40.0285 C.3            1 <1>                0.0000
      3 C3          26.6589  36.9988  40.1905 C.3            1 <1>                0.0000
      4 C4          28.2547  35.5025  41.3973 C.3            1 <1>                0.0000
      5 C5          29.0292  36.8203  39.4210 C.3            1 <1>                0.0000
      6 C6          30.1436  35.8366  39.0570 C.3            1 <1>                0.0000
      7 C7          31.3340  36.6100  38.4812 C.3            1 <1>                0.0000
      8 N8          30.8648  37.4327  37.3580 N.pl3          1 <1>                0.0000
      9 C9          29.7366  38.3483  37.5760 C.3            1 <1>                0.0000
     10 C10         28.5641  37.5555  38.1619 C.3            1 <1>                0.0000
     11 S11         31.5939  37.3302  35.8747 S.o2           1 <1>                0.0000
     12 O12         30.5516  37.3877  34.9105 O.2            1 <1>                0.0000
     13 O13         32.6820  38.2438  35.8984 O.2            1 <1>                0.0000
     14 Cl14        32.4018  35.4844  35.7318 Cl             1 <1>                0.0000
     15 H15         27.1781  35.2912  38.1302 H              1 <1>                0.0000
     16 H16         28.3150  34.2252  38.9899 H              1 <1>                0.0000
     17 H17         26.6264  34.3524  39.5381 H              1 <1>                0.0000
     18 H18         25.8202  36.4536  40.6233 H              1 <1>                0.0000
     19 H19         26.9345  37.8232  40.8482 H              1 <1>                0.0000
     20 H20         26.3720  37.3924  39.2153 H              1 <1>                0.0000
     21 H21         29.1046  34.8299  41.2819 H              1 <1>                0.0000
     22 H22         28.5304  36.3268  42.0550 H              1 <1>                0.0000
     23 H23         27.4160  34.9571  41.8301 H              1 <1>                0.0000
     24 H24         29.4050  37.5429  40.1453 H              1 <1>                0.0000
     25 H25         30.4582  35.2965  39.9501 H              1 <1>                0.0000
     26 H26         29.7758  35.1288  38.3140 H              1 <1>                0.0000
     27 H27         31.7597  37.2524  39.2520 H              1 <1>                0.0000
     28 H28         32.0900  35.9080  38.1292 H              1 <1>                0.0000
     29 H29         30.0319  39.1327  38.2730 H              1 <1>                0.0000
     30 H30         29.4386  38.7935  36.6266 H              1 <1>                0.0000
     31 H31         28.2112  36.8316  37.4274 H              1 <1>                0.0000
     32 H32         27.7545  38.2390  38.4179 H              1 <1>                0.0000
@<TRIPOS>BOND
    1    1    2 1     
    2    1   15 1     
    3    1   16 1     
    4    1   17 1     
    5    2    3 1     
    6    2    4 1     
    7    2    5 1     
    8    3   18 1     
    9    3   19 1     
   10    3   20 1     
   11    4   21 1     
   12    4   22 1     
   13    4   23 1     
   14    5    6 1     
   15    5   10 1     
   16    5   24 1     
   17    6    7 1     
   18    6   25 1     
   19    6   26 1     
   20    7    8 1     
   21    7   27 1     
   22    7   28 1     
   23    8    9 1     
   24    8   11 1     
   25    9   10 1     
   26    9   29 1     
   27    9   30 1     
   28   10   31 1     
   29   10   32 1     
   30   11   12 2     
   31   11   13 2     
   32   11   14 1     
@<TRIPOS>SUBSTRUCTURE
      1 ****           1
@<TRIPOS>COMMENT
> <Gold.Version>
2022.2.0

> <Gold.Id.Protein>
1qkm|1qkm_protein|mol2

> <Gold.Protein.RotatedTorsions>
[  496  491  490  487 ] final   18.35 input  -89.99 | X-H torsion

> <Gold.Protein.ActiveResidues>
 MET295  LEU298  THR299  LEU301  ALA302  GLU305  TRP335  MET336  LEU339  MET340 
 GLY342  LEU343  ARG346  PHE356  ILE373  ILE376  PHE377  LEU380  LYS471  GLY472 
 MET473  HIS475  LEU476  LEU477  ASN478  MET479  VAL484  VAL487 

> <Gold.Protein.RotatedAtoms>
   36.2965   33.9377   42.3500 H   0  0  0  0  0  0  0  0  0  0  0  0  # atno 496  bound_to 491 

> <Gold.Score>
     Score     S(PLP)   S(hbond)     S(cho)   S(metal)  DE(clash)   DE(tors)     intcor
     40.37     -41.04       0.00       0.00       0.00       0.00       1.33       1.98

> <Gold.PLP.Fitness>
40.3688

> <Gold.PLP.PLP>
-41.0407

> <Gold.PLP.part.hbond>
0.0000

> <Gold.PLP.part.metal>
0.0000

> <Gold.PLP.part.buried>
-3.0641

> <Gold.PLP.part.nonpolar>
-38.3671

> <Gold.PLP.part.repulsive>
0.0993

> <Gold.PLP.ligand.clash>
0.0000

> <Gold.PLP.ligand.torsion>
1.3255

> <Gold.PLP.Chemscore.Hbond>
0.0000

> <Gold.PLP.Chemscore.CHOScore>
0.0000

> <Gold.PLP.Chemscore.Metal>
0.0000

> <Gold.PLP.Chemscore.Internal.Correction>
1.9791

