#       Name:                EN300-120148_i001
#       Creating user name   aseyller
#       Creation time:       Fri Apr 21 19:48:05 2023


#       File generated by GOLD software.
#

@<TRIPOS>MOLECULE
EN300-120148_i001|Sulfonylchlorides|mol2|910|dock6
    32    32     1
SMALL
USER_CHARGES


@<TRIPOS>ATOM
      1 C1          27.3265  35.8425  40.8285 C.3            1 <1>                0.0000
      2 C2          26.9160  36.5230  39.5212 C.3            1 <1>                0.0000
      3 C3          26.5016  35.4605  38.5014 C.3            1 <1>                0.0000
      4 C4          25.7387  37.4643  39.7839 C.3            1 <1>                0.0000
      5 C5          28.0971  37.3249  38.9709 C.3            1 <1>                0.0000
      6 C6          29.3051  36.4010  38.7998 C.3            1 <1>                0.0000
      7 C7          30.4955  37.2142  38.2815 C.3            1 <1>                0.0000
      8 N8          30.0919  37.9134  37.0539 N.pl3          1 <1>                0.0000
      9 C9          28.8899  38.7576  37.0845 C.3            1 <1>                0.0000
     10 C10         27.7175  37.9272  37.6161 C.3            1 <1>                0.0000
     11 S11         30.9755  37.7534  35.6626 S.o2           1 <1>                0.0000
     12 O12         30.3413  36.7363  34.8992 O.2            1 <1>                0.0000
     13 O13         31.1956  39.0692  35.1733 O.2            1 <1>                0.0000
     14 Cl14        32.7872  37.0285  36.1847 Cl             1 <1>                0.0000
     15 H15         28.1651  35.1719  40.6414 H              1 <1>                0.0000
     16 H16         27.6217  36.5995  41.5551 H              1 <1>                0.0000
     17 H17         26.4851  35.2713  41.2206 H              1 <1>                0.0000
     18 H18         25.6601  34.8892  38.8934 H              1 <1>                0.0000
     19 H19         26.2092  35.9453  37.5699 H              1 <1>                0.0000
     20 H20         27.3403  34.7899  38.3142 H              1 <1>                0.0000
     21 H21         26.0340  38.2213  40.5105 H              1 <1>                0.0000
     22 H22         25.4463  37.9492  38.8525 H              1 <1>                0.0000
     23 H23         24.8973  36.8931  40.1760 H              1 <1>                0.0000
     24 H24         28.3480  38.1256  39.6666 H              1 <1>                0.0000
     25 H25         29.5604  35.9542  39.7607 H              1 <1>                0.0000
     26 H26         29.0631  35.6143  38.0851 H              1 <1>                0.0000
     27 H27         30.7963  37.9422  39.0348 H              1 <1>                0.0000
     28 H28         31.3281  36.5451  38.0640 H              1 <1>                0.0000
     29 H29         29.0597  39.6117  37.7401 H              1 <1>                0.0000
     30 H30         28.6631  39.1070  36.0772 H              1 <1>                0.0000
     31 H31         27.4904  37.1262  36.9127 H              1 <1>                0.0000
     32 H32         26.8428  38.5668  37.7346 H              1 <1>                0.0000
@<TRIPOS>BOND
    1    1    2 1     
    2    1   15 1     
    3    1   16 1     
    4    1   17 1     
    5    2    3 1     
    6    2    4 1     
    7    2    5 1     
    8    3   18 1     
    9    3   19 1     
   10    3   20 1     
   11    4   21 1     
   12    4   22 1     
   13    4   23 1     
   14    5    6 1     
   15    5   10 1     
   16    5   24 1     
   17    6    7 1     
   18    6   25 1     
   19    6   26 1     
   20    7    8 1     
   21    7   27 1     
   22    7   28 1     
   23    8    9 1     
   24    8   11 1     
   25    9   10 1     
   26    9   29 1     
   27    9   30 1     
   28   10   31 1     
   29   10   32 1     
   30   11   12 2     
   31   11   13 2     
   32   11   14 1     
@<TRIPOS>SUBSTRUCTURE
      1 ****           1
@<TRIPOS>COMMENT
> <Gold.Version>
2022.2.0

> <Gold.Id.Protein>
1qkm|1qkm_protein|mol2

> <Gold.Protein.RotatedTorsions>
[  496  491  490  487 ] final   13.66 input  -89.99 | X-H torsion

> <Gold.Protein.ActiveResidues>
 MET295  LEU298  THR299  LEU301  ALA302  GLU305  TRP335  MET336  LEU339  MET340 
 GLY342  LEU343  ARG346  PHE356  ILE373  ILE376  PHE377  LEU380  LYS471  GLY472 
 MET473  HIS475  LEU476  LEU477  ASN478  MET479  VAL484  VAL487 

> <Gold.Protein.RotatedAtoms>
   36.2821   34.0104   42.3282 H   0  0  0  0  0  0  0  0  0  0  0  0  # atno 496  bound_to 491 

> <Gold.Score>
     Score     S(PLP)   S(hbond)     S(cho)   S(metal)  DE(clash)   DE(tors)     intcor
     41.87     -42.41       0.00       0.00       0.00       0.00       1.26       1.98

> <Gold.PLP.Fitness>
41.8749

> <Gold.PLP.PLP>
-42.4119

> <Gold.PLP.part.hbond>
0.0000

> <Gold.PLP.part.metal>
0.0000

> <Gold.PLP.part.buried>
-3.0510

> <Gold.PLP.part.nonpolar>
-40.1428

> <Gold.PLP.part.repulsive>
0.0736

> <Gold.PLP.ligand.clash>
0.0000

> <Gold.PLP.ligand.torsion>
1.2578

> <Gold.PLP.Chemscore.Hbond>
0.0000

> <Gold.PLP.Chemscore.CHOScore>
0.0000

> <Gold.PLP.Chemscore.Metal>
0.0000

> <Gold.PLP.Chemscore.Internal.Correction>
1.9786

