#       Name:                plp ligand
#       Creating user name   aseyller
#       Creation time:       Fri Apr 21 19:48:01 2023


#       File generated by GOLD software.
#

@<TRIPOS>MOLECULE
plp ligand
    32    32     1
SMALL
USER_CHARGES


@<TRIPOS>ATOM
      1 C1          -2.6212  -0.4430  -1.1417 NONPOLAR       1 <1>                0.0000
      2 C2          -1.8007   0.3148  -0.0962 NONPOLAR       1 <1>                0.0000
      3 C3          -1.5012   1.7254  -0.6073 NONPOLAR       1 <1>                0.0000
      4 C4          -2.5942   0.4031   1.2090 NONPOLAR       1 <1>                0.0000
      5 C5          -0.4860  -0.4263   0.1555 NONPOLAR       1 <1>                0.0000
      6 C6           0.3076  -0.5145  -1.1501 NONPOLAR       1 <1>                0.0000
      7 C7           1.6070  -1.2871  -0.9020 NONPOLAR       1 <1>                0.0000
      8 N8           2.3334  -0.6480   0.2037 NONPOLAR       1 <1>                0.0000
      9 C9           1.6335  -0.4320   1.4773 NONPOLAR       1 <1>                0.0000
     10 C10          0.3339   0.3310   1.2026 NONPOLAR       1 <1>                0.0000
     11 S11          3.9111  -0.1805   0.0180 NONPOLAR       1 <1>                0.0000
     12 O12          4.5127  -0.2796   1.3016 ACCEPTOR       1 <1>                0.0000
     13 O13          4.4014  -0.8675  -1.1252 ACCEPTOR       1 <1>                0.0000
     14 Cl14         3.9011   1.7828  -0.4571 NONPOLAR       1 <1>                0.0000
     15 H15         -2.0559  -0.5059  -2.0715                1 <1>                0.0000
     16 H16         -2.8346  -1.4480  -0.7776                1 <1>                0.0000
     17 H17         -3.5578   0.0849  -1.3210                1 <1>                0.0000
     18 H18         -2.4377   2.2534  -0.7866                1 <1>                0.0000
     19 H19         -0.9165   2.2653   0.1376                1 <1>                0.0000
     20 H20         -0.9358   1.6625  -1.5371                1 <1>                0.0000
     21 H21         -2.8076  -0.6019   1.5731                1 <1>                0.0000
     22 H22         -2.0096   0.9429   1.9539                1 <1>                0.0000
     23 H23         -3.5308   0.9310   1.0297                1 <1>                0.0000
     24 H24         -0.6996  -1.4314   0.5192                1 <1>                0.0000
     25 H25         -0.2863  -1.0335  -1.9025                1 <1>                0.0000
     26 H26          0.5431   0.4902  -1.5013                1 <1>                0.0000
     27 H27          1.3740  -2.3187  -0.6383                1 <1>                0.0000
     28 H28          2.2212  -1.2677  -1.8023                1 <1>                0.0000
     29 H29          1.4027  -1.3939   1.9352                1 <1>                0.0000
     30 H30          2.2653   0.1516   2.1470                1 <1>                0.0000
     31 H31          0.5691   1.3277   0.8293                1 <1>                0.0000
     32 H32         -0.2413   0.4138   2.1248                1 <1>                0.0000
@<TRIPOS>BOND
    1    1    2 1     
    2    1   15 1     
    3    1   16 1     
    4    1   17 1     
    5    2    3 1     
    6    2    4 1     
    7    2    5 1     
    8    3   18 1     
    9    3   19 1     
   10    3   20 1     
   11    4   21 1     
   12    4   22 1     
   13    4   23 1     
   14    5    6 1     
   15    5   10 1     
   16    5   24 1     
   17    6    7 1     
   18    6   25 1     
   19    6   26 1     
   20    7    8 1     
   21    7   27 1     
   22    7   28 1     
   23    8    9 1     
   24    8   11 1     
   25    9   10 1     
   26    9   29 1     
   27    9   30 1     
   28   10   31 1     
   29   10   32 1     
   30   11   12 2     
   31   11   13 2     
   32   11   14 1     
@<TRIPOS>SUBSTRUCTURE
      1 ****           1
@<TRIPOS>SET
DONOR_HYDROGENS      STATIC     ATOMS    <user>   **** ""
0
ATOM$RED        STATIC     ATOMS    COLORGROUP SYSTEM
0
