#       Name:                EN300-1725852_i002
#       Creating user name   aseyller
#       Creation time:       Sat Apr 22 07:52:54 2023


#       File generated by GOLD software.
#

@<TRIPOS>MOLECULE
EN300-1725852_i002|amine_3|mol2|4084|dock7
    40    42     1
SMALL
USER_CHARGES


@<TRIPOS>ATOM
      1 C1          27.0230  36.6979  42.0220 C.3            1 <1>                0.0000
      2 N2          26.6821  37.0019  40.6301 N.pl3          1 <1>                0.0000
      3 N3          25.4106  37.3380  40.1474 N.2            1 <1>                0.0000
      4 C4          25.5027  37.5380  38.8577 C.2            1 <1>                0.0000
      5 C5          26.8336  37.3362  38.4782 C.2            1 <1>                0.0000
      6 C6          27.5385  37.0133  39.5871 C.2            1 <1>                0.0000
      7 C7          29.0136  36.7105  39.6456 C.3            1 <1>                0.0000
      8 C8          29.6817  36.9863  38.2821 C.3            1 <1>                0.0000
      9 N9          30.6695  35.9154  38.0552 N.4            1 <1>                1.0000
     10 C10         32.0070  36.5020  37.8979 C.3            1 <1>                0.0000
     11 C11         32.1448  37.0735  36.5103 C.ar           1 <1>                0.0000
     12 C12         31.4111  38.1868  36.1453 C.ar           1 <1>                0.0000
     13 C13         31.5375  38.7110  34.8724 C.ar           1 <1>                0.0000
     14 C14         32.3980  38.1222  33.9647 C.ar           1 <1>                0.0000
     15 C15         33.1324  37.0096  34.3301 C.ar           1 <1>                0.0000
     16 C16         33.0092  36.4879  35.6043 C.ar           1 <1>                0.0000
     17 C17         30.6579  35.0090  39.2232 C.3            1 <1>                0.0000
     18 C18         29.2540  35.1918  39.8519 C.3            1 <1>                0.0000
     19 N19         29.2687  34.8506  41.2806 N.3            1 <1>                0.0000
     20 H20         26.9091  35.6283  42.1987 H              1 <1>                0.0000
     21 H21         28.0551  36.9902  42.2155 H              1 <1>                0.0000
     22 H22         26.3585  37.2488  42.6875 H              1 <1>                0.0000
     23 H23         24.6910  37.8116  38.1998 H              1 <1>                0.0000
     24 H24         27.2296  37.4264  37.4774 H              1 <1>                0.0000
     25 H25         29.4937  37.2900  40.4342 H              1 <1>                0.0000
     26 H26         28.9311  36.9719  37.4919 H              1 <1>                0.0000
     27 H27         30.1824  37.9542  38.3035 H              1 <1>                0.0000
     28 H28         32.1448  37.2950  38.6328 H              1 <1>                0.0000
     29 H29         32.7622  35.7307  38.0498 H              1 <1>                0.0000
     30 H30         30.7389  38.6467  36.8545 H              1 <1>                0.0000
     31 H31         30.9637  39.5803  34.5871 H              1 <1>                0.0000
     32 H32         32.4961  38.5314  32.9700 H              1 <1>                0.0000
     33 H33         33.8044  36.5494  33.6208 H              1 <1>                0.0000
     34 H34         33.5830  35.6186  35.8897 H              1 <1>                0.0000
     35 H35         30.7990  33.9765  38.9037 H              1 <1>                0.0000
     36 H36         31.4324  35.2964  39.9342 H              1 <1>                0.0000
     37 H37         28.5078  34.6025  39.3189 H              1 <1>                0.0000
     38 H38         28.8404  33.9514  41.4420 H              1 <1>                0.0000
     39 H39         30.2079  34.8749  41.6485 H              1 <1>                0.0000
     40 H40         30.4248  35.3982  37.2241 H              1 <1>                0.0000
@<TRIPOS>BOND
    1    1    2 1     
    2    1   20 1     
    3    1   21 1     
    4    1   22 1     
    5    2    3 1     
    6    2    6 1     
    7    3    4 2     
    8    4    5 1     
    9    4   23 1     
   10    5    6 2     
   11    5   24 1     
   12    6    7 1     
   13    7    8 1     
   14    7   18 1     
   15    7   25 1     
   16    8    9 1     
   17    8   26 1     
   18    8   27 1     
   19    9   10 1     
   20    9   17 1     
   21    9   40 1     
   22   10   11 1     
   23   10   28 1     
   24   10   29 1     
   25   11   12 ar    
   26   11   16 ar    
   27   12   13 ar    
   28   12   30 1     
   29   13   14 ar    
   30   13   31 1     
   31   14   15 ar    
   32   14   32 1     
   33   15   16 ar    
   34   15   33 1     
   35   16   34 1     
   36   17   18 1     
   37   17   35 1     
   38   17   36 1     
   39   18   19 1     
   40   18   37 1     
   41   19   38 1     
   42   19   39 1     
@<TRIPOS>SUBSTRUCTURE
      1 ****           1
@<TRIPOS>SET
DONOR_HYDROGENS      STATIC     ATOMS    <user>   **** ""
3 40 38 39
ATOM$RED        STATIC     ATOMS    COLORGROUP SYSTEM
3 40 38 39
@<TRIPOS>COMMENT
> <Gold.Version>
2022.2.0

> <Gold.Id.Protein>
1qkm|1qkm_protein|mol2

> <Gold.Protein.RotatedTorsions>
[  496  491  490  487 ] final -147.15 input  -89.99 | X-H torsion

> <Gold.Protein.ActiveResidues>
 MET295  LEU298  THR299  LEU301  ALA302  GLU305  TRP335  MET336  LEU339  MET340 
 GLY342  LEU343  ARG346  PHE356  ILE373  ILE376  PHE377  LEU380  LYS471  GLY472 
 MET473  HIS475  LEU476  LEU477  ASN478  MET479  VAL484  VAL487 

> <Gold.Protein.RotatedAtoms>
   37.2162   33.9643   40.7205 H   0  0  0  0  0  0  0  0  0  0  0  0  # atno 496  bound_to 491 

> <Gold.Score>
     Score     S(PLP)   S(hbond)     S(cho)   S(metal)  DE(clash)   DE(tors)     intcor
     54.98     -52.77       1.00       0.00       0.00       0.01       0.41       0.05

> <Gold.PLP.Fitness>
54.9802

> <Gold.PLP.PLP>
-52.7683

> <Gold.PLP.part.hbond>
-2.0000

> <Gold.PLP.part.metal>
0.0000

> <Gold.PLP.part.buried>
6.2848

> <Gold.PLP.part.nonpolar>
-57.4557

> <Gold.PLP.part.repulsive>
0.1114

> <Gold.PLP.ligand.clash>
0.0082

> <Gold.PLP.ligand.torsion>
0.4141

> <Gold.PLP.Chemscore.Hbond>
1.0000

> <Gold.PLP.Chemscore.CHOScore>
0.0000

> <Gold.PLP.Chemscore.Metal>
0.0000

> <Gold.Chemscore.Hbonds>
donor molecule, donor type, donor heavy atom, donor atom, acceptor molecule, acceptor atom, score
      L1  H    19    39       P1   470  1.00

> <Gold.PLP.Chemscore.Internal.Correction>
0.0483

