#       Name:                EN300-1725852_i002
#       Creating user name   aseyller
#       Creation time:       Sat Apr 22 07:52:49 2023


#       File generated by GOLD software.
#

@<TRIPOS>MOLECULE
EN300-1725852_i002|amine_3|mol2|4084|dock1
    40    42     1
SMALL
USER_CHARGES


@<TRIPOS>ATOM
      1 C1          32.7477  36.8078  34.3390 C.3            1 <1>                0.0000
      2 N2          31.9780  37.9145  34.9125 N.pl3          1 <1>                0.0000
      3 N3          31.9722  39.2386  34.4551 N.2            1 <1>                0.0000
      4 C4          31.1667  39.9314  35.2187 C.2            1 <1>                0.0000
      5 C5          30.6344  39.0721  36.1854 C.2            1 <1>                0.0000
      6 C6          31.1447  37.8373  35.9713 C.2            1 <1>                0.0000
      7 C7          30.8446  36.5998  36.7772 C.3            1 <1>                0.0000
      8 C8          29.7189  36.8724  37.7969 C.3            1 <1>                0.0000
      9 N9          30.0766  36.1674  39.0415 N.4            1 <1>                1.0000
     10 C10         29.0238  35.2015  39.3826 C.3            1 <1>                0.0000
     11 C11         27.7811  35.9417  39.8056 C.ar           1 <1>                0.0000
     12 C12         27.4942  36.0999  41.1486 C.ar           1 <1>                0.0000
     13 C13         26.3543  36.7787  41.5366 C.ar           1 <1>                0.0000
     14 C14         25.5013  37.2997  40.5817 C.ar           1 <1>                0.0000
     15 C15         25.7887  37.1424  39.2387 C.ar           1 <1>                0.0000
     16 C16         26.9309  36.4672  38.8507 C.ar           1 <1>                0.0000
     17 C17         31.3549  35.4556  38.8285 C.3            1 <1>                0.0000
     18 C18         32.0505  36.2269  37.6792 C.3            1 <1>                0.0000
     19 N19         32.9965  35.3618  36.9620 N.3            1 <1>                0.0000
     20 H20         33.7222  36.7533  34.8242 H              1 <1>                0.0000
     21 H21         32.2108  35.8723  34.4957 H              1 <1>                0.0000
     22 H22         32.8828  36.9746  33.2704 H              1 <1>                0.0000
     23 H23         30.9504  40.9849  35.1197 H              1 <1>                0.0000
     24 H24         29.9359  39.3450  36.9626 H              1 <1>                0.0000
     25 H25         30.5787  35.7701  36.1223 H              1 <1>                0.0000
     26 H26         29.6415  37.9431  37.9863 H              1 <1>                0.0000
     27 H27         28.7718  36.4919  37.4143 H              1 <1>                0.0000
     28 H28         28.8006  34.5847  38.5122 H              1 <1>                0.0000
     29 H29         29.3645  34.5664  40.2003 H              1 <1>                0.0000
     30 H30         28.1606  35.6928  41.8947 H              1 <1>                0.0000
     31 H31         26.1298  36.9016  42.5859 H              1 <1>                0.0000
     32 H32         24.6103  37.8294  40.8848 H              1 <1>                0.0000
     33 H33         25.1221  37.5491  38.4926 H              1 <1>                0.0000
     34 H34         27.1554  36.3443  37.8015 H              1 <1>                0.0000
     35 H35         31.9638  35.4905  39.7319 H              1 <1>                0.0000
     36 H36         31.1695  34.4226  38.5344 H              1 <1>                0.0000
     37 H37         32.5486  37.1209  38.0545 H              1 <1>                0.0000
     38 H38         33.4269  35.8551  36.1941 H              1 <1>                0.0000
     39 H39         33.6940  34.9904  37.5894 H              1 <1>                0.0000
     40 H40         30.1825  36.8344  39.7912 H              1 <1>                0.0000
@<TRIPOS>BOND
    1    1    2 1     
    2    1   20 1     
    3    1   21 1     
    4    1   22 1     
    5    2    3 1     
    6    2    6 1     
    7    3    4 2     
    8    4    5 1     
    9    4   23 1     
   10    5    6 2     
   11    5   24 1     
   12    6    7 1     
   13    7    8 1     
   14    7   18 1     
   15    7   25 1     
   16    8    9 1     
   17    8   26 1     
   18    8   27 1     
   19    9   10 1     
   20    9   17 1     
   21    9   40 1     
   22   10   11 1     
   23   10   28 1     
   24   10   29 1     
   25   11   12 ar    
   26   11   16 ar    
   27   12   13 ar    
   28   12   30 1     
   29   13   14 ar    
   30   13   31 1     
   31   14   15 ar    
   32   14   32 1     
   33   15   16 ar    
   34   15   33 1     
   35   16   34 1     
   36   17   18 1     
   37   17   35 1     
   38   17   36 1     
   39   18   19 1     
   40   18   37 1     
   41   19   38 1     
   42   19   39 1     
@<TRIPOS>SUBSTRUCTURE
      1 ****           1
@<TRIPOS>SET
DONOR_HYDROGENS      STATIC     ATOMS    <user>   **** ""
3 40 38 39
ATOM$RED        STATIC     ATOMS    COLORGROUP SYSTEM
3 40 38 39
@<TRIPOS>COMMENT
> <Gold.Version>
2022.2.0

> <Gold.Id.Protein>
1qkm|1qkm_protein|mol2

> <Gold.Protein.RotatedTorsions>
[  496  491  490  487 ] final  -88.41 input  -89.99 | X-H torsion

> <Gold.Protein.ActiveResidues>
 MET295  LEU298  THR299  LEU301  ALA302  GLU305  TRP335  MET336  LEU339  MET340 
 GLY342  LEU343  ARG346  PHE356  ILE373  ILE376  PHE377  LEU380  LYS471  GLY472 
 MET473  HIS475  LEU476  LEU477  ASN478  MET479  VAL484  VAL487 

> <Gold.Protein.RotatedAtoms>
   36.7427   34.6634   41.0984 H   0  0  0  0  0  0  0  0  0  0  0  0  # atno 496  bound_to 491 

> <Gold.Score>
     Score     S(PLP)   S(hbond)     S(cho)   S(metal)  DE(clash)   DE(tors)     intcor
     57.22     -58.21       0.00       0.00       0.00       0.00       0.54       0.09

> <Gold.PLP.Fitness>
57.2179

> <Gold.PLP.PLP>
-58.2062

> <Gold.PLP.part.hbond>
0.0000

> <Gold.PLP.part.metal>
0.0000

> <Gold.PLP.part.buried>
0.5327

> <Gold.PLP.part.nonpolar>
-59.8662

> <Gold.PLP.part.repulsive>
0.0693

> <Gold.PLP.ligand.clash>
0.0000

> <Gold.PLP.ligand.torsion>
0.5383

> <Gold.PLP.Chemscore.Hbond>
0.0000

> <Gold.PLP.Chemscore.CHOScore>
0.0000

> <Gold.PLP.Chemscore.Metal>
0.0000

> <Gold.PLP.Chemscore.Internal.Correction>
0.0883

