#       Name:                EN300-1725852_i002
#       Creating user name   aseyller
#       Creation time:       Sat Apr 22 07:52:57 2023


#       File generated by GOLD software.
#

@<TRIPOS>MOLECULE
EN300-1725852_i002|amine_3|mol2|4084|dock12
    40    42     1
SMALL
USER_CHARGES


@<TRIPOS>ATOM
      1 C1          26.4280  36.3526  38.4412 C.3            1 <1>                0.0000
      2 N2          26.5689  36.4712  39.8946 N.pl3          1 <1>                0.0000
      3 N3          25.5278  36.4194  40.8305 N.2            1 <1>                0.0000
      4 C4          26.0439  36.5622  42.0243 C.2            1 <1>                0.0000
      5 C5          27.4281  36.7091  41.8872 C.2            1 <1>                0.0000
      6 C6          27.7252  36.6438  40.5687 C.2            1 <1>                0.0000
      7 C7          29.0998  36.7543  39.9611 C.3            1 <1>                0.0000
      8 C8          29.1295  37.8496  38.8744 C.3            1 <1>                0.0000
      9 N9          29.9683  37.3473  37.7706 N.4            1 <1>                1.0000
     10 C10         31.0981  38.2604  37.5533 C.3            1 <1>                0.0000
     11 C11         31.9002  37.7935  36.3661 C.ar           1 <1>                0.0000
     12 C12         32.8712  36.8227  36.5265 C.ar           1 <1>                0.0000
     13 C13         33.6070  36.3945  35.4374 C.ar           1 <1>                0.0000
     14 C14         33.3716  36.9367  34.1878 C.ar           1 <1>                0.0000
     15 C15         32.3999  37.9067  34.0272 C.ar           1 <1>                0.0000
     16 C16         31.6611  38.3320  35.1155 C.ar           1 <1>                0.0000
     17 C17         30.4746  36.0072  38.1364 C.3            1 <1>                0.0000
     18 C18         29.4550  35.4677  39.1703 C.3            1 <1>                0.0000
     19 N19         30.0750  34.4654  40.0472 N.3            1 <1>                0.0000
     20 H20         26.2781  37.3419  38.0088 H              1 <1>                0.0000
     21 H21         27.3307  35.9066  38.0238 H              1 <1>                0.0000
     22 H22         25.5702  35.7212  38.2096 H              1 <1>                0.0000
     23 H23         25.4957  36.5661  42.9548 H              1 <1>                0.0000
     24 H24         28.1353  36.8461  42.6919 H              1 <1>                0.0000
     25 H25         29.8450  36.9549  40.7308 H              1 <1>                0.0000
     26 H26         28.1188  38.0420  38.5141 H              1 <1>                0.0000
     27 H27         29.5608  38.7642  39.2813 H              1 <1>                0.0000
     28 H28         30.7217  39.2658  37.3648 H              1 <1>                0.0000
     29 H29         31.7329  38.2704  38.4395 H              1 <1>                0.0000
     30 H30         33.0552  36.3992  37.5028 H              1 <1>                0.0000
     31 H31         34.3661  35.6366  35.5629 H              1 <1>                0.0000
     32 H32         33.9470  36.6026  33.3370 H              1 <1>                0.0000
     33 H33         32.2162  38.3306  33.0510 H              1 <1>                0.0000
     34 H34         30.9020  39.0898  34.9901 H              1 <1>                0.0000
     35 H35         30.5043  35.3604  37.2596 H              1 <1>                0.0000
     36 H36         31.4648  36.0853  38.5853 H              1 <1>                0.0000
     37 H37         28.5748  35.0590  38.6740 H              1 <1>                0.0000
     38 H38         30.4313  33.6878  39.5121 H              1 <1>                0.0000
     39 H39         30.8018  34.8790  40.6118 H              1 <1>                0.0000
     40 H40         29.4170  37.2814  36.9280 H              1 <1>                0.0000
@<TRIPOS>BOND
    1    1    2 1     
    2    1   20 1     
    3    1   21 1     
    4    1   22 1     
    5    2    3 1     
    6    2    6 1     
    7    3    4 2     
    8    4    5 1     
    9    4   23 1     
   10    5    6 2     
   11    5   24 1     
   12    6    7 1     
   13    7    8 1     
   14    7   18 1     
   15    7   25 1     
   16    8    9 1     
   17    8   26 1     
   18    8   27 1     
   19    9   10 1     
   20    9   17 1     
   21    9   40 1     
   22   10   11 1     
   23   10   28 1     
   24   10   29 1     
   25   11   12 ar    
   26   11   16 ar    
   27   12   13 ar    
   28   12   30 1     
   29   13   14 ar    
   30   13   31 1     
   31   14   15 ar    
   32   14   32 1     
   33   15   16 ar    
   34   15   33 1     
   35   16   34 1     
   36   17   18 1     
   37   17   35 1     
   38   17   36 1     
   39   18   19 1     
   40   18   37 1     
   41   19   38 1     
   42   19   39 1     
@<TRIPOS>SUBSTRUCTURE
      1 ****           1
@<TRIPOS>SET
DONOR_HYDROGENS      STATIC     ATOMS    <user>   **** ""
3 40 38 39
ATOM$RED        STATIC     ATOMS    COLORGROUP SYSTEM
3 40 38 39
@<TRIPOS>COMMENT
> <Gold.Version>
2022.2.0

> <Gold.Id.Protein>
1qkm|1qkm_protein|mol2

> <Gold.Protein.RotatedTorsions>
[  496  491  490  487 ] final -110.78 input  -89.99 | X-H torsion

> <Gold.Protein.ActiveResidues>
 MET295  LEU298  THR299  LEU301  ALA302  GLU305  TRP335  MET336  LEU339  MET340 
 GLY342  LEU343  ARG346  PHE356  ILE373  ILE376  PHE377  LEU380  LYS471  GLY472 
 MET473  HIS475  LEU476  LEU477  ASN478  MET479  VAL484  VAL487 

> <Gold.Protein.RotatedAtoms>
   36.9471   34.4668   40.8672 H   0  0  0  0  0  0  0  0  0  0  0  0  # atno 496  bound_to 491 

> <Gold.Score>
     Score     S(PLP)   S(hbond)     S(cho)   S(metal)  DE(clash)   DE(tors)     intcor
     52.02     -48.46       1.00       0.43       0.00       0.00       0.40       0.05

> <Gold.PLP.Fitness>
52.0218

> <Gold.PLP.PLP>
-48.4635

> <Gold.PLP.part.hbond>
-1.0000

> <Gold.PLP.part.metal>
0.0000

> <Gold.PLP.part.buried>
6.6608

> <Gold.PLP.part.nonpolar>
-55.2000

> <Gold.PLP.part.repulsive>
0.1984

> <Gold.PLP.ligand.clash>
0.0000

> <Gold.PLP.ligand.torsion>
0.3962

> <Gold.PLP.Chemscore.Hbond>
1.0000

> <Gold.PLP.Chemscore.CHOScore>
0.4341

> <Gold.PLP.Chemscore.Metal>
0.0000

> <Gold.Chemscore.Hbonds>
donor molecule, donor type, donor heavy atom, donor atom, acceptor molecule, acceptor atom, score
      L1  H    19    39       P1   470  1.00
      L1  C     4    23       P1   582  0.43

> <Gold.PLP.Chemscore.Internal.Correction>
0.0483

