#       Name:                EN300-1725852_i002
#       Creating user name   aseyller
#       Creation time:       Sat Apr 22 07:52:59 2023


#       File generated by GOLD software.
#

@<TRIPOS>MOLECULE
EN300-1725852_i002|amine_3|mol2|4084|dock16
    40    42     1
SMALL
USER_CHARGES


@<TRIPOS>ATOM
      1 C1          30.5324  39.9809  36.2812 C.3            1 <1>                0.0000
      2 N2          31.2902  38.9802  35.5258 N.pl3          1 <1>                0.0000
      3 N3          32.2566  39.2445  34.5467 N.2            1 <1>                0.0000
      4 C4          32.7098  38.1011  34.1006 C.2            1 <1>                0.0000
      5 C5          32.0477  37.0735  34.7802 C.2            1 <1>                0.0000
      6 C6          31.1848  37.6409  35.6545 C.2            1 <1>                0.0000
      7 C7          30.2636  36.9087  36.5958 C.3            1 <1>                0.0000
      8 C8          28.8439  37.5119  36.5491 C.3            1 <1>                0.0000
      9 N9          28.3280  37.5220  37.9304 N.4            1 <1>                1.0000
     10 C10         27.0940  36.7284  38.0029 C.3            1 <1>                0.0000
     11 C11         26.6407  36.6345  39.4370 C.ar           1 <1>                0.0000
     12 C12         25.7942  37.5949  39.9587 C.ar           1 <1>                0.0000
     13 C13         25.3785  37.5087  41.2742 C.ar           1 <1>                0.0000
     14 C14         25.8088  36.4620  42.0680 C.ar           1 <1>                0.0000
     15 C15         26.6545  35.5011  41.5460 C.ar           1 <1>                0.0000
     16 C16         27.0669  35.5849  40.2292 C.ar           1 <1>                0.0000
     17 C17         29.3516  36.9327  38.8196 C.3            1 <1>                0.0000
     18 C18         30.6917  37.1361  38.0696 C.3            1 <1>                0.0000
     19 N19         31.6858  36.1390  38.4886 N.3            1 <1>                0.0000
     20 H20         29.6139  40.2213  35.7458 H              1 <1>                0.0000
     21 H21         30.2857  39.5830  37.2655 H              1 <1>                0.0000
     22 H22         31.1338  40.8829  36.3941 H              1 <1>                0.0000
     23 H23         33.4646  37.9729  33.3388 H              1 <1>                0.0000
     24 H24         32.2013  36.0142  34.6358 H              1 <1>                0.0000
     25 H25         30.2384  35.8451  36.3587 H              1 <1>                0.0000
     26 H26         28.8861  38.5298  36.1616 H              1 <1>                0.0000
     27 H27         28.2010  36.8987  35.9176 H              1 <1>                0.0000
     28 H28         26.3176  37.2086  37.4072 H              1 <1>                0.0000
     29 H29         27.2824  35.7273  37.6151 H              1 <1>                0.0000
     30 H30         25.4581  38.4127  39.3386 H              1 <1>                0.0000
     31 H31         24.7178  38.2595  41.6820 H              1 <1>                0.0000
     32 H32         25.4846  36.3951  43.0960 H              1 <1>                0.0000
     33 H33         26.9910  34.6835  42.1663 H              1 <1>                0.0000
     34 H34         27.7275  34.8342  39.8214 H              1 <1>                0.0000
     35 H35         29.3692  37.4547  39.7763 H              1 <1>                0.0000
     36 H36         29.1580  35.8705  38.9693 H              1 <1>                0.0000
     37 H37         31.0705  38.1478  38.2145 H              1 <1>                0.0000
     38 H38         31.5121  35.2480  38.0481 H              1 <1>                0.0000
     39 H39         32.6229  36.4603  38.2973 H              1 <1>                0.0000
     40 H40         28.1393  38.4714  38.2154 H              1 <1>                0.0000
@<TRIPOS>BOND
    1    1    2 1     
    2    1   20 1     
    3    1   21 1     
    4    1   22 1     
    5    2    3 1     
    6    2    6 1     
    7    3    4 2     
    8    4    5 1     
    9    4   23 1     
   10    5    6 2     
   11    5   24 1     
   12    6    7 1     
   13    7    8 1     
   14    7   18 1     
   15    7   25 1     
   16    8    9 1     
   17    8   26 1     
   18    8   27 1     
   19    9   10 1     
   20    9   17 1     
   21    9   40 1     
   22   10   11 1     
   23   10   28 1     
   24   10   29 1     
   25   11   12 ar    
   26   11   16 ar    
   27   12   13 ar    
   28   12   30 1     
   29   13   14 ar    
   30   13   31 1     
   31   14   15 ar    
   32   14   32 1     
   33   15   16 ar    
   34   15   33 1     
   35   16   34 1     
   36   17   18 1     
   37   17   35 1     
   38   17   36 1     
   39   18   19 1     
   40   18   37 1     
   41   19   38 1     
   42   19   39 1     
@<TRIPOS>SUBSTRUCTURE
      1 ****           1
@<TRIPOS>SET
DONOR_HYDROGENS      STATIC     ATOMS    <user>   **** ""
3 40 38 39
ATOM$RED        STATIC     ATOMS    COLORGROUP SYSTEM
3 40 38 39
@<TRIPOS>COMMENT
> <Gold.Version>
2022.2.0

> <Gold.Id.Protein>
1qkm|1qkm_protein|mol2

> <Gold.Protein.RotatedTorsions>
[  496  491  490  487 ] final   27.22 input  -89.99 | X-H torsion

> <Gold.Protein.ActiveResidues>
 MET295  LEU298  THR299  LEU301  ALA302  GLU305  TRP335  MET336  LEU339  MET340 
 GLY342  LEU343  ARG346  PHE356  ILE373  ILE376  PHE377  LEU380  LYS471  GLY472 
 MET473  HIS475  LEU476  LEU477  ASN478  MET479  VAL484  VAL487 

> <Gold.Protein.RotatedAtoms>
   36.3327   33.7988   42.3764 H   0  0  0  0  0  0  0  0  0  0  0  0  # atno 496  bound_to 491 

> <Gold.Score>
     Score     S(PLP)   S(hbond)     S(cho)   S(metal)  DE(clash)   DE(tors)     intcor
     49.91     -49.79       0.00       0.43       0.00       0.00       0.61       0.05

> <Gold.PLP.Fitness>
49.9070

> <Gold.PLP.PLP>
-49.7946

> <Gold.PLP.part.hbond>
0.0000

> <Gold.PLP.part.metal>
0.0000

> <Gold.PLP.part.buried>
13.1285

> <Gold.PLP.part.nonpolar>
-63.2240

> <Gold.PLP.part.repulsive>
0.0738

> <Gold.PLP.ligand.clash>
0.0000

> <Gold.PLP.ligand.torsion>
0.6084

> <Gold.PLP.Chemscore.Hbond>
0.0000

> <Gold.PLP.Chemscore.CHOScore>
0.4269

> <Gold.PLP.Chemscore.Metal>
0.0000

> <Gold.Chemscore.Hbonds>
donor molecule, donor type, donor heavy atom, donor atom, acceptor molecule, acceptor atom, score
      L1  C     4    23       P1  3229  0.43

> <Gold.PLP.Chemscore.Internal.Correction>
0.0483

