#       Name:                EN300-1725852_i002
#       Creating user name   aseyller
#       Creation time:       Sat Apr 22 07:53:00 2023


#       File generated by GOLD software.
#

@<TRIPOS>MOLECULE
EN300-1725852_i002|amine_3|mol2|4084|dock18
    40    42     1
SMALL
USER_CHARGES


@<TRIPOS>ATOM
      1 C1          32.1008  37.9512  33.7005 C.3            1 <1>                0.0000
      2 N2          31.5115  38.8175  34.7244 N.pl3          1 <1>                0.0000
      3 N3          31.2965  40.1972  34.6126 N.2            1 <1>                0.0000
      4 C4          30.7543  40.6181  35.7264 C.2            1 <1>                0.0000
      5 C5          30.6067  39.5216  36.5821 C.2            1 <1>                0.0000
      6 C6          31.0745  38.4263  35.9399 C.2            1 <1>                0.0000
      7 C7          31.1106  37.0228  36.4875 C.3            1 <1>                0.0000
      8 C8          30.3741  36.9463  37.8415 C.3            1 <1>                0.0000
      9 N9          31.1527  36.0463  38.7120 N.4            1 <1>                1.0000
     10 C10         30.3140  34.9150  39.1297 C.3            1 <1>                0.0000
     11 C11         29.0221  35.4336  39.7069 C.ar           1 <1>                0.0000
     12 C12         28.9872  35.9124  41.0032 C.ar           1 <1>                0.0000
     13 C13         27.8021  36.3880  41.5327 C.ar           1 <1>                0.0000
     14 C14         26.6521  36.3853  40.7657 C.ar           1 <1>                0.0000
     15 C15         26.6872  35.9074  39.4690 C.ar           1 <1>                0.0000
     16 C16         27.8732  35.4357  38.9381 C.ar           1 <1>                0.0000
     17 C17         32.3182  35.5475  37.9513 C.3            1 <1>                0.0000
     18 C18         32.5616  36.6149  36.8554 C.3            1 <1>                0.0000
     19 N19         33.2539  36.0325  35.6980 N.3            1 <1>                0.0000
     20 H20         33.1818  37.9132  33.8350 H              1 <1>                0.0000
     21 H21         31.6877  36.9468  33.7927 H              1 <1>                0.0000
     22 H22         31.8716  38.3491  32.7120 H              1 <1>                0.0000
     23 H23         30.4700  41.6364  35.9471 H              1 <1>                0.0000
     24 H24         30.1889  39.5443  37.5778 H              1 <1>                0.0000
     25 H25         30.6792  36.3209  35.7739 H              1 <1>                0.0000
     26 H26         30.3178  37.9384  38.2895 H              1 <1>                0.0000
     27 H27         29.3711  36.5453  37.6958 H              1 <1>                0.0000
     28 H28         30.0991  34.2840  38.2673 H              1 <1>                0.0000
     29 H29         30.8408  34.3314  39.8847 H              1 <1>                0.0000
     30 H30         29.8857  35.9145  41.6024 H              1 <1>                0.0000
     31 H31         27.7747  36.7615  42.5457 H              1 <1>                0.0000
     32 H32         25.7261  36.7563  41.1796 H              1 <1>                0.0000
     33 H33         25.7886  35.9050  38.8699 H              1 <1>                0.0000
     34 H34         27.9007  35.0624  37.9251 H              1 <1>                0.0000
     35 H35         33.1891  35.4659  38.6016 H              1 <1>                0.0000
     36 H36         32.0906  34.5829  37.4976 H              1 <1>                0.0000
     37 H37         33.1168  37.4640  37.2539 H              1 <1>                0.0000
     38 H38         34.2081  36.3564  35.6469 H              1 <1>                0.0000
     39 H39         33.2151  35.0245  35.7231 H              1 <1>                0.0000
     40 H40         31.4715  36.5520  39.5249 H              1 <1>                0.0000
@<TRIPOS>BOND
    1    1    2 1     
    2    1   20 1     
    3    1   21 1     
    4    1   22 1     
    5    2    3 1     
    6    2    6 1     
    7    3    4 2     
    8    4    5 1     
    9    4   23 1     
   10    5    6 2     
   11    5   24 1     
   12    6    7 1     
   13    7    8 1     
   14    7   18 1     
   15    7   25 1     
   16    8    9 1     
   17    8   26 1     
   18    8   27 1     
   19    9   10 1     
   20    9   17 1     
   21    9   40 1     
   22   10   11 1     
   23   10   28 1     
   24   10   29 1     
   25   11   12 ar    
   26   11   16 ar    
   27   12   13 ar    
   28   12   30 1     
   29   13   14 ar    
   30   13   31 1     
   31   14   15 ar    
   32   14   32 1     
   33   15   16 ar    
   34   15   33 1     
   35   16   34 1     
   36   17   18 1     
   37   17   35 1     
   38   17   36 1     
   39   18   19 1     
   40   18   37 1     
   41   19   38 1     
   42   19   39 1     
@<TRIPOS>SUBSTRUCTURE
      1 ****           1
@<TRIPOS>SET
DONOR_HYDROGENS      STATIC     ATOMS    <user>   **** ""
3 40 38 39
ATOM$RED        STATIC     ATOMS    COLORGROUP SYSTEM
3 40 38 39
@<TRIPOS>COMMENT
> <Gold.Version>
2022.2.0

> <Gold.Id.Protein>
1qkm|1qkm_protein|mol2

> <Gold.Protein.RotatedTorsions>
[  496  491  490  487 ] final -161.58 input  -89.99 | X-H torsion

> <Gold.Protein.ActiveResidues>
 MET295  LEU298  THR299  LEU301  ALA302  GLU305  TRP335  MET336  LEU339  MET340 
 GLY342  LEU343  ARG346  PHE356  ILE373  ILE376  PHE377  LEU380  LYS471  GLY472 
 MET473  HIS475  LEU476  LEU477  ASN478  MET479  VAL484  VAL487 

> <Gold.Protein.RotatedAtoms>
   37.2808   33.7387   40.7532 H   0  0  0  0  0  0  0  0  0  0  0  0  # atno 496  bound_to 491 

> <Gold.Score>
     Score     S(PLP)   S(hbond)     S(cho)   S(metal)  DE(clash)   DE(tors)     intcor
     52.79     -53.76       0.00       0.00       0.00       0.00       0.51       0.05

> <Gold.PLP.Fitness>
52.7937

> <Gold.PLP.PLP>
-53.7630

> <Gold.PLP.part.hbond>
0.0000

> <Gold.PLP.part.metal>
0.0000

> <Gold.PLP.part.buried>
2.0743

> <Gold.PLP.part.nonpolar>
-58.5731

> <Gold.PLP.part.repulsive>
0.0587

> <Gold.PLP.ligand.clash>
0.0000

> <Gold.PLP.ligand.torsion>
0.5086

> <Gold.PLP.Chemscore.Hbond>
0.0000

> <Gold.PLP.Chemscore.CHOScore>
0.0000

> <Gold.PLP.Chemscore.Metal>
0.0000

> <Gold.PLP.Chemscore.Internal.Correction>
0.0479

