#       Name:                EN300-1725852_i002
#       Creating user name   aseyller
#       Creation time:       Sat Apr 22 07:53:00 2023


#       File generated by GOLD software.
#

@<TRIPOS>MOLECULE
EN300-1725852_i002|amine_3|mol2|4084|dock17
    40    42     1
SMALL
USER_CHARGES


@<TRIPOS>ATOM
      1 C1          25.4980  37.3070  39.0943 C.3            1 <1>                0.0000
      2 N2          26.2792  36.9674  40.2862 N.pl3          1 <1>                0.0000
      3 N3          25.8503  37.0870  41.6144 N.2            1 <1>                0.0000
      4 C4          26.8216  36.6884  42.3951 C.2            1 <1>                0.0000
      5 C5          27.8986  36.3026  41.5904 C.2            1 <1>                0.0000
      6 C6          27.5370  36.4784  40.2984 C.2            1 <1>                0.0000
      7 C7          28.3897  36.1900  39.0898 C.3            1 <1>                0.0000
      8 C8          29.7004  35.4873  39.5019 C.3            1 <1>                0.0000
      9 N9          30.7779  36.0472  38.6655 N.4            1 <1>                1.0000
     10 C10         31.4132  34.9718  37.8926 C.3            1 <1>                0.0000
     11 C11         32.4289  35.5634  36.9495 C.ar           1 <1>                0.0000
     12 C12         32.0557  35.9211  35.6674 C.ar           1 <1>                0.0000
     13 C13         32.9874  36.4637  34.8024 C.ar           1 <1>                0.0000
     14 C14         34.2922  36.6491  35.2195 C.ar           1 <1>                0.0000
     15 C15         34.6652  36.2923  36.5019 C.ar           1 <1>                0.0000
     16 C16         33.7325  35.7536  37.3684 C.ar           1 <1>                0.0000
     17 C17         30.1895  37.0420  37.7435 C.3            1 <1>                0.0000
     18 C18         28.8886  37.5090  38.4432 C.3            1 <1>                0.0000
     19 N19         27.9174  38.0155  37.4644 N.3            1 <1>                0.0000
     20 H20         25.6722  38.3502  38.8308 H              1 <1>                0.0000
     21 H21         25.8023  36.6673  38.2659 H              1 <1>                0.0000
     22 H22         24.4381  37.1563  39.2994 H              1 <1>                0.0000
     23 H23         26.7963  36.6620  43.4745 H              1 <1>                0.0000
     24 H24         28.8492  35.9264  41.9386 H              1 <1>                0.0000
     25 H25         27.8400  35.5871  38.3670 H              1 <1>                0.0000
     26 H26         29.9095  35.6802  40.5542 H              1 <1>                0.0000
     27 H27         29.6162  34.4144  39.3289 H              1 <1>                0.0000
     28 H28         31.9091  34.2795  38.5729 H              1 <1>                0.0000
     29 H29         30.6540  34.4380  37.3208 H              1 <1>                0.0000
     30 H30         31.0362  35.7762  35.3416 H              1 <1>                0.0000
     31 H31         32.6959  36.7424  33.8005 H              1 <1>                0.0000
     32 H32         35.0203  37.0724  34.5434 H              1 <1>                0.0000
     33 H33         35.6847  36.4368  36.8276 H              1 <1>                0.0000
     34 H34         34.0238  35.4749  38.3703 H              1 <1>                0.0000
     35 H35         30.8699  37.8825  37.6075 H              1 <1>                0.0000
     36 H36         29.9591  36.5799  36.7836 H              1 <1>                0.0000
     37 H37         29.1024  38.2601  39.2035 H              1 <1>                0.0000
     38 H38         27.8603  39.0223  37.4993 H              1 <1>                0.0000
     39 H39         28.1431  37.6983  36.5335 H              1 <1>                0.0000
     40 H40         31.4650  36.4961  39.2525 H              1 <1>                0.0000
@<TRIPOS>BOND
    1    1    2 1     
    2    1   20 1     
    3    1   21 1     
    4    1   22 1     
    5    2    3 1     
    6    2    6 1     
    7    3    4 2     
    8    4    5 1     
    9    4   23 1     
   10    5    6 2     
   11    5   24 1     
   12    6    7 1     
   13    7    8 1     
   14    7   18 1     
   15    7   25 1     
   16    8    9 1     
   17    8   26 1     
   18    8   27 1     
   19    9   10 1     
   20    9   17 1     
   21    9   40 1     
   22   10   11 1     
   23   10   28 1     
   24   10   29 1     
   25   11   12 ar    
   26   11   16 ar    
   27   12   13 ar    
   28   12   30 1     
   29   13   14 ar    
   30   13   31 1     
   31   14   15 ar    
   32   14   32 1     
   33   15   16 ar    
   34   15   33 1     
   35   16   34 1     
   36   17   18 1     
   37   17   35 1     
   38   17   36 1     
   39   18   19 1     
   40   18   37 1     
   41   19   38 1     
   42   19   39 1     
@<TRIPOS>SUBSTRUCTURE
      1 ****           1
@<TRIPOS>SET
DONOR_HYDROGENS      STATIC     ATOMS    <user>   **** ""
3 40 38 39
ATOM$RED        STATIC     ATOMS    COLORGROUP SYSTEM
3 40 38 39
@<TRIPOS>COMMENT
> <Gold.Version>
2022.2.0

> <Gold.Id.Protein>
1qkm|1qkm_protein|mol2

> <Gold.Protein.RotatedTorsions>
[  496  491  490  487 ] final  -61.96 input  -89.99 | X-H torsion

> <Gold.Protein.ActiveResidues>
 MET295  LEU298  THR299  LEU301  ALA302  GLU305  TRP335  MET336  LEU339  MET340 
 GLY342  LEU343  ARG346  PHE356  ILE373  ILE376  PHE377  LEU380  LYS471  GLY472 
 MET473  HIS475  LEU476  LEU477  ASN478  MET479  VAL484  VAL487 

> <Gold.Protein.RotatedAtoms>
   36.5123   34.7343   41.4564 H   0  0  0  0  0  0  0  0  0  0  0  0  # atno 496  bound_to 491 

> <Gold.Score>
     Score     S(PLP)   S(hbond)     S(cho)   S(metal)  DE(clash)   DE(tors)     intcor
     54.44     -54.32       0.00       0.41       0.00       0.00       0.59       0.05

> <Gold.PLP.Fitness>
54.4381

> <Gold.PLP.PLP>
-54.3241

> <Gold.PLP.part.hbond>
-0.3192

> <Gold.PLP.part.metal>
0.0000

> <Gold.PLP.part.buried>
-1.9673

> <Gold.PLP.part.nonpolar>
-53.4541

> <Gold.PLP.part.repulsive>
0.2312

> <Gold.PLP.ligand.clash>
0.0000

> <Gold.PLP.ligand.torsion>
0.5882

> <Gold.PLP.Chemscore.Hbond>
0.0000

> <Gold.PLP.Chemscore.CHOScore>
0.4141

> <Gold.PLP.Chemscore.Metal>
0.0000

> <Gold.Chemscore.Hbonds>
donor molecule, donor type, donor heavy atom, donor atom, acceptor molecule, acceptor atom, score
      L1  C     4    23       P1   582  0.41

> <Gold.PLP.Chemscore.Internal.Correction>
0.0479

