#       Name:                EN300-1725852_i002
#       Creating user name   aseyller
#       Creation time:       Sat Apr 22 07:52:58 2023


#       File generated by GOLD software.
#

@<TRIPOS>MOLECULE
EN300-1725852_i002|amine_3|mol2|4084|dock14
    40    42     1
SMALL
USER_CHARGES


@<TRIPOS>ATOM
      1 C1          29.0566  39.1169  36.0137 C.3            1 <1>                0.0000
      2 N2          30.5127  39.0206  36.1433 N.pl3          1 <1>                0.0000
      3 N3          31.4316  40.0496  35.9001 N.2            1 <1>                0.0000
      4 C4          32.6343  39.5846  36.1220 C.2            1 <1>                0.0000
      5 C5          32.5201  38.2466  36.5131 C.2            1 <1>                0.0000
      6 C6          31.2054  37.9266  36.5236 C.2            1 <1>                0.0000
      7 C7          30.6200  36.5858  36.8850 C.3            1 <1>                0.0000
      8 C8          29.6126  36.7252  38.0456 C.3            1 <1>                0.0000
      9 N9          29.8031  35.5622  38.9316 N.4            1 <1>                1.0000
     10 C10         28.5490  34.8036  39.0282 C.3            1 <1>                0.0000
     11 C11         27.4578  35.7015  39.5519 C.ar           1 <1>                0.0000
     12 C12         26.6988  36.4517  38.6732 C.ar           1 <1>                0.0000
     13 C13         25.6980  37.2754  39.1536 C.ar           1 <1>                0.0000
     14 C14         25.4558  37.3485  40.5127 C.ar           1 <1>                0.0000
     15 C15         26.2141  36.5975  41.3912 C.ar           1 <1>                0.0000
     16 C16         27.2122  35.7705  40.9105 C.ar           1 <1>                0.0000
     17 C17         30.8616  34.7030  38.3595 C.3            1 <1>                0.0000
     18 C18         31.7093  35.6537  37.4778 C.3            1 <1>                0.0000
     19 N19         32.4004  34.9101  36.4160 N.3            1 <1>                0.0000
     20 H20         28.7636  38.8474  34.9990 H              1 <1>                0.0000
     21 H21         28.5831  38.4365  36.7215 H              1 <1>                0.0000
     22 H22         28.7399  40.1384  36.2241 H              1 <1>                0.0000
     23 H23         33.5560  40.1382  36.0205 H              1 <1>                0.0000
     24 H24         33.3367  37.5867  36.7663 H              1 <1>                0.0000
     25 H25         30.1469  36.1267  36.0170 H              1 <1>                0.0000
     26 H26         29.8059  37.6461  38.5958 H              1 <1>                0.0000
     27 H27         28.5951  36.7309  37.6547 H              1 <1>                0.0000
     28 H28         28.2718  34.4325  38.0415 H              1 <1>                0.0000
     29 H29         28.6846  33.9622  39.7078 H              1 <1>                0.0000
     30 H30         26.8881  36.3946  37.6115 H              1 <1>                0.0000
     31 H31         25.1056  37.8621  38.4672 H              1 <1>                0.0000
     32 H32         24.6744  37.9925  40.8880 H              1 <1>                0.0000
     33 H33         26.0251  36.6548  42.4530 H              1 <1>                0.0000
     34 H34         27.8046  35.1838  41.5968 H              1 <1>                0.0000
     35 H35         31.4737  34.2753  39.1536 H              1 <1>                0.0000
     36 H36         30.4215  33.9130  37.7511 H              1 <1>                0.0000
     37 H37         32.4191  36.2179  38.0827 H              1 <1>                0.0000
     38 H38         31.8211  34.1640  36.0612 H              1 <1>                0.0000
     39 H39         32.6906  35.5273  35.6724 H              1 <1>                0.0000
     40 H40         30.0824  35.8763  39.8490 H              1 <1>                0.0000
@<TRIPOS>BOND
    1    1    2 1     
    2    1   20 1     
    3    1   21 1     
    4    1   22 1     
    5    2    3 1     
    6    2    6 1     
    7    3    4 2     
    8    4    5 1     
    9    4   23 1     
   10    5    6 2     
   11    5   24 1     
   12    6    7 1     
   13    7    8 1     
   14    7   18 1     
   15    7   25 1     
   16    8    9 1     
   17    8   26 1     
   18    8   27 1     
   19    9   10 1     
   20    9   17 1     
   21    9   40 1     
   22   10   11 1     
   23   10   28 1     
   24   10   29 1     
   25   11   12 ar    
   26   11   16 ar    
   27   12   13 ar    
   28   12   30 1     
   29   13   14 ar    
   30   13   31 1     
   31   14   15 ar    
   32   14   32 1     
   33   15   16 ar    
   34   15   33 1     
   35   16   34 1     
   36   17   18 1     
   37   17   35 1     
   38   17   36 1     
   39   18   19 1     
   40   18   37 1     
   41   19   38 1     
   42   19   39 1     
@<TRIPOS>SUBSTRUCTURE
      1 ****           1
@<TRIPOS>SET
DONOR_HYDROGENS      STATIC     ATOMS    <user>   **** ""
3 40 38 39
ATOM$RED        STATIC     ATOMS    COLORGROUP SYSTEM
3 40 38 39
@<TRIPOS>COMMENT
> <Gold.Version>
2022.2.0

> <Gold.Id.Protein>
1qkm|1qkm_protein|mol2

> <Gold.Protein.RotatedTorsions>
[  496  491  490  487 ] final   38.46 input  -89.99 | X-H torsion

> <Gold.Protein.ActiveResidues>
 MET295  LEU298  THR299  LEU301  ALA302  GLU305  TRP335  MET336  LEU339  MET340 
 GLY342  LEU343  ARG346  PHE356  ILE373  ILE376  PHE377  LEU380  LYS471  GLY472 
 MET473  HIS475  LEU476  LEU477  ASN478  MET479  VAL484  VAL487 

> <Gold.Protein.RotatedAtoms>
   36.3941   33.6247   42.3814 H   0  0  0  0  0  0  0  0  0  0  0  0  # atno 496  bound_to 491 

> <Gold.Score>
     Score     S(PLP)   S(hbond)     S(cho)   S(metal)  DE(clash)   DE(tors)     intcor
     48.33     -49.43       0.00       0.00       0.00       0.23       0.46       0.05

> <Gold.PLP.Fitness>
48.3276

> <Gold.PLP.PLP>
-49.4307

> <Gold.PLP.part.hbond>
0.0000

> <Gold.PLP.part.metal>
0.0000

> <Gold.PLP.part.buried>
-0.3130

> <Gold.PLP.part.nonpolar>
-51.2624

> <Gold.PLP.part.repulsive>
0.0000

> <Gold.PLP.ligand.clash>
0.2304

> <Gold.PLP.ligand.torsion>
0.4605

> <Gold.PLP.Chemscore.Hbond>
0.0000

> <Gold.PLP.Chemscore.CHOScore>
0.0000

> <Gold.PLP.Chemscore.Metal>
0.0000

> <Gold.PLP.Chemscore.Internal.Correction>
0.0483

