#       Name:                EN300-1725852_i002
#       Creating user name   aseyller
#       Creation time:       Sat Apr 22 07:52:52 2023


#       File generated by GOLD software.
#

@<TRIPOS>MOLECULE
EN300-1725852_i002|amine_3|mol2|4084|dock5
    40    42     1
SMALL
USER_CHARGES


@<TRIPOS>ATOM
      1 C1          31.6802  37.9511  34.3180 C.3            1 <1>                0.0000
      2 N2          31.0604  38.8935  35.2529 N.pl3          1 <1>                0.0000
      3 N3          30.9189  40.2737  35.0594 N.2            1 <1>                0.0000
      4 C4          30.3188  40.7742  36.1088 C.2            1 <1>                0.0000
      5 C5          30.0592  39.7305  37.0029 C.2            1 <1>                0.0000
      6 C6          30.5199  38.5845  36.4503 C.2            1 <1>                0.0000
      7 C7          30.4510  37.2107  37.0659 C.3            1 <1>                0.0000
      8 C8          29.6159  37.2355  38.3634 C.3            1 <1>                0.0000
      9 N9          30.2869  36.3487  39.3317 N.4            1 <1>                1.0000
     10 C10         29.3684  35.2774  39.7397 C.3            1 <1>                0.0000
     11 C11         28.1116  35.8830  40.3095 C.ar           1 <1>                0.0000
     12 C12         28.1176  36.4151  41.5853 C.ar           1 <1>                0.0000
     13 C13         26.9648  36.9706  42.1080 C.ar           1 <1>                0.0000
     14 C14         25.8059  36.9944  41.3547 C.ar           1 <1>                0.0000
     15 C15         25.8002  36.4633  40.0784 C.ar           1 <1>                0.0000
     16 C16         26.9542  35.9116  39.5541 C.ar           1 <1>                0.0000
     17 C17         31.4798  35.7620  38.6847 C.3            1 <1>                0.0000
     18 C18         31.8510  36.7603  37.5599 C.3            1 <1>                0.0000
     19 N19         32.5972  36.0901  36.4866 N.3            1 <1>                0.0000
     20 H20         32.7458  37.8734  34.5335 H              1 <1>                0.0000
     21 H21         31.2149  36.9716  34.4276 H              1 <1>                0.0000
     22 H22         31.5410  38.3074  33.2973 H              1 <1>                0.0000
     23 H23         30.0675  41.8138  36.2588 H              1 <1>                0.0000
     24 H24         29.5729  39.8223  37.9629 H              1 <1>                0.0000
     25 H25         30.0401  36.4922  36.3567 H              1 <1>                0.0000
     26 H26         29.5737  38.2507  38.7578 H              1 <1>                0.0000
     27 H27         28.6084  36.8709  38.1629 H              1 <1>                0.0000
     28 H28         29.1165  34.6654  38.8737 H              1 <1>                0.0000
     29 H29         29.8479  34.6563  40.4964 H              1 <1>                0.0000
     30 H30         29.0230  36.3964  42.1739 H              1 <1>                0.0000
     31 H31         26.9693  37.3856  43.1051 H              1 <1>                0.0000
     32 H32         24.9050  37.4278  41.7633 H              1 <1>                0.0000
     33 H33         24.8948  36.4816  39.4900 H              1 <1>                0.0000
     34 H34         26.9497  35.4966  38.5571 H              1 <1>                0.0000
     35 H35         32.2967  35.6766  39.4011 H              1 <1>                0.0000
     36 H36         31.2408  34.7861  38.2621 H              1 <1>                0.0000
     37 H37         32.4149  37.6042  37.9573 H              1 <1>                0.0000
     38 H38         33.5033  36.5146  36.3566 H              1 <1>                0.0000
     39 H39         32.6840  35.1016  36.6693 H              1 <1>                0.0000
     40 H40         30.5693  36.8813  40.1408 H              1 <1>                0.0000
@<TRIPOS>BOND
    1    1    2 1     
    2    1   20 1     
    3    1   21 1     
    4    1   22 1     
    5    2    3 1     
    6    2    6 1     
    7    3    4 2     
    8    4    5 1     
    9    4   23 1     
   10    5    6 2     
   11    5   24 1     
   12    6    7 1     
   13    7    8 1     
   14    7   18 1     
   15    7   25 1     
   16    8    9 1     
   17    8   26 1     
   18    8   27 1     
   19    9   10 1     
   20    9   17 1     
   21    9   40 1     
   22   10   11 1     
   23   10   28 1     
   24   10   29 1     
   25   11   12 ar    
   26   11   16 ar    
   27   12   13 ar    
   28   12   30 1     
   29   13   14 ar    
   30   13   31 1     
   31   14   15 ar    
   32   14   32 1     
   33   15   16 ar    
   34   15   33 1     
   35   16   34 1     
   36   17   18 1     
   37   17   35 1     
   38   17   36 1     
   39   18   19 1     
   40   18   37 1     
   41   19   38 1     
   42   19   39 1     
@<TRIPOS>SUBSTRUCTURE
      1 ****           1
@<TRIPOS>SET
DONOR_HYDROGENS      STATIC     ATOMS    <user>   **** ""
3 40 38 39
ATOM$RED        STATIC     ATOMS    COLORGROUP SYSTEM
3 40 38 39
@<TRIPOS>COMMENT
> <Gold.Version>
2022.2.0

> <Gold.Id.Protein>
1qkm|1qkm_protein|mol2

> <Gold.Protein.RotatedTorsions>
[  496  491  490  487 ] final -148.74 input  -89.99 | X-H torsion

> <Gold.Protein.ActiveResidues>
 MET295  LEU298  THR299  LEU301  ALA302  GLU305  TRP335  MET336  LEU339  MET340 
 GLY342  LEU343  ARG346  PHE356  ILE373  ILE376  PHE377  LEU380  LYS471  GLY472 
 MET473  HIS475  LEU476  LEU477  ASN478  MET479  VAL484  VAL487 

> <Gold.Protein.RotatedAtoms>
   37.2247   33.9396   40.7216 H   0  0  0  0  0  0  0  0  0  0  0  0  # atno 496  bound_to 491 

> <Gold.Score>
     Score     S(PLP)   S(hbond)     S(cho)   S(metal)  DE(clash)   DE(tors)     intcor
     59.01     -59.80       0.00       0.00       0.00       0.00       0.42       0.05

> <Gold.PLP.Fitness>
59.0084

> <Gold.PLP.PLP>
-59.8048

> <Gold.PLP.part.hbond>
0.0000

> <Gold.PLP.part.metal>
0.0000

> <Gold.PLP.part.buried>
-0.1666

> <Gold.PLP.part.nonpolar>
-59.9822

> <Gold.PLP.part.repulsive>
0.0251

> <Gold.PLP.ligand.clash>
0.0000

> <Gold.PLP.ligand.torsion>
0.4223

> <Gold.PLP.Chemscore.Hbond>
0.0000

> <Gold.PLP.Chemscore.CHOScore>
0.0000

> <Gold.PLP.Chemscore.Metal>
0.0000

> <Gold.PLP.Chemscore.Internal.Correction>
0.0483

