#       Name:                EN300-1725852_i002
#       Creating user name   aseyller
#       Creation time:       Sat Apr 22 07:53:01 2023


#       File generated by GOLD software.
#

@<TRIPOS>MOLECULE
EN300-1725852_i002|amine_3|mol2|4084|dock19
    40    42     1
SMALL
USER_CHARGES


@<TRIPOS>ATOM
      1 C1          26.7359  36.3428  38.1482 C.3            1 <1>                0.0000
      2 N2          26.6399  36.6560  39.5761 N.pl3          1 <1>                0.0000
      3 N3          25.4640  36.9505  40.2781 N.2            1 <1>                0.0000
      4 C4          25.7793  37.1750  41.5279 C.2            1 <1>                0.0000
      5 C5          27.1640  37.0308  41.6619 C.2            1 <1>                0.0000
      6 C6          27.6681  36.7061  40.4489 C.2            1 <1>                0.0000
      7 C7          29.1190  36.4555  40.1277 C.3            1 <1>                0.0000
      8 C8          29.5310  37.2058  38.8436 C.3            1 <1>                0.0000
      9 N9          30.4278  36.3142  38.0854 N.4            1 <1>                1.0000
     10 C10         31.7298  36.9675  37.8960 C.3            1 <1>                0.0000
     11 C11         31.8695  37.4021  36.4598 C.ar           1 <1>                0.0000
     12 C12         32.8522  36.8466  35.6619 C.ar           1 <1>                0.0000
     13 C13         32.9804  37.2454  34.3446 C.ar           1 <1>                0.0000
     14 C14         32.1255  38.1994  33.8249 C.ar           1 <1>                0.0000
     15 C15         31.1422  38.7542  34.6225 C.ar           1 <1>                0.0000
     16 C16         31.0112  38.3524  35.9387 C.ar           1 <1>                0.0000
     17 C17         30.6059  35.0627  38.8522 C.3            1 <1>                0.0000
     18 C18         29.3485  34.9679  39.7521 C.3            1 <1>                0.0000
     19 N19         29.6174  34.1586  40.9482 N.3            1 <1>                0.0000
     20 H20         26.8844  37.2633  37.5836 H              1 <1>                0.0000
     21 H21         27.5788  35.6728  37.9791 H              1 <1>                0.0000
     22 H22         25.8159  35.8595  37.8197 H              1 <1>                0.0000
     23 H23         25.0894  37.4282  42.3194 H              1 <1>                0.0000
     24 H24         27.7303  37.1527  42.5734 H              1 <1>                0.0000
     25 H25         29.7535  36.7469  40.9646 H              1 <1>                0.0000
     26 H26         28.6471  37.4358  38.2488 H              1 <1>                0.0000
     27 H27         30.0553  38.1254  39.1035 H              1 <1>                0.0000
     28 H28         31.7975  37.8387  38.5474 H              1 <1>                0.0000
     29 H29         32.5273  36.2666  38.1427 H              1 <1>                0.0000
     30 H30         33.5201  36.1013  36.0680 H              1 <1>                0.0000
     31 H31         33.7486  36.8119  33.7215 H              1 <1>                0.0000
     32 H32         32.2261  38.5115  32.7959 H              1 <1>                0.0000
     33 H33         30.4745  39.4998  34.2166 H              1 <1>                0.0000
     34 H34         30.2430  38.7858  36.5618 H              1 <1>                0.0000
     35 H35         30.6550  34.2080  38.1775 H              1 <1>                0.0000
     36 H36         31.5067  35.1171  39.4634 H              1 <1>                0.0000
     37 H37         28.4996  34.5701  39.1961 H              1 <1>                0.0000
     38 H38         29.5503  33.1734  40.7408 H              1 <1>                0.0000
     39 H39         30.5182  34.3846  41.3427 H              1 <1>                0.0000
     40 H40         30.0184  36.1045  37.1873 H              1 <1>                0.0000
@<TRIPOS>BOND
    1    1    2 1     
    2    1   20 1     
    3    1   21 1     
    4    1   22 1     
    5    2    3 1     
    6    2    6 1     
    7    3    4 2     
    8    4    5 1     
    9    4   23 1     
   10    5    6 2     
   11    5   24 1     
   12    6    7 1     
   13    7    8 1     
   14    7   18 1     
   15    7   25 1     
   16    8    9 1     
   17    8   26 1     
   18    8   27 1     
   19    9   10 1     
   20    9   17 1     
   21    9   40 1     
   22   10   11 1     
   23   10   28 1     
   24   10   29 1     
   25   11   12 ar    
   26   11   16 ar    
   27   12   13 ar    
   28   12   30 1     
   29   13   14 ar    
   30   13   31 1     
   31   14   15 ar    
   32   14   32 1     
   33   15   16 ar    
   34   15   33 1     
   35   16   34 1     
   36   17   18 1     
   37   17   35 1     
   38   17   36 1     
   39   18   19 1     
   40   18   37 1     
   41   19   38 1     
   42   19   39 1     
@<TRIPOS>SUBSTRUCTURE
      1 ****           1
@<TRIPOS>SET
DONOR_HYDROGENS      STATIC     ATOMS    <user>   **** ""
3 40 38 39
ATOM$RED        STATIC     ATOMS    COLORGROUP SYSTEM
3 40 38 39
@<TRIPOS>COMMENT
> <Gold.Version>
2022.2.0

> <Gold.Id.Protein>
1qkm|1qkm_protein|mol2

> <Gold.Protein.RotatedTorsions>
[  496  491  490  487 ] final   90.02 input  -89.99 | X-H torsion

> <Gold.Protein.ActiveResidues>
 MET295  LEU298  THR299  LEU301  ALA302  GLU305  TRP335  MET336  LEU339  MET340 
 GLY342  LEU343  ARG346  PHE356  ILE373  ILE376  PHE377  LEU380  LYS471  GLY472 
 MET473  HIS475  LEU476  LEU477  ASN478  MET479  VAL484  VAL487 

> <Gold.Protein.RotatedAtoms>
   36.8204   33.0219   42.0240 H   0  0  0  0  0  0  0  0  0  0  0  0  # atno 496  bound_to 491 

> <Gold.Score>
     Score     S(PLP)   S(hbond)     S(cho)   S(metal)  DE(clash)   DE(tors)     intcor
     50.11     -48.84       1.00       0.00       0.00       0.00       0.89       0.05

> <Gold.PLP.Fitness>
50.1078

> <Gold.PLP.PLP>
-48.8436

> <Gold.PLP.part.hbond>
-2.0000

> <Gold.PLP.part.metal>
0.0000

> <Gold.PLP.part.buried>
7.7268

> <Gold.PLP.part.nonpolar>
-55.7925

> <Gold.PLP.part.repulsive>
0.1349

> <Gold.PLP.ligand.clash>
0.0000

> <Gold.PLP.ligand.torsion>
0.8918

> <Gold.PLP.Chemscore.Hbond>
1.0000

> <Gold.PLP.Chemscore.CHOScore>
0.0000

> <Gold.PLP.Chemscore.Metal>
0.0000

> <Gold.Chemscore.Hbonds>
donor molecule, donor type, donor heavy atom, donor atom, acceptor molecule, acceptor atom, score
      L1  H    19    39       P1   470  1.00

> <Gold.PLP.Chemscore.Internal.Correction>
0.0479

