#       Name:                EN300-1725852_i002
#       Creating user name   aseyller
#       Creation time:       Sat Apr 22 07:53:01 2023


#       File generated by GOLD software.
#

@<TRIPOS>MOLECULE
EN300-1725852_i002|amine_3|mol2|4084|dock20
    40    42     1
SMALL
USER_CHARGES


@<TRIPOS>ATOM
      1 C1          33.8998  36.1744  35.2032 C.3            1 <1>                0.0000
      2 N2          32.8224  37.1357  34.9555 N.pl3          1 <1>                0.0000
      3 N3          32.8348  38.1593  33.9991 N.2            1 <1>                0.0000
      4 C4          31.7001  38.8058  34.0776 C.2            1 <1>                0.0000
      5 C5          30.9297  38.2157  35.0848 C.2            1 <1>                0.0000
      6 C6          31.6402  37.1881  35.6044 C.2            1 <1>                0.0000
      7 C7          31.1955  36.2724  36.7157 C.3            1 <1>                0.0000
      8 C8          29.7227  36.5426  37.0888 C.3            1 <1>                0.0000
      9 N9          29.6185  36.4431  38.5562 N.4            1 <1>                1.0000
     10 C10         28.6544  35.3940  38.9134 C.3            1 <1>                0.0000
     11 C11         27.6082  35.9659  39.8351 C.ar           1 <1>                0.0000
     12 C12         27.7798  35.8935  41.2048 C.ar           1 <1>                0.0000
     13 C13         26.8201  36.4179  42.0503 C.ar           1 <1>                0.0000
     14 C14         25.6890  37.0153  41.5260 C.ar           1 <1>                0.0000
     15 C15         25.5179  37.0885  40.1562 C.ar           1 <1>                0.0000
     16 C16         26.4797  36.5678  39.3106 C.ar           1 <1>                0.0000
     17 C17         30.9500  36.1016  39.1006 C.3            1 <1>                0.0000
     18 C18         31.9541  36.5963  38.0297 C.3            1 <1>                0.0000
     19 N19         33.2163  35.8487  38.1066 N.3            1 <1>                0.0000
     20 H20         34.5790  36.5759  35.9552 H              1 <1>                0.0000
     21 H21         33.4748  35.2366  35.5610 H              1 <1>                0.0000
     22 H22         34.4471  35.9956  34.2777 H              1 <1>                0.0000
     23 H23         31.4087  39.6497  33.4697 H              1 <1>                0.0000
     24 H24         29.9405  38.5231  35.3906 H              1 <1>                0.0000
     25 H25         31.3364  35.2292  36.4333 H              1 <1>                0.0000
     26 H26         29.4353  37.5425  36.7636 H              1 <1>                0.0000
     27 H27         29.0789  35.7984  36.6200 H              1 <1>                0.0000
     28 H28         28.1756  35.0176  38.0095 H              1 <1>                0.0000
     29 H29         29.1745  34.5783  39.4157 H              1 <1>                0.0000
     30 H30         28.6634  35.4268  41.6144 H              1 <1>                0.0000
     31 H31         26.9538  36.3607  43.1205 H              1 <1>                0.0000
     32 H32         24.9389  37.4244  42.1866 H              1 <1>                0.0000
     33 H33         24.6341  37.5549  39.7466 H              1 <1>                0.0000
     34 H34         26.3460  36.6251  38.2405 H              1 <1>                0.0000
     35 H35         31.1177  36.6185  40.0455 H              1 <1>                0.0000
     36 H36         31.0397  35.0237  39.2356 H              1 <1>                0.0000
     37 H37         32.1302  37.6677  38.1250 H              1 <1>                0.0000
     38 H38         33.3504  35.2801  37.2839 H              1 <1>                0.0000
     39 H39         33.9975  36.4717  38.2468 H              1 <1>                0.0000
     40 H40         29.3153  37.3275  38.9359 H              1 <1>                0.0000
@<TRIPOS>BOND
    1    1    2 1     
    2    1   20 1     
    3    1   21 1     
    4    1   22 1     
    5    2    3 1     
    6    2    6 1     
    7    3    4 2     
    8    4    5 1     
    9    4   23 1     
   10    5    6 2     
   11    5   24 1     
   12    6    7 1     
   13    7    8 1     
   14    7   18 1     
   15    7   25 1     
   16    8    9 1     
   17    8   26 1     
   18    8   27 1     
   19    9   10 1     
   20    9   17 1     
   21    9   40 1     
   22   10   11 1     
   23   10   28 1     
   24   10   29 1     
   25   11   12 ar    
   26   11   16 ar    
   27   12   13 ar    
   28   12   30 1     
   29   13   14 ar    
   30   13   31 1     
   31   14   15 ar    
   32   14   32 1     
   33   15   16 ar    
   34   15   33 1     
   35   16   34 1     
   36   17   18 1     
   37   17   35 1     
   38   17   36 1     
   39   18   19 1     
   40   18   37 1     
   41   19   38 1     
   42   19   39 1     
@<TRIPOS>SUBSTRUCTURE
      1 ****           1
@<TRIPOS>SET
DONOR_HYDROGENS      STATIC     ATOMS    <user>   **** ""
3 40 38 39
ATOM$RED        STATIC     ATOMS    COLORGROUP SYSTEM
3 40 38 39
@<TRIPOS>COMMENT
> <Gold.Version>
2022.2.0

> <Gold.Id.Protein>
1qkm|1qkm_protein|mol2

> <Gold.Protein.RotatedTorsions>
[  496  491  490  487 ] final -126.38 input  -89.99 | X-H torsion

> <Gold.Protein.ActiveResidues>
 MET295  LEU298  THR299  LEU301  ALA302  GLU305  TRP335  MET336  LEU339  MET340 
 GLY342  LEU343  ARG346  PHE356  ILE373  ILE376  PHE377  LEU380  LYS471  GLY472 
 MET473  HIS475  LEU476  LEU477  ASN478  MET479  VAL484  VAL487 

> <Gold.Protein.RotatedAtoms>
   37.0772   34.2714   40.7655 H   0  0  0  0  0  0  0  0  0  0  0  0  # atno 496  bound_to 491 

> <Gold.Score>
     Score     S(PLP)   S(hbond)     S(cho)   S(metal)  DE(clash)   DE(tors)     intcor
     50.56     -53.12       0.00       0.00       0.00       0.00       1.30       0.05

> <Gold.PLP.Fitness>
50.5581

> <Gold.PLP.PLP>
-53.1189

> <Gold.PLP.part.hbond>
0.0000

> <Gold.PLP.part.metal>
0.0000

> <Gold.PLP.part.buried>
1.4257

> <Gold.PLP.part.nonpolar>
-57.1257

> <Gold.PLP.part.repulsive>
1.6973

> <Gold.PLP.ligand.clash>
0.0000

> <Gold.PLP.ligand.torsion>
1.3044

> <Gold.PLP.Chemscore.Hbond>
0.0000

> <Gold.PLP.Chemscore.CHOScore>
0.0000

> <Gold.PLP.Chemscore.Metal>
0.0000

> <Gold.PLP.Chemscore.Internal.Correction>
0.0479

