#       Name:                EN300-1725852_i002
#       Creating user name   aseyller
#       Creation time:       Sat Apr 22 07:52:52 2023


#       File generated by GOLD software.
#

@<TRIPOS>MOLECULE
EN300-1725852_i002|amine_3|mol2|4084|dock4
    40    42     1
SMALL
USER_CHARGES


@<TRIPOS>ATOM
      1 C1          29.0871  37.8563  35.0516 C.3            1 <1>                0.0000
      2 N2          30.5517  37.8832  35.0721 N.pl3          1 <1>                0.0000
      3 N3          31.3702  38.7590  34.3472 N.2            1 <1>                0.0000
      4 C4          32.6173  38.4774  34.6251 C.2            1 <1>                0.0000
      5 C5          32.6331  37.4149  35.5346 C.2            1 <1>                0.0000
      6 C6          31.3506  37.0724  35.7971 C.2            1 <1>                0.0000
      7 C7          30.8960  35.9754  36.7250 C.3            1 <1>                0.0000
      8 C8          29.7448  36.4665  37.6278 C.3            1 <1>                0.0000
      9 N9          29.9682  35.8967  38.9692 N.4            1 <1>                1.0000
     10 C10         28.8153  35.0720  39.3542 C.3            1 <1>                0.0000
     11 C11         27.6454  35.9646  39.6794 C.ar           1 <1>                0.0000
     12 C12         26.9283  36.5630  38.6602 C.ar           1 <1>                0.0000
     13 C13         25.8553  37.3819  38.9584 C.ar           1 <1>                0.0000
     14 C14         25.4989  37.6019  40.2759 C.ar           1 <1>                0.0000
     15 C15         26.2153  37.0027  41.2950 C.ar           1 <1>                0.0000
     16 C16         27.2858  36.1805  40.9966 C.ar           1 <1>                0.0000
     17 C17         31.1868  35.0605  38.9286 C.3            1 <1>                0.0000
     18 C18         32.0116  35.6207  37.7430 C.3            1 <1>                0.0000
     19 N19         32.9139  34.5968  37.1994 N.3            1 <1>                0.0000
     20 H20         28.7471  37.1814  34.2661 H              1 <1>                0.0000
     21 H21         28.7166  37.5077  36.0156 H              1 <1>                0.0000
     22 H22         28.7079  38.8596  34.8578 H              1 <1>                0.0000
     23 H23         33.4847  38.9786  34.2217 H              1 <1>                0.0000
     24 H24         33.5134  36.9525  35.9562 H              1 <1>                0.0000
     25 H25         30.5929  35.0947  36.1588 H              1 <1>                0.0000
     26 H26         29.7541  37.5552  37.6811 H              1 <1>                0.0000
     27 H27         28.7899  36.1205  37.2322 H              1 <1>                0.0000
     28 H28         28.5496  34.4110  38.5293 H              1 <1>                0.0000
     29 H29         29.0715  34.4755  40.2298 H              1 <1>                0.0000
     30 H30         27.2068  36.3911  37.6310 H              1 <1>                0.0000
     31 H31         25.2955  37.8500  38.1622 H              1 <1>                0.0000
     32 H32         24.6610  38.2422  40.5089 H              1 <1>                0.0000
     33 H33         25.9372  37.1749  42.3242 H              1 <1>                0.0000
     34 H34         27.8455  35.7124  41.7928 H              1 <1>                0.0000
     35 H35         31.7455  35.1584  39.8593 H              1 <1>                0.0000
     36 H36         30.9255  34.0176  38.7497 H              1 <1>                0.0000
     37 H37         32.5668  36.5105  38.0396 H              1 <1>                0.0000
     38 H38         33.8697  34.9201  37.1997 H              1 <1>                0.0000
     39 H39         32.8253  33.7299  37.7080 H              1 <1>                0.0000
     40 H40         30.0923  36.6418  39.6383 H              1 <1>                0.0000
@<TRIPOS>BOND
    1    1    2 1     
    2    1   20 1     
    3    1   21 1     
    4    1   22 1     
    5    2    3 1     
    6    2    6 1     
    7    3    4 2     
    8    4    5 1     
    9    4   23 1     
   10    5    6 2     
   11    5   24 1     
   12    6    7 1     
   13    7    8 1     
   14    7   18 1     
   15    7   25 1     
   16    8    9 1     
   17    8   26 1     
   18    8   27 1     
   19    9   10 1     
   20    9   17 1     
   21    9   40 1     
   22   10   11 1     
   23   10   28 1     
   24   10   29 1     
   25   11   12 ar    
   26   11   16 ar    
   27   12   13 ar    
   28   12   30 1     
   29   13   14 ar    
   30   13   31 1     
   31   14   15 ar    
   32   14   32 1     
   33   15   16 ar    
   34   15   33 1     
   35   16   34 1     
   36   17   18 1     
   37   17   35 1     
   38   17   36 1     
   39   18   19 1     
   40   18   37 1     
   41   19   38 1     
   42   19   39 1     
@<TRIPOS>SUBSTRUCTURE
      1 ****           1
@<TRIPOS>SET
DONOR_HYDROGENS      STATIC     ATOMS    <user>   **** ""
3 40 38 39
ATOM$RED        STATIC     ATOMS    COLORGROUP SYSTEM
3 40 38 39
@<TRIPOS>COMMENT
> <Gold.Version>
2022.2.0

> <Gold.Id.Protein>
1qkm|1qkm_protein|mol2

> <Gold.Protein.RotatedTorsions>
[  496  491  490  487 ] final -156.21 input  -89.99 | X-H torsion

> <Gold.Protein.ActiveResidues>
 MET295  LEU298  THR299  LEU301  ALA302  GLU305  TRP335  MET336  LEU339  MET340 
 GLY342  LEU343  ARG346  PHE356  ILE373  ILE376  PHE377  LEU380  LYS471  GLY472 
 MET473  HIS475  LEU476  LEU477  ASN478  MET479  VAL484  VAL487 

> <Gold.Protein.RotatedAtoms>
   37.2602   33.8226   40.7350 H   0  0  0  0  0  0  0  0  0  0  0  0  # atno 496  bound_to 491 

> <Gold.Score>
     Score     S(PLP)   S(hbond)     S(cho)   S(metal)  DE(clash)   DE(tors)     intcor
     55.21     -53.68       0.00       1.00       0.00       0.00       0.76       0.05

> <Gold.PLP.Fitness>
55.2138

> <Gold.PLP.PLP>
-53.6783

> <Gold.PLP.part.hbond>
0.0000

> <Gold.PLP.part.metal>
0.0000

> <Gold.PLP.part.buried>
-4.4203

> <Gold.PLP.part.nonpolar>
-50.2169

> <Gold.PLP.part.repulsive>
0.0656

> <Gold.PLP.ligand.clash>
0.0000

> <Gold.PLP.ligand.torsion>
0.7564

> <Gold.PLP.Chemscore.Hbond>
0.0000

> <Gold.PLP.Chemscore.CHOScore>
1.0000

> <Gold.PLP.Chemscore.Metal>
0.0000

> <Gold.Chemscore.Hbonds>
donor molecule, donor type, donor heavy atom, donor atom, acceptor molecule, acceptor atom, score
      L1  C     4    23       P1  3229  1.00

> <Gold.PLP.Chemscore.Internal.Correction>
0.0483

