#       Name:                EN300-1725852_i002
#       Creating user name   aseyller
#       Creation time:       Sat Apr 22 07:52:50 2023


#       File generated by GOLD software.
#

@<TRIPOS>MOLECULE
EN300-1725852_i002|amine_3|mol2|4084|dock2
    40    42     1
SMALL
USER_CHARGES


@<TRIPOS>ATOM
      1 C1          28.3075  39.2226  36.9885 C.3            1 <1>                0.0000
      2 N2          29.7159  39.3285  36.5994 N.pl3          1 <1>                0.0000
      3 N3          30.3327  40.4524  36.0347 N.2            1 <1>                0.0000
      4 C4          31.5921  40.1659  35.8261 C.2            1 <1>                0.0000
      5 C5          31.8176  38.8524  36.2507 C.2            1 <1>                0.0000
      6 C6          30.6496  38.3625  36.7269 C.2            1 <1>                0.0000
      7 C7          30.4286  36.9820  37.2894 C.3            1 <1>                0.0000
      8 C8          29.6565  37.0537  38.6236 C.3            1 <1>                0.0000
      9 N9          30.2455  36.0453  39.5238 N.4            1 <1>                1.0000
     10 C10         29.2134  35.0822  39.9300 C.3            1 <1>                0.0000
     11 C11         28.0105  35.8252  40.4515 C.ar           1 <1>                0.0000
     12 C12         26.9049  36.0057  39.6416 C.ar           1 <1>                0.0000
     13 C13         25.8015  36.6873  40.1199 C.ar           1 <1>                0.0000
     14 C14         25.8034  37.1879  41.4085 C.ar           1 <1>                0.0000
     15 C15         26.9086  37.0065  42.2188 C.ar           1 <1>                0.0000
     16 C16         28.0104  36.3212  41.7419 C.ar           1 <1>                0.0000
     17 C17         31.3256  35.3415  38.7999 C.3            1 <1>                0.0000
     18 C18         31.7773  36.3348  37.7003 C.3            1 <1>                0.0000
     19 N19         32.3868  35.6247  36.5680 N.3            1 <1>                0.0000
     20 H20         27.7245  38.8522  36.1453 H              1 <1>                0.0000
     21 H21         28.2130  38.5324  37.8268 H              1 <1>                0.0000
     22 H22         27.9370  40.2046  37.2828 H              1 <1>                0.0000
     23 H23         32.3302  40.8291  35.3996 H              1 <1>                0.0000
     24 H24         32.7587  38.3242  36.2098 H              1 <1>                0.0000
     25 H25         29.9000  36.3549  36.5714 H              1 <1>                0.0000
     26 H26         29.7617  38.0469  39.0600 H              1 <1>                0.0000
     27 H27         28.6031  36.8300  38.4550 H              1 <1>                0.0000
     28 H28         28.9226  34.4774  39.0711 H              1 <1>                0.0000
     29 H29         29.6084  34.4350  40.7131 H              1 <1>                0.0000
     30 H30         26.9034  35.6147  38.6348 H              1 <1>                0.0000
     31 H31         24.9381  36.8290  39.4868 H              1 <1>                0.0000
     32 H32         24.9416  37.7210  41.7820 H              1 <1>                0.0000
     33 H33         26.9102  37.3979  43.2254 H              1 <1>                0.0000
     34 H34         28.8738  36.1794  42.3749 H              1 <1>                0.0000
     35 H35         32.1528  35.1201  39.4742 H              1 <1>                0.0000
     36 H36         30.9457  34.4244  38.3498 H              1 <1>                0.0000
     37 H37         32.4611  37.0808  38.1051 H              1 <1>                0.0000
     38 H38         31.9182  35.8524  35.7039 H              1 <1>                0.0000
     39 H39         33.3744  35.8223  36.5066 H              1 <1>                0.0000
     40 H40         30.6267  36.5000  40.3399 H              1 <1>                0.0000
@<TRIPOS>BOND
    1    1    2 1     
    2    1   20 1     
    3    1   21 1     
    4    1   22 1     
    5    2    3 1     
    6    2    6 1     
    7    3    4 2     
    8    4    5 1     
    9    4   23 1     
   10    5    6 2     
   11    5   24 1     
   12    6    7 1     
   13    7    8 1     
   14    7   18 1     
   15    7   25 1     
   16    8    9 1     
   17    8   26 1     
   18    8   27 1     
   19    9   10 1     
   20    9   17 1     
   21    9   40 1     
   22   10   11 1     
   23   10   28 1     
   24   10   29 1     
   25   11   12 ar    
   26   11   16 ar    
   27   12   13 ar    
   28   12   30 1     
   29   13   14 ar    
   30   13   31 1     
   31   14   15 ar    
   32   14   32 1     
   33   15   16 ar    
   34   15   33 1     
   35   16   34 1     
   36   17   18 1     
   37   17   35 1     
   38   17   36 1     
   39   18   19 1     
   40   18   37 1     
   41   19   38 1     
   42   19   39 1     
@<TRIPOS>SUBSTRUCTURE
      1 ****           1
@<TRIPOS>SET
DONOR_HYDROGENS      STATIC     ATOMS    <user>   **** ""
3 40 38 39
ATOM$RED        STATIC     ATOMS    COLORGROUP SYSTEM
3 40 38 39
@<TRIPOS>COMMENT
> <Gold.Version>
2022.2.0

> <Gold.Id.Protein>
1qkm|1qkm_protein|mol2

> <Gold.Protein.RotatedTorsions>
[  496  491  490  487 ] final -108.67 input  -89.99 | X-H torsion

> <Gold.Protein.ActiveResidues>
 MET295  LEU298  THR299  LEU301  ALA302  GLU305  TRP335  MET336  LEU339  MET340 
 GLY342  LEU343  ARG346  PHE356  ILE373  ILE376  PHE377  LEU380  LYS471  GLY472 
 MET473  HIS475  LEU476  LEU477  ASN478  MET479  VAL484  VAL487 

> <Gold.Protein.RotatedAtoms>
   36.9284   34.4900   40.8850 H   0  0  0  0  0  0  0  0  0  0  0  0  # atno 496  bound_to 491 

> <Gold.Score>
     Score     S(PLP)   S(hbond)     S(cho)   S(metal)  DE(clash)   DE(tors)     intcor
     55.16     -56.56       0.00       0.00       0.00       0.02       0.72       0.05

> <Gold.PLP.Fitness>
55.1634

> <Gold.PLP.PLP>
-56.5640

> <Gold.PLP.part.hbond>
-0.6467

> <Gold.PLP.part.metal>
0.0000

> <Gold.PLP.part.buried>
-3.4911

> <Gold.PLP.part.nonpolar>
-53.2232

> <Gold.PLP.part.repulsive>
0.0284

> <Gold.PLP.ligand.clash>
0.0171

> <Gold.PLP.ligand.torsion>
0.7159

> <Gold.PLP.Chemscore.Hbond>
0.0000

> <Gold.PLP.Chemscore.CHOScore>
0.0000

> <Gold.PLP.Chemscore.Metal>
0.0000

> <Gold.PLP.Chemscore.Internal.Correction>
0.0483

