#       Name:                EN300-1725852_i002
#       Creating user name   aseyller
#       Creation time:       Sat Apr 22 07:52:54 2023


#       File generated by GOLD software.
#

@<TRIPOS>MOLECULE
EN300-1725852_i002|amine_3|mol2|4084|dock8
    40    42     1
SMALL
USER_CHARGES


@<TRIPOS>ATOM
      1 C1          31.2238  39.0924  36.5064 C.3            1 <1>                0.0000
      2 N2          31.9451  37.9803  35.8824 N.pl3          1 <1>                0.0000
      3 N3          32.9746  38.0917  34.9389 N.2            1 <1>                0.0000
      4 C4          33.3671  36.8855  34.6180 C.2            1 <1>                0.0000
      5 C5          32.6014  35.9687  35.3456 C.2            1 <1>                0.0000
      6 C6          31.7390  36.6678  36.1193 C.2            1 <1>                0.0000
      7 C7          30.7232  36.0851  37.0678 C.3            1 <1>                0.0000
      8 C8          29.3548  36.7769  36.8941 C.3            1 <1>                0.0000
      9 N9          28.7754  36.9429  38.2398 N.4            1 <1>                1.0000
     10 C10         27.4852  36.2444  38.3120 C.3            1 <1>                0.0000
     11 C11         26.7838  36.6159  39.5931 C.ar           1 <1>                0.0000
     12 C12         25.7590  37.5435  39.5762 C.ar           1 <1>                0.0000
     13 C13         25.1158  37.8844  40.7513 C.ar           1 <1>                0.0000
     14 C14         25.4970  37.2973  41.9434 C.ar           1 <1>                0.0000
     15 C15         26.5212  36.3690  41.9601 C.ar           1 <1>                0.0000
     16 C16         27.1616  36.0250  40.7844 C.ar           1 <1>                0.0000
     17 C17         29.7099  36.3655  39.2293 C.3            1 <1>                0.0000
     18 C18         31.0956  36.4109  38.5381 C.3            1 <1>                0.0000
     19 N19         31.9938  35.3892  39.0923 N.3            1 <1>                0.0000
     20 H20         30.3521  39.3444  35.9026 H              1 <1>                0.0000
     21 H21         30.9016  38.8011  37.5061 H              1 <1>                0.0000
     22 H22         31.8813  39.9591  36.5746 H              1 <1>                0.0000
     23 H23         34.1474  36.6402  33.9127 H              1 <1>                0.0000
     24 H24         32.6866  34.8930  35.3012 H              1 <1>                0.0000
     25 H25         30.6326  35.0090  36.9197 H              1 <1>                0.0000
     26 H26         29.4890  37.7518  36.4253 H              1 <1>                0.0000
     27 H27         28.7002  36.1559  36.2826 H              1 <1>                0.0000
     28 H28         26.8670  36.5341  37.4623 H              1 <1>                0.0000
     29 H29         27.6531  35.1676  38.2888 H              1 <1>                0.0000
     30 H30         25.4612  38.0022  38.6449 H              1 <1>                0.0000
     31 H31         24.3156  38.6096  40.7382 H              1 <1>                0.0000
     32 H32         24.9949  37.5641  42.8616 H              1 <1>                0.0000
     33 H33         26.8193  35.9106  42.8915 H              1 <1>                0.0000
     34 H34         27.9617  35.2997  40.7974 H              1 <1>                0.0000
     35 H35         29.7194  36.9668  40.1383 H              1 <1>                0.0000
     36 H36         29.4331  35.3361  39.4570 H              1 <1>                0.0000
     37 H37         31.5392  37.4034  38.6178 H              1 <1>                0.0000
     38 H38         32.9420  35.7305  39.1431 H              1 <1>                0.0000
     39 H39         31.6728  35.0777  39.9967 H              1 <1>                0.0000
     40 H40         28.6424  37.9242  38.4336 H              1 <1>                0.0000
@<TRIPOS>BOND
    1    1    2 1     
    2    1   20 1     
    3    1   21 1     
    4    1   22 1     
    5    2    3 1     
    6    2    6 1     
    7    3    4 2     
    8    4    5 1     
    9    4   23 1     
   10    5    6 2     
   11    5   24 1     
   12    6    7 1     
   13    7    8 1     
   14    7   18 1     
   15    7   25 1     
   16    8    9 1     
   17    8   26 1     
   18    8   27 1     
   19    9   10 1     
   20    9   17 1     
   21    9   40 1     
   22   10   11 1     
   23   10   28 1     
   24   10   29 1     
   25   11   12 ar    
   26   11   16 ar    
   27   12   13 ar    
   28   12   30 1     
   29   13   14 ar    
   30   13   31 1     
   31   14   15 ar    
   32   14   32 1     
   33   15   16 ar    
   34   15   33 1     
   35   16   34 1     
   36   17   18 1     
   37   17   35 1     
   38   17   36 1     
   39   18   19 1     
   40   18   37 1     
   41   19   38 1     
   42   19   39 1     
@<TRIPOS>SUBSTRUCTURE
      1 ****           1
@<TRIPOS>SET
DONOR_HYDROGENS      STATIC     ATOMS    <user>   **** ""
3 40 38 39
ATOM$RED        STATIC     ATOMS    COLORGROUP SYSTEM
3 40 38 39
@<TRIPOS>COMMENT
> <Gold.Version>
2022.2.0

> <Gold.Id.Protein>
1qkm|1qkm_protein|mol2

> <Gold.Protein.RotatedTorsions>
[  496  491  490  487 ] final   50.91 input  -89.99 | X-H torsion

> <Gold.Protein.ActiveResidues>
 MET295  LEU298  THR299  LEU301  ALA302  GLU305  TRP335  MET336  LEU339  MET340 
 GLY342  LEU343  ARG346  PHE356  ILE373  ILE376  PHE377  LEU380  LYS471  GLY472 
 MET473  HIS475  LEU476  LEU477  ASN478  MET479  VAL484  VAL487 

> <Gold.Protein.RotatedAtoms>
   36.4796   33.4416   42.3499 H   0  0  0  0  0  0  0  0  0  0  0  0  # atno 496  bound_to 491 

> <Gold.Score>
     Score     S(PLP)   S(hbond)     S(cho)   S(metal)  DE(clash)   DE(tors)     intcor
     54.23     -51.49       0.44       0.81       0.00       0.00       0.54       0.05

> <Gold.PLP.Fitness>
54.2269

> <Gold.PLP.PLP>
-51.4884

> <Gold.PLP.part.hbond>
-1.0308

> <Gold.PLP.part.metal>
0.0000

> <Gold.PLP.part.buried>
5.8618

> <Gold.PLP.part.nonpolar>
-55.9605

> <Gold.PLP.part.repulsive>
0.1256

> <Gold.PLP.ligand.clash>
0.0000

> <Gold.PLP.ligand.torsion>
0.5386

> <Gold.PLP.Chemscore.Hbond>
0.4441

> <Gold.PLP.Chemscore.CHOScore>
0.8117

> <Gold.PLP.Chemscore.Metal>
0.0000

> <Gold.Chemscore.Hbonds>
donor molecule, donor type, donor heavy atom, donor atom, acceptor molecule, acceptor atom, score
      L1  H    19    39       P1   470  0.44
      L1  C     4    23       P1  3229  0.81

> <Gold.PLP.Chemscore.Internal.Correction>
0.0483

