#       Name:                EN300-1725852_i002
#       Creating user name   aseyller
#       Creation time:       Sat Apr 22 07:52:56 2023


#       File generated by GOLD software.
#

@<TRIPOS>MOLECULE
EN300-1725852_i002|amine_3|mol2|4084|dock11
    40    42     1
SMALL
USER_CHARGES


@<TRIPOS>ATOM
      1 C1          29.7073  38.0222  34.7487 C.3            1 <1>                0.0000
      2 N2          31.1279  37.7811  35.0134 N.pl3          1 <1>                0.0000
      3 N3          32.2031  38.4456  34.4095 N.2            1 <1>                0.0000
      4 C4          33.3132  37.9576  34.9008 C.2            1 <1>                0.0000
      5 C5          32.9811  36.9682  35.8320 C.2            1 <1>                0.0000
      6 C6          31.6317  36.8836  35.8863 C.2            1 <1>                0.0000
      7 C7          30.8344  35.9478  36.7578 C.3            1 <1>                0.0000
      8 C8          29.6720  36.6972  37.4425 C.3            1 <1>                0.0000
      9 N9          29.5680  36.1779  38.8186 N.4            1 <1>                1.0000
     10 C10         28.2319  35.6057  39.0313 C.3            1 <1>                0.0000
     11 C11         27.5749  36.2864  40.2043 C.ar           1 <1>                0.0000
     12 C12         26.2541  36.6858  40.1208 C.ar           1 <1>                0.0000
     13 C13         25.6514  37.3102  41.1968 C.ar           1 <1>                0.0000
     14 C14         26.3694  37.5349  42.3566 C.ar           1 <1>                0.0000
     15 C15         27.6898  37.1346  42.4405 C.ar           1 <1>                0.0000
     16 C16         28.2913  36.5063  41.3660 C.ar           1 <1>                0.0000
     17 C17         30.5937  35.1296  39.0050 C.3            1 <1>                0.0000
     18 C18         31.6868  35.4548  37.9566 C.3            1 <1>                0.0000
     19 N19         32.4490  34.2506  37.6003 N.3            1 <1>                0.0000
     20 H20         29.3737  37.3742  33.9382 H              1 <1>                0.0000
     21 H21         29.1287  37.8075  35.6472 H              1 <1>                0.0000
     22 H22         29.5625  39.0642  34.4637 H              1 <1>                0.0000
     23 H23         34.3133  38.2654  34.6333 H              1 <1>                0.0000
     24 H24         33.6784  36.3789  36.4090 H              1 <1>                0.0000
     25 H25         30.4601  35.1059  36.1754 H              1 <1>                0.0000
     26 H26         29.8822  37.7665  37.4646 H              1 <1>                0.0000
     27 H27         28.7426  36.5107  36.9045 H              1 <1>                0.0000
     28 H28         27.6258  35.7559  38.1379 H              1 <1>                0.0000
     29 H29         28.3218  34.5385  39.2341 H              1 <1>                0.0000
     30 H30         25.6932  36.5103  39.2147 H              1 <1>                0.0000
     31 H31         24.6198  37.6229  41.1312 H              1 <1>                0.0000
     32 H32         25.8987  38.0234  43.1969 H              1 <1>                0.0000
     33 H33         28.2508  37.3104  43.3464 H              1 <1>                0.0000
     34 H34         29.3229  36.1935  41.4315 H              1 <1>                0.0000
     35 H35         31.0076  35.1784  40.0122 H              1 <1>                0.0000
     36 H36         30.1679  34.1442  38.8161 H              1 <1>                0.0000
     37 H37         32.3493  36.2426  38.3149 H              1 <1>                0.0000
     38 H38         31.9285  33.6692  36.9608 H              1 <1>                0.0000
     39 H39         33.3501  34.4934  37.2166 H              1 <1>                0.0000
     40 H40         29.7265  36.9261  39.4768 H              1 <1>                0.0000
@<TRIPOS>BOND
    1    1    2 1     
    2    1   20 1     
    3    1   21 1     
    4    1   22 1     
    5    2    3 1     
    6    2    6 1     
    7    3    4 2     
    8    4    5 1     
    9    4   23 1     
   10    5    6 2     
   11    5   24 1     
   12    6    7 1     
   13    7    8 1     
   14    7   18 1     
   15    7   25 1     
   16    8    9 1     
   17    8   26 1     
   18    8   27 1     
   19    9   10 1     
   20    9   17 1     
   21    9   40 1     
   22   10   11 1     
   23   10   28 1     
   24   10   29 1     
   25   11   12 ar    
   26   11   16 ar    
   27   12   13 ar    
   28   12   30 1     
   29   13   14 ar    
   30   13   31 1     
   31   14   15 ar    
   32   14   32 1     
   33   15   16 ar    
   34   15   33 1     
   35   16   34 1     
   36   17   18 1     
   37   17   35 1     
   38   17   36 1     
   39   18   19 1     
   40   18   37 1     
   41   19   38 1     
   42   19   39 1     
@<TRIPOS>SUBSTRUCTURE
      1 ****           1
@<TRIPOS>SET
DONOR_HYDROGENS      STATIC     ATOMS    <user>   **** ""
3 40 38 39
ATOM$RED        STATIC     ATOMS    COLORGROUP SYSTEM
3 40 38 39
@<TRIPOS>COMMENT
> <Gold.Version>
2022.2.0

> <Gold.Id.Protein>
1qkm|1qkm_protein|mol2

> <Gold.Protein.RotatedTorsions>
[  496  491  490  487 ] final  -46.44 input  -89.99 | X-H torsion

> <Gold.Protein.ActiveResidues>
 MET295  LEU298  THR299  LEU301  ALA302  GLU305  TRP335  MET336  LEU339  MET340 
 GLY342  LEU343  ARG346  PHE356  ILE373  ILE376  PHE377  LEU380  LYS471  GLY472 
 MET473  HIS475  LEU476  LEU477  ASN478  MET479  VAL484  VAL487 

> <Gold.Protein.RotatedAtoms>
   36.4014   34.6878   41.6808 H   0  0  0  0  0  0  0  0  0  0  0  0  # atno 496  bound_to 491 

> <Gold.Score>
     Score     S(PLP)   S(hbond)     S(cho)   S(metal)  DE(clash)   DE(tors)     intcor
     49.54     -49.31       0.00       1.00       0.00       0.00       1.41       0.05

> <Gold.PLP.Fitness>
49.5429

> <Gold.PLP.PLP>
-49.3065

> <Gold.PLP.part.hbond>
0.0000

> <Gold.PLP.part.metal>
0.0000

> <Gold.PLP.part.buried>
-2.9819

> <Gold.PLP.part.nonpolar>
-46.2384

> <Gold.PLP.part.repulsive>
0.1198

> <Gold.PLP.ligand.clash>
0.0000

> <Gold.PLP.ligand.torsion>
1.4059

> <Gold.PLP.Chemscore.Hbond>
0.0000

> <Gold.PLP.Chemscore.CHOScore>
1.0000

> <Gold.PLP.Chemscore.Metal>
0.0000

> <Gold.Chemscore.Hbonds>
donor molecule, donor type, donor heavy atom, donor atom, acceptor molecule, acceptor atom, score
      L1  C     4    23       P1  3229  1.00

> <Gold.PLP.Chemscore.Internal.Correction>
0.0483

