#       Name:                EN300-1725852_i002
#       Creating user name   aseyller
#       Creation time:       Sat Apr 22 07:52:55 2023


#       File generated by GOLD software.
#

@<TRIPOS>MOLECULE
EN300-1725852_i002|amine_3|mol2|4084|dock10
    40    42     1
SMALL
USER_CHARGES


@<TRIPOS>ATOM
      1 C1          30.8393  39.6326  37.1583 C.3            1 <1>                0.0000
      2 N2          31.1731  39.0410  35.8603 N.pl3          1 <1>                0.0000
      3 N3          31.5051  39.7440  34.6950 N.2            1 <1>                0.0000
      4 C4          31.7379  38.8746  33.7454 C.2            1 <1>                0.0000
      5 C5          31.5621  37.5919  34.2746 C.2            1 <1>                0.0000
      6 C6          31.2209  37.7222  35.5775 C.2            1 <1>                0.0000
      7 C7          30.9353  36.5967  36.5381 C.3            1 <1>                0.0000
      8 C8          29.6552  36.8845  37.3505 C.3            1 <1>                0.0000
      9 N9          29.9022  36.4290  38.7309 N.4            1 <1>                1.0000
     10 C10         28.9137  35.4065  39.0984 C.3            1 <1>                0.0000
     11 C11         27.6751  36.0756  39.6362 C.ar           1 <1>                0.0000
     12 C12         26.7863  36.6837  38.7696 C.ar           1 <1>                0.0000
     13 C13         25.6502  37.2975  39.2629 C.ar           1 <1>                0.0000
     14 C14         25.4026  37.3029  40.6229 C.ar           1 <1>                0.0000
     15 C15         26.2910  36.6939  41.4895 C.ar           1 <1>                0.0000
     16 C16         27.4249  36.0763  40.9958 C.ar           1 <1>                0.0000
     17 C17         31.2625  35.8538  38.8005 C.3            1 <1>                0.0000
     18 C18         32.0328  36.5173  37.6317 C.3            1 <1>                0.0000
     19 N19         33.1525  35.6735  37.1932 N.3            1 <1>                0.0000
     20 H20         29.7644  39.8048  37.2133 H              1 <1>                0.0000
     21 H21         31.1397  38.9527  37.9555 H              1 <1>                0.0000
     22 H22         31.3653  40.5804  37.2716 H              1 <1>                0.0000
     23 H23         32.0173  39.1073  32.7284 H              1 <1>                0.0000
     24 H24         31.6819  36.6617  33.7391 H              1 <1>                0.0000
     25 H25         30.8490  35.6498  36.0054 H              1 <1>                0.0000
     26 H26         29.4451  37.9541  37.3449 H              1 <1>                0.0000
     27 H27         28.8146  36.3370  36.9242 H              1 <1>                0.0000
     28 H28         28.6555  34.8177  38.2182 H              1 <1>                0.0000
     29 H29         29.3342  34.7525  39.8624 H              1 <1>                0.0000
     30 H30         26.9798  36.6796  37.7070 H              1 <1>                0.0000
     31 H31         24.9562  37.7733  38.5858 H              1 <1>                0.0000
     32 H32         24.5154  37.7831  41.0084 H              1 <1>                0.0000
     33 H33         26.0977  36.6983  42.5521 H              1 <1>                0.0000
     34 H34         28.1189  35.6006  41.6728 H              1 <1>                0.0000
     35 H35         31.7310  36.1017  39.7529 H              1 <1>                0.0000
     36 H36         31.2248  34.7730  38.6650 H              1 <1>                0.0000
     37 H37         32.3809  37.5124  37.9086 H              1 <1>                0.0000
     38 H38         33.3734  34.9761  37.8881 H              1 <1>                0.0000
     39 H39         32.9548  35.2452  36.3013 H              1 <1>                0.0000
     40 H40         29.8338  37.2116  39.3641 H              1 <1>                0.0000
@<TRIPOS>BOND
    1    1    2 1     
    2    1   20 1     
    3    1   21 1     
    4    1   22 1     
    5    2    3 1     
    6    2    6 1     
    7    3    4 2     
    8    4    5 1     
    9    4   23 1     
   10    5    6 2     
   11    5   24 1     
   12    6    7 1     
   13    7    8 1     
   14    7   18 1     
   15    7   25 1     
   16    8    9 1     
   17    8   26 1     
   18    8   27 1     
   19    9   10 1     
   20    9   17 1     
   21    9   40 1     
   22   10   11 1     
   23   10   28 1     
   24   10   29 1     
   25   11   12 ar    
   26   11   16 ar    
   27   12   13 ar    
   28   12   30 1     
   29   13   14 ar    
   30   13   31 1     
   31   14   15 ar    
   32   14   32 1     
   33   15   16 ar    
   34   15   33 1     
   35   16   34 1     
   36   17   18 1     
   37   17   35 1     
   38   17   36 1     
   39   18   19 1     
   40   18   37 1     
   41   19   38 1     
   42   19   39 1     
@<TRIPOS>SUBSTRUCTURE
      1 ****           1
@<TRIPOS>SET
DONOR_HYDROGENS      STATIC     ATOMS    <user>   **** ""
3 40 38 39
ATOM$RED        STATIC     ATOMS    COLORGROUP SYSTEM
3 40 38 39
@<TRIPOS>COMMENT
> <Gold.Version>
2022.2.0

> <Gold.Id.Protein>
1qkm|1qkm_protein|mol2

> <Gold.Protein.RotatedTorsions>
[  496  491  490  487 ] final -156.67 input  -89.99 | X-H torsion

> <Gold.Protein.ActiveResidues>
 MET295  LEU298  THR299  LEU301  ALA302  GLU305  TRP335  MET336  LEU339  MET340 
 GLY342  LEU343  ARG346  PHE356  ILE373  ILE376  PHE377  LEU380  LYS471  GLY472 
 MET473  HIS475  LEU476  LEU477  ASN478  MET479  VAL484  VAL487 

> <Gold.Protein.RotatedAtoms>
   37.2622   33.8154   40.7363 H   0  0  0  0  0  0  0  0  0  0  0  0  # atno 496  bound_to 491 

> <Gold.Score>
     Score     S(PLP)   S(hbond)     S(cho)   S(metal)  DE(clash)   DE(tors)     intcor
     51.62     -53.09       0.00       0.00       0.00       0.05       0.74       0.05

> <Gold.PLP.Fitness>
51.6194

> <Gold.PLP.PLP>
-53.0948

> <Gold.PLP.part.hbond>
0.0000

> <Gold.PLP.part.metal>
0.0000

> <Gold.PLP.part.buried>
-1.1578

> <Gold.PLP.part.nonpolar>
-53.3048

> <Gold.PLP.part.repulsive>
0.0221

> <Gold.PLP.ligand.clash>
0.0502

> <Gold.PLP.ligand.torsion>
0.7367

> <Gold.PLP.Chemscore.Hbond>
0.0000

> <Gold.PLP.Chemscore.CHOScore>
0.0000

> <Gold.PLP.Chemscore.Metal>
0.0000

> <Gold.PLP.Chemscore.Internal.Correction>
0.0483

