#       Name:                EN300-1725852_i002
#       Creating user name   aseyller
#       Creation time:       Sat Apr 22 07:52:51 2023


#       File generated by GOLD software.
#

@<TRIPOS>MOLECULE
EN300-1725852_i002|amine_3|mol2|4084|dock3
    40    42     1
SMALL
USER_CHARGES


@<TRIPOS>ATOM
      1 C1          33.6004  35.7539  36.6776 C.3            1 <1>                0.0000
      2 N2          32.9533  36.6131  35.6829 N.pl3          1 <1>                0.0000
      3 N3          33.3061  36.7196  34.3314 N.2            1 <1>                0.0000
      4 C4          32.5024  37.5833  33.7660 C.2            1 <1>                0.0000
      5 C5          31.6132  38.0539  34.7376 C.2            1 <1>                0.0000
      6 C6          31.9082  37.4374  35.9055 C.2            1 <1>                0.0000
      7 C7          31.2028  37.6423  37.2214 C.3            1 <1>                0.0000
      8 C8          30.6735  36.3011  37.7713 C.3            1 <1>                0.0000
      9 N9          29.3494  36.5643  38.3643 N.4            1 <1>                1.0000
     10 C10         29.3624  36.1954  39.7861 C.3            1 <1>                0.0000
     11 C11         28.0023  36.4491  40.3834 C.ar           1 <1>                0.0000
     12 C12         27.8780  36.7028  41.7365 C.ar           1 <1>                0.0000
     13 C13         26.6303  36.9354  42.2844 C.ar           1 <1>                0.0000
     14 C14         25.5070  36.9149  41.4790 C.ar           1 <1>                0.0000
     15 C15         25.6314  36.6622  40.1256 C.ar           1 <1>                0.0000
     16 C16         26.8796  36.4337  39.5770 C.ar           1 <1>                0.0000
     17 C17         29.0500  38.0056  38.2268 C.3            1 <1>                0.0000
     18 C18         29.9086  38.4752  37.0260 C.3            1 <1>                0.0000
     19 N19         30.1909  39.9142  37.1118 N.3            1 <1>                0.0000
     20 H20         34.4141  36.2999  37.1549 H              1 <1>                0.0000
     21 H21         32.8708  35.4571  37.4310 H              1 <1>                0.0000
     22 H22         33.9978  34.8655  36.1868 H              1 <1>                0.0000
     23 H23         32.5224  37.8816  32.7281 H              1 <1>                0.0000
     24 H24         30.8271  38.7780  34.5821 H              1 <1>                0.0000
     25 H25         31.8663  38.1196  37.9425 H              1 <1>                0.0000
     26 H26         30.5797  35.5790  36.9603 H              1 <1>                0.0000
     27 H27         31.3522  35.9194  38.5341 H              1 <1>                0.0000
     28 H28         29.6113  35.1389  39.8851 H              1 <1>                0.0000
     29 H29         30.1070  36.7947  40.3102 H              1 <1>                0.0000
     30 H30         28.7556  36.7188  42.3658 H              1 <1>                0.0000
     31 H31         26.5332  37.1329  43.3417 H              1 <1>                0.0000
     32 H32         24.5322  37.0959  41.9072 H              1 <1>                0.0000
     33 H33         24.7538  36.6457  39.4965 H              1 <1>                0.0000
     34 H34         26.9768  36.2363  38.5197 H              1 <1>                0.0000
     35 H35         27.9908  38.1549  38.0174 H              1 <1>                0.0000
     36 H36         29.3381  38.5409  39.1315 H              1 <1>                0.0000
     37 H37         29.4251  38.2293  36.0806 H              1 <1>                0.0000
     38 H38         29.8575  40.3976  36.2912 H              1 <1>                0.0000
     39 H39         29.7951  40.3110  37.9508 H              1 <1>                0.0000
     40 H40         28.6472  36.0259  37.8794 H              1 <1>                0.0000
@<TRIPOS>BOND
    1    1    2 1     
    2    1   20 1     
    3    1   21 1     
    4    1   22 1     
    5    2    3 1     
    6    2    6 1     
    7    3    4 2     
    8    4    5 1     
    9    4   23 1     
   10    5    6 2     
   11    5   24 1     
   12    6    7 1     
   13    7    8 1     
   14    7   18 1     
   15    7   25 1     
   16    8    9 1     
   17    8   26 1     
   18    8   27 1     
   19    9   10 1     
   20    9   17 1     
   21    9   40 1     
   22   10   11 1     
   23   10   28 1     
   24   10   29 1     
   25   11   12 ar    
   26   11   16 ar    
   27   12   13 ar    
   28   12   30 1     
   29   13   14 ar    
   30   13   31 1     
   31   14   15 ar    
   32   14   32 1     
   33   15   16 ar    
   34   15   33 1     
   35   16   34 1     
   36   17   18 1     
   37   17   35 1     
   38   17   36 1     
   39   18   19 1     
   40   18   37 1     
   41   19   38 1     
   42   19   39 1     
@<TRIPOS>SUBSTRUCTURE
      1 ****           1
@<TRIPOS>SET
DONOR_HYDROGENS      STATIC     ATOMS    <user>   **** ""
3 40 38 39
ATOM$RED        STATIC     ATOMS    COLORGROUP SYSTEM
3 40 38 39
@<TRIPOS>COMMENT
> <Gold.Version>
2022.2.0

> <Gold.Id.Protein>
1qkm|1qkm_protein|mol2

> <Gold.Protein.RotatedTorsions>
[  496  491  490  487 ] final  -18.95 input  -89.99 | X-H torsion

> <Gold.Protein.ActiveResidues>
 MET295  LEU298  THR299  LEU301  ALA302  GLU305  TRP335  MET336  LEU339  MET340 
 GLY342  LEU343  ARG346  PHE356  ILE373  ILE376  PHE377  LEU380  LYS471  GLY472 
 MET473  HIS475  LEU476  LEU477  ASN478  MET479  VAL484  VAL487 

> <Gold.Protein.RotatedAtoms>
   36.2782   34.4582   42.0455 H   0  0  0  0  0  0  0  0  0  0  0  0  # atno 496  bound_to 491 

> <Gold.Score>
     Score     S(PLP)   S(hbond)     S(cho)   S(metal)  DE(clash)   DE(tors)     intcor
     56.58     -57.38       0.00       0.03       0.00       0.00       0.46       0.05

> <Gold.PLP.Fitness>
56.5833

> <Gold.PLP.PLP>
-57.3844

> <Gold.PLP.part.hbond>
0.0000

> <Gold.PLP.part.metal>
0.0000

> <Gold.PLP.part.buried>
0.4632

> <Gold.PLP.part.nonpolar>
-58.9935

> <Gold.PLP.part.repulsive>
0.2122

> <Gold.PLP.ligand.clash>
0.0000

> <Gold.PLP.ligand.torsion>
0.4639

> <Gold.PLP.Chemscore.Hbond>
0.0000

> <Gold.PLP.Chemscore.CHOScore>
0.0261

> <Gold.PLP.Chemscore.Metal>
0.0000

> <Gold.Chemscore.Hbonds>
donor molecule, donor type, donor heavy atom, donor atom, acceptor molecule, acceptor atom, score
      L1  C     4    23       P1  3187  0.03

> <Gold.PLP.Chemscore.Internal.Correction>
0.0483

