#       Name:                EN300-1725852_i002
#       Creating user name   aseyller
#       Creation time:       Sat Apr 22 07:52:55 2023


#       File generated by GOLD software.
#

@<TRIPOS>MOLECULE
EN300-1725852_i002|amine_3|mol2|4084|dock9
    40    42     1
SMALL
USER_CHARGES


@<TRIPOS>ATOM
      1 C1          33.4706  35.5688  36.1028 C.3            1 <1>                0.0000
      2 N2          32.7787  36.7115  35.5014 N.pl3          1 <1>                0.0000
      3 N3          33.3108  37.5880  34.5469 N.2            1 <1>                0.0000
      4 C4          32.3967  38.4770  34.2537 C.2            1 <1>                0.0000
      5 C5          31.2548  38.1956  35.0107 C.2            1 <1>                0.0000
      6 C6          31.5141  37.1024  35.7648 C.2            1 <1>                0.0000
      7 C7          30.5647  36.4452  36.7331 C.3            1 <1>                0.0000
      8 C8          29.1612  37.0796  36.6367 C.3            1 <1>                0.0000
      9 N9          28.6308  37.1773  38.0089 N.4            1 <1>                1.0000
     10 C10         27.3765  36.4194  38.1092 C.3            1 <1>                0.0000
     11 C11         26.7575  36.6495  39.4638 C.ar           1 <1>                0.0000
     12 C12         27.1823  35.9110  40.5524 C.ar           1 <1>                0.0000
     13 C13         26.6143  36.1220  41.7949 C.ar           1 <1>                0.0000
     14 C14         25.6219  37.0720  41.9490 C.ar           1 <1>                0.0000
     15 C15         25.1979  37.8112  40.8606 C.ar           1 <1>                0.0000
     16 C16         25.7687  37.6032  39.6189 C.ar           1 <1>                0.0000
     17 C17         29.6296  36.6122  38.9411 C.3            1 <1>                0.0000
     18 C18         30.9824  36.7416  38.1975 C.3            1 <1>                0.0000
     19 N19         31.9466  35.7448  38.6817 N.3            1 <1>                0.0000
     20 H20         33.9909  35.8925  37.0042 H              1 <1>                0.0000
     21 H21         32.7439  34.7981  36.3596 H              1 <1>                0.0000
     22 H22         34.1919  35.1657  35.3919 H              1 <1>                0.0000
     23 H23         32.5052  39.2881  33.5489 H              1 <1>                0.0000
     24 H24         30.3282  38.7501  34.9931 H              1 <1>                0.0000
     25 H25         30.5153  35.3712  36.5534 H              1 <1>                0.0000
     26 H26         29.2332  38.0736  36.1952 H              1 <1>                0.0000
     27 H27         28.5100  36.4489  36.0314 H              1 <1>                0.0000
     28 H28         26.6874  36.7530  37.3335 H              1 <1>                0.0000
     29 H29         27.5827  35.3569  37.9797 H              1 <1>                0.0000
     30 H30         27.9575  35.1688  40.4320 H              1 <1>                0.0000
     31 H31         26.9457  35.5445  42.6452 H              1 <1>                0.0000
     32 H32         25.1777  37.2364  42.9196 H              1 <1>                0.0000
     33 H33         24.4223  38.5531  40.9808 H              1 <1>                0.0000
     34 H34         25.4375  38.1807  38.7685 H              1 <1>                0.0000
     35 H35         29.6500  37.1848  39.8683 H              1 <1>                0.0000
     36 H36         29.4078  35.5648  39.1456 H              1 <1>                0.0000
     37 H37         31.3850  37.7501  38.2921 H              1 <1>                0.0000
     38 H38         31.5659  34.8125  38.6173 H              1 <1>                0.0000
     39 H39         32.8202  35.8139  38.1817 H              1 <1>                0.0000
     40 H40         28.4630  38.1451  38.2400 H              1 <1>                0.0000
@<TRIPOS>BOND
    1    1    2 1     
    2    1   20 1     
    3    1   21 1     
    4    1   22 1     
    5    2    3 1     
    6    2    6 1     
    7    3    4 2     
    8    4    5 1     
    9    4   23 1     
   10    5    6 2     
   11    5   24 1     
   12    6    7 1     
   13    7    8 1     
   14    7   18 1     
   15    7   25 1     
   16    8    9 1     
   17    8   26 1     
   18    8   27 1     
   19    9   10 1     
   20    9   17 1     
   21    9   40 1     
   22   10   11 1     
   23   10   28 1     
   24   10   29 1     
   25   11   12 ar    
   26   11   16 ar    
   27   12   13 ar    
   28   12   30 1     
   29   13   14 ar    
   30   13   31 1     
   31   14   15 ar    
   32   14   32 1     
   33   15   16 ar    
   34   15   33 1     
   35   16   34 1     
   36   17   18 1     
   37   17   35 1     
   38   17   36 1     
   39   18   19 1     
   40   18   37 1     
   41   19   38 1     
   42   19   39 1     
@<TRIPOS>SUBSTRUCTURE
      1 ****           1
@<TRIPOS>SET
DONOR_HYDROGENS      STATIC     ATOMS    <user>   **** ""
3 40 38 39
ATOM$RED        STATIC     ATOMS    COLORGROUP SYSTEM
3 40 38 39
@<TRIPOS>COMMENT
> <Gold.Version>
2022.2.0

> <Gold.Id.Protein>
1qkm|1qkm_protein|mol2

> <Gold.Protein.RotatedTorsions>
[  496  491  490  487 ] final -177.24 input  -89.99 | X-H torsion

> <Gold.Protein.ActiveResidues>
 MET295  LEU298  THR299  LEU301  ALA302  GLU305  TRP335  MET336  LEU339  MET340 
 GLY342  LEU343  ARG346  PHE356  ILE373  ILE376  PHE377  LEU380  LYS471  GLY472 
 MET473  HIS475  LEU476  LEU477  ASN478  MET479  VAL484  VAL487 

> <Gold.Protein.RotatedAtoms>
   37.3157   33.5014   40.8454 H   0  0  0  0  0  0  0  0  0  0  0  0  # atno 496  bound_to 491 

> <Gold.Score>
     Score     S(PLP)   S(hbond)     S(cho)   S(metal)  DE(clash)   DE(tors)     intcor
     52.82     -53.87       0.00       0.00       0.00       0.00       0.55       0.05

> <Gold.PLP.Fitness>
52.8156

> <Gold.PLP.PLP>
-53.8727

> <Gold.PLP.part.hbond>
0.0000

> <Gold.PLP.part.metal>
0.0000

> <Gold.PLP.part.buried>
2.8983

> <Gold.PLP.part.nonpolar>
-58.1377

> <Gold.PLP.part.repulsive>
1.5337

> <Gold.PLP.ligand.clash>
0.0000

> <Gold.PLP.ligand.torsion>
0.5527

> <Gold.PLP.Chemscore.Hbond>
0.0000

> <Gold.PLP.Chemscore.CHOScore>
0.0000

> <Gold.PLP.Chemscore.Metal>
0.0000

> <Gold.PLP.Chemscore.Internal.Correction>
0.0483

