#       Name:                EN300-1725852_i002
#       Creating user name   aseyller
#       Creation time:       Sat Apr 22 07:52:53 2023


#       File generated by GOLD software.
#

@<TRIPOS>MOLECULE
EN300-1725852_i002|amine_3|mol2|4084|dock6
    40    42     1
SMALL
USER_CHARGES


@<TRIPOS>ATOM
      1 C1          28.4853  39.2661  36.7635 C.3            1 <1>                0.0000
      2 N2          29.7952  39.4233  36.1266 N.pl3          1 <1>                0.0000
      3 N3          30.3170  40.6107  35.5971 N.2            1 <1>                0.0000
      4 C4          31.5068  40.3556  35.1161 C.2            1 <1>                0.0000
      5 C5          31.7805  38.9998  35.3236 C.2            1 <1>                0.0000
      6 C6          30.7148  38.4512  35.9515 C.2            1 <1>                0.0000
      7 C7          30.5752  37.0104  36.3709 C.3            1 <1>                0.0000
      8 C8          30.0255  36.9118  37.8095 C.3            1 <1>                0.0000
      9 N9          30.7423  35.8092  38.4764 N.4            1 <1>                1.0000
     10 C10         29.7804  34.7923  38.9217 C.3            1 <1>                0.0000
     11 C11         28.6862  35.4516  39.7211 C.ar           1 <1>                0.0000
     12 C12         27.4301  35.6172  39.1682 C.ar           1 <1>                0.0000
     13 C13         26.4265  36.2221  39.9014 C.ar           1 <1>                0.0000
     14 C14         26.6787  36.6611  41.1877 C.ar           1 <1>                0.0000
     15 C15         27.9346  36.4946  41.7410 C.ar           1 <1>                0.0000
     16 C16         28.9371  35.8859  41.0093 C.ar           1 <1>                0.0000
     17 C17         31.6882  35.2105  37.5106 C.3            1 <1>                0.0000
     18 C18         31.9671  36.3342  36.4815 C.3            1 <1>                0.0000
     19 N19         32.3835  35.7729  35.1894 N.3            1 <1>                0.0000
     20 H20         27.7438  39.0031  36.0091 H              1 <1>                0.0000
     21 H21         28.5379  38.4759  37.5124 H              1 <1>                0.0000
     22 H22         28.1996  40.2025  37.2427 H              1 <1>                0.0000
     23 H23         32.1639  41.0688  34.6408 H              1 <1>                0.0000
     24 H24         32.6846  38.4830  35.0373 H              1 <1>                0.0000
     25 H25         29.9345  36.4684  35.6755 H              1 <1>                0.0000
     26 H26         30.2064  37.8464  38.3405 H              1 <1>                0.0000
     27 H27         28.9570  36.6978  37.7843 H              1 <1>                0.0000
     28 H28         29.3474  34.2965  38.0530 H              1 <1>                0.0000
     29 H29         30.2912  34.0564  39.5429 H              1 <1>                0.0000
     30 H30         27.2331  35.2743  38.1632 H              1 <1>                0.0000
     31 H31         25.4453  36.3521  39.4691 H              1 <1>                0.0000
     32 H32         25.8948  37.1343  41.7603 H              1 <1>                0.0000
     33 H33         28.1318  36.8379  42.7458 H              1 <1>                0.0000
     34 H34         29.9182  35.7558  41.4415 H              1 <1>                0.0000
     35 H35         32.6103  34.9190  38.0135 H              1 <1>                0.0000
     36 H36         31.2346  34.3499  37.0191 H              1 <1>                0.0000
     37 H37         32.7122  37.0339  36.8599 H              1 <1>                0.0000
     38 H38         31.6257  35.7968  34.5237 H              1 <1>                0.0000
     39 H39         33.1949  36.2538  34.8309 H              1 <1>                0.0000
     40 H40         31.2518  36.1667  39.2706 H              1 <1>                0.0000
@<TRIPOS>BOND
    1    1    2 1     
    2    1   20 1     
    3    1   21 1     
    4    1   22 1     
    5    2    3 1     
    6    2    6 1     
    7    3    4 2     
    8    4    5 1     
    9    4   23 1     
   10    5    6 2     
   11    5   24 1     
   12    6    7 1     
   13    7    8 1     
   14    7   18 1     
   15    7   25 1     
   16    8    9 1     
   17    8   26 1     
   18    8   27 1     
   19    9   10 1     
   20    9   17 1     
   21    9   40 1     
   22   10   11 1     
   23   10   28 1     
   24   10   29 1     
   25   11   12 ar    
   26   11   16 ar    
   27   12   13 ar    
   28   12   30 1     
   29   13   14 ar    
   30   13   31 1     
   31   14   15 ar    
   32   14   32 1     
   33   15   16 ar    
   34   15   33 1     
   35   16   34 1     
   36   17   18 1     
   37   17   35 1     
   38   17   36 1     
   39   18   19 1     
   40   18   37 1     
   41   19   38 1     
   42   19   39 1     
@<TRIPOS>SUBSTRUCTURE
      1 ****           1
@<TRIPOS>SET
DONOR_HYDROGENS      STATIC     ATOMS    <user>   **** ""
3 40 38 39
ATOM$RED        STATIC     ATOMS    COLORGROUP SYSTEM
3 40 38 39
@<TRIPOS>COMMENT
> <Gold.Version>
2022.2.0

> <Gold.Id.Protein>
1qkm|1qkm_protein|mol2

> <Gold.Protein.RotatedTorsions>
[  496  491  490  487 ] final -170.53 input  -89.99 | X-H torsion

> <Gold.Protein.ActiveResidues>
 MET295  LEU298  THR299  LEU301  ALA302  GLU305  TRP335  MET336  LEU339  MET340 
 GLY342  LEU343  ARG346  PHE356  ILE373  ILE376  PHE377  LEU380  LYS471  GLY472 
 MET473  HIS475  LEU476  LEU477  ASN478  MET479  VAL484  VAL487 

> <Gold.Protein.RotatedAtoms>
   37.3055   33.6010   40.7990 H   0  0  0  0  0  0  0  0  0  0  0  0  # atno 496  bound_to 491 

> <Gold.Score>
     Score     S(PLP)   S(hbond)     S(cho)   S(metal)  DE(clash)   DE(tors)     intcor
     52.36     -53.68       0.00       0.00       0.00       0.00       0.68       0.05

> <Gold.PLP.Fitness>
52.3644

> <Gold.PLP.PLP>
-53.6783

> <Gold.PLP.part.hbond>
-0.1266

> <Gold.PLP.part.metal>
0.0000

> <Gold.PLP.part.buried>
-3.2914

> <Gold.PLP.part.nonpolar>
-51.5817

> <Gold.PLP.part.repulsive>
0.0159

> <Gold.PLP.ligand.clash>
0.0000

> <Gold.PLP.ligand.torsion>
0.6811

> <Gold.PLP.Chemscore.Hbond>
0.0000

> <Gold.PLP.Chemscore.CHOScore>
0.0000

> <Gold.PLP.Chemscore.Metal>
0.0000

> <Gold.PLP.Chemscore.Internal.Correction>
0.0483

