#       Name:                EN300-1725852_i002
#       Creating user name   aseyller
#       Creation time:       Sat Apr 22 07:52:57 2023


#       File generated by GOLD software.
#

@<TRIPOS>MOLECULE
EN300-1725852_i002|amine_3|mol2|4084|dock13
    40    42     1
SMALL
USER_CHARGES


@<TRIPOS>ATOM
      1 C1          27.9892  38.9140  37.1961 C.3            1 <1>                0.0000
      2 N2          27.2194  38.0577  38.1019 N.pl3          1 <1>                0.0000
      3 N3          25.8228  38.0026  38.1959 N.2            1 <1>                0.0000
      4 C4          25.5092  37.1238  39.1130 C.2            1 <1>                0.0000
      5 C5          26.6942  36.5916  39.6316 C.2            1 <1>                0.0000
      6 C6          27.7304  37.1784  38.9890 C.2            1 <1>                0.0000
      7 C7          29.1932  36.9064  39.2283 C.3            1 <1>                0.0000
      8 C8          29.9443  36.7454  37.8899 C.3            1 <1>                0.0000
      9 N9          30.9216  35.6555  38.0657 N.4            1 <1>                1.0000
     10 C10         32.2776  36.1625  37.8170 C.3            1 <1>                0.0000
     11 C11         32.3221  36.8385  36.4709 C.ar           1 <1>                0.0000
     12 C12         32.5904  36.0987  35.3344 C.ar           1 <1>                0.0000
     13 C13         32.6313  36.7189  34.0996 C.ar           1 <1>                0.0000
     14 C14         32.4034  38.0788  34.0012 C.ar           1 <1>                0.0000
     15 C15         32.1341  38.8184  35.1376 C.ar           1 <1>                0.0000
     16 C16         32.0890  38.1975  36.3719 C.ar           1 <1>                0.0000
     17 C17         30.8242  35.1552  39.4536 C.3            1 <1>                0.0000
     18 C18         29.3903  35.5258  39.9079 C.3            1 <1>                0.0000
     19 N19         29.3157  35.6437  41.3703 N.3            1 <1>                0.0000
     20 H20         28.1994  39.8647  37.6859 H              1 <1>                0.0000
     21 H21         28.9275  38.4217  36.9404 H              1 <1>                0.0000
     22 H22         27.4134  39.0927  36.2880 H              1 <1>                0.0000
     23 H23         24.5082  36.8557  39.4172 H              1 <1>                0.0000
     24 H24         26.7688  35.8416  40.4052 H              1 <1>                0.0000
     25 H25         29.6386  37.7008  39.8271 H              1 <1>                0.0000
     26 H26         29.2404  36.4883  37.0983 H              1 <1>                0.0000
     27 H27         30.4625  37.6717  37.6418 H              1 <1>                0.0000
     28 H28         32.5454  36.8798  38.5928 H              1 <1>                0.0000
     29 H29         32.9840  35.3324  37.8303 H              1 <1>                0.0000
     30 H30         32.7685  35.0363  35.4113 H              1 <1>                0.0000
     31 H31         32.8416  36.1409  33.2118 H              1 <1>                0.0000
     32 H32         32.4360  38.5634  33.0366 H              1 <1>                0.0000
     33 H33         31.9564  39.8809  35.0608 H              1 <1>                0.0000
     34 H34         31.8786  38.7754  37.2597 H              1 <1>                0.0000
     35 H35         30.9625  34.0743  39.4779 H              1 <1>                0.0000
     36 H36         31.5620  35.6475  40.0870 H              1 <1>                0.0000
     37 H37         28.6643  34.8015  39.5385 H              1 <1>                0.0000
     38 H38         28.5336  35.1212  41.7357 H              1 <1>                0.0000
     39 H39         30.1795  35.3502  41.8013 H              1 <1>                0.0000
     40 H40         30.7148  34.9067  37.4217 H              1 <1>                0.0000
@<TRIPOS>BOND
    1    1    2 1     
    2    1   20 1     
    3    1   21 1     
    4    1   22 1     
    5    2    3 1     
    6    2    6 1     
    7    3    4 2     
    8    4    5 1     
    9    4   23 1     
   10    5    6 2     
   11    5   24 1     
   12    6    7 1     
   13    7    8 1     
   14    7   18 1     
   15    7   25 1     
   16    8    9 1     
   17    8   26 1     
   18    8   27 1     
   19    9   10 1     
   20    9   17 1     
   21    9   40 1     
   22   10   11 1     
   23   10   28 1     
   24   10   29 1     
   25   11   12 ar    
   26   11   16 ar    
   27   12   13 ar    
   28   12   30 1     
   29   13   14 ar    
   30   13   31 1     
   31   14   15 ar    
   32   14   32 1     
   33   15   16 ar    
   34   15   33 1     
   35   16   34 1     
   36   17   18 1     
   37   17   35 1     
   38   17   36 1     
   39   18   19 1     
   40   18   37 1     
   41   19   38 1     
   42   19   39 1     
@<TRIPOS>SUBSTRUCTURE
      1 ****           1
@<TRIPOS>SET
DONOR_HYDROGENS      STATIC     ATOMS    <user>   **** ""
3 40 38 39
ATOM$RED        STATIC     ATOMS    COLORGROUP SYSTEM
3 40 38 39
@<TRIPOS>COMMENT
> <Gold.Version>
2022.2.0

> <Gold.Id.Protein>
1qkm|1qkm_protein|mol2

> <Gold.Protein.RotatedTorsions>
[  496  491  490  487 ] final   27.99 input  -89.99 | X-H torsion

> <Gold.Protein.ActiveResidues>
 MET295  LEU298  THR299  LEU301  ALA302  GLU305  TRP335  MET336  LEU339  MET340 
 GLY342  LEU343  ARG346  PHE356  ILE373  ILE376  PHE377  LEU380  LYS471  GLY472 
 MET473  HIS475  LEU476  LEU477  ASN478  MET479  VAL484  VAL487 

> <Gold.Protein.RotatedAtoms>
   36.3363   33.7869   42.3777 H   0  0  0  0  0  0  0  0  0  0  0  0  # atno 496  bound_to 491 

> <Gold.Score>
     Score     S(PLP)   S(hbond)     S(cho)   S(metal)  DE(clash)   DE(tors)     intcor
     54.62     -51.44       1.00       0.62       0.00       0.00       0.87       0.05

> <Gold.PLP.Fitness>
54.6184

> <Gold.PLP.PLP>
-51.4411

> <Gold.PLP.part.hbond>
-1.0000

> <Gold.PLP.part.metal>
0.0000

> <Gold.PLP.part.buried>
5.3041

> <Gold.PLP.part.nonpolar>
-55.9442

> <Gold.PLP.part.repulsive>
0.0522

> <Gold.PLP.ligand.clash>
0.0000

> <Gold.PLP.ligand.torsion>
0.8689

> <Gold.PLP.Chemscore.Hbond>
1.0000

> <Gold.PLP.Chemscore.CHOScore>
0.6222

> <Gold.PLP.Chemscore.Metal>
0.0000

> <Gold.Chemscore.Hbonds>
donor molecule, donor type, donor heavy atom, donor atom, acceptor molecule, acceptor atom, score
      L1  H    19    39       P1   470  1.00
      L1  C     4    23       P1  1131  0.62

> <Gold.PLP.Chemscore.Internal.Correction>
0.0483

