#       Name:                EN300-1725852_i002
#       Creating user name   aseyller
#       Creation time:       Sat Apr 22 07:52:48 2023


#       File generated by GOLD software.
#

@<TRIPOS>MOLECULE
EN300-1725852_i002
    40    42     1
SMALL
USER_CHARGES


@<TRIPOS>ATOM
      1 C1           4.1680  -0.8540   1.8535 C.3            1 <1>                0.0000
      2 N2           4.1320  -0.5002   0.4323 N.pl3          1 <1>                0.0000
      3 N3           5.2080  -0.5702  -0.4620 N.2            1 <1>                0.0000
      4 C4           4.7896  -0.1742  -1.6367 C.2            1 <1>                0.0000
      5 C5           3.4358   0.1601  -1.5285 C.2            1 <1>                0.0000
      6 C6           3.0549  -0.0548  -0.2480 C.2            1 <1>                0.0000
      7 C7           1.6774   0.1724   0.3194 C.3            1 <1>                0.0000
      8 C8           0.7672  -1.0433   0.0455 C.3            1 <1>                0.0000
      9 N9          -0.5695  -0.5208  -0.2926 N.4            1 <1>                1.0000
     10 C10         -1.5588  -1.0395   0.6613 C.3            1 <1>                0.0000
     11 C11         -2.9387  -0.6034   0.2409 C.ar           1 <1>                0.0000
     12 C12         -3.6852  -1.3970  -0.6099 C.ar           1 <1>                0.0000
     13 C13         -4.9509  -0.9969  -0.9956 C.ar           1 <1>                0.0000
     14 C14         -5.4704   0.1966  -0.5301 C.ar           1 <1>                0.0000
     15 C15         -4.7243   0.9897   0.3215 C.ar           1 <1>                0.0000
     16 C16         -3.4602   0.5876   0.7106 C.ar           1 <1>                0.0000
     17 C17         -0.5311   0.9552  -0.2165 C.3            1 <1>                0.0000
     18 C18          0.9581   1.3238  -0.4314 C.3            1 <1>                0.0000
     19 N19          1.2712   2.6243   0.1757 N.3            1 <1>                0.0000
     20 H20          4.4341   0.0253   2.4401 H              1 <1>                0.0000
     21 H21          3.1870  -1.2142   2.1632 H              1 <1>                0.0000
     22 H22          4.9098  -1.6362   2.0145 H              1 <1>                0.0000
     23 H23          5.3866  -0.1154  -2.5348 H              1 <1>                0.0000
     24 H24          2.8048   0.5216  -2.3270 H              1 <1>                0.0000
     25 H25          1.7317   0.3802   1.3880 H              1 <1>                0.0000
     26 H26          1.1618  -1.6211  -0.7903 H              1 <1>                0.0000
     27 H27          0.7064  -1.6691   0.9359 H              1 <1>                0.0000
     28 H28         -1.5113  -2.1283   0.6781 H              1 <1>                0.0000
     29 H29         -1.3424  -0.6510   1.6565 H              1 <1>                0.0000
     30 H30         -3.2793  -2.3294  -0.9736 H              1 <1>                0.0000
     31 H31         -5.5338  -1.6166  -1.6609 H              1 <1>                0.0000
     32 H32         -6.4590   0.5095  -0.8320 H              1 <1>                0.0000
     33 H33         -5.1300   1.9223   0.6849 H              1 <1>                0.0000
     34 H34         -2.8773   1.2072   1.3759 H              1 <1>                0.0000
     35 H35         -1.1473   1.3919  -1.0024 H              1 <1>                0.0000
     36 H36         -0.8681   1.2935   0.7633 H              1 <1>                0.0000
     37 H37          1.2127   1.3179  -1.4912 H              1 <1>                0.0000
     38 H38          0.7255   3.3609  -0.2459 H              1 <1>                0.0000
     39 H39          1.1339   2.5993   1.1750 H              1 <1>                0.0000
     40 H40         -0.8181  -0.8042  -1.2286 H              1 <1>                0.0000
@<TRIPOS>BOND
    1    1    2 1     
    2    1   20 1     
    3    1   21 1     
    4    1   22 1     
    5    2    3 1     
    6    2    6 1     
    7    3    4 2     
    8    4    5 1     
    9    4   23 1     
   10    5    6 2     
   11    5   24 1     
   12    6    7 1     
   13    7    8 1     
   14    7   18 1     
   15    7   25 1     
   16    8    9 1     
   17    8   26 1     
   18    8   27 1     
   19    9   10 1     
   20    9   17 1     
   21    9   40 1     
   22   10   11 1     
   23   10   28 1     
   24   10   29 1     
   25   11   12 ar    
   26   11   16 ar    
   27   12   13 ar    
   28   12   30 1     
   29   13   14 ar    
   30   13   31 1     
   31   14   15 ar    
   32   14   32 1     
   33   15   16 ar    
   34   15   33 1     
   35   16   34 1     
   36   17   18 1     
   37   17   35 1     
   38   17   36 1     
   39   18   19 1     
   40   18   37 1     
   41   19   38 1     
   42   19   39 1     
@<TRIPOS>SUBSTRUCTURE
      1 ****           1
@<TRIPOS>SET
DONOR_HYDROGENS      STATIC     ATOMS    <user>   **** ""
3 40 38 39
ATOM$RED        STATIC     ATOMS    COLORGROUP SYSTEM
3 40 38 39
