#       Name:                EN300-154847_i001
#       Creating user name   aseyller
#       Creation time:       Fri Apr 21 16:33:15 2023


#       File generated by GOLD software.
#

@<TRIPOS>MOLECULE
EN300-154847_i001|aminophenols|mol2|50|dock14
    27    27     1
SMALL
USER_CHARGES


@<TRIPOS>ATOM
      1 C1          32.1793  34.1669  38.1674 C.3            1 <1>                0.0000
      2 C2          32.1065  35.5267  37.4698 C.3            1 <1>                0.0000
      3 C3          33.2951  36.3868  37.9035 C.3            1 <1>                0.0000
      4 C4          32.1492  35.3249  35.9537 C.3            1 <1>                0.0000
      5 C5          30.8218  36.2174  37.8486 C.ar           1 <1>                0.0000
      6 C6          29.9867  35.6530  38.7960 C.ar           1 <1>                0.0000
      7 C7          28.8067  36.2834  39.1461 C.ar           1 <1>                0.0000
      8 Br8         27.6701  35.5058  40.4421 Br             1 <1>                0.0000
      9 C9          28.4562  37.4820  38.5508 C.ar           1 <1>                0.0000
     10 C10         29.2893  38.0532  37.6006 C.ar           1 <1>                0.0000
     11 N11         28.9370  39.2657  36.9967 N.pl3          1 <1>                0.0000
     12 C12         30.4806  37.4196  37.2524 C.ar           1 <1>                0.0000
     13 O13         31.3017  37.9759  36.3214 O.3            1 <1>                0.0000
     14 H14         32.1489  34.3106  39.2474 H              1 <1>                0.0000
     15 H15         31.3325  33.5542  37.8584 H              1 <1>                0.0000
     16 H16         33.1085  33.6673  37.8933 H              1 <1>                0.0000
     17 H17         34.2243  35.8872  37.6294 H              1 <1>                0.0000
     18 H18         33.2432  37.3555  37.4065 H              1 <1>                0.0000
     19 H19         33.2647  36.5305  38.9836 H              1 <1>                0.0000
     20 H20         31.3023  34.7122  35.6447 H              1 <1>                0.0000
     21 H21         32.0973  36.2937  35.4567 H              1 <1>                0.0000
     22 H22         33.0784  34.8253  35.6797 H              1 <1>                0.0000
     23 H23         30.2567  34.7175  39.2631 H              1 <1>                0.0000
     24 H24         27.5341  37.9724  38.8255 H              1 <1>                0.0000
     25 H25         28.1093  39.7075  37.2427 H              1 <1>                0.0000
     26 H26         29.5207  39.6643  36.3323 H              1 <1>                0.0000
     27 H27         30.8354  38.4417  35.6138 H              1 <1>                0.0000
@<TRIPOS>BOND
    1    1    2 1     
    2    1   14 1     
    3    1   15 1     
    4    1   16 1     
    5    2    3 1     
    6    2    4 1     
    7    2    5 1     
    8    3   17 1     
    9    3   18 1     
   10    3   19 1     
   11    4   20 1     
   12    4   21 1     
   13    4   22 1     
   14    5    6 ar    
   15    5   12 ar    
   16    6    7 ar    
   17    6   23 1     
   18    7    8 1     
   19    7    9 ar    
   20    9   10 ar    
   21    9   24 1     
   22   10   11 1     
   23   10   12 ar    
   24   11   25 1     
   25   11   26 1     
   26   12   13 1     
   27   13   27 1     
@<TRIPOS>SUBSTRUCTURE
      1 ****           1
@<TRIPOS>SET
DONOR_HYDROGENS      STATIC     ATOMS    <user>   **** ""
3 25 26 27
ATOM$RED        STATIC     ATOMS    COLORGROUP SYSTEM
3 25 26 27
@<TRIPOS>COMMENT
> <Gold.Version>
2022.2.0

> <Gold.Id.Protein>
1qkm|1qkm_protein|mol2

> <Gold.Protein.RotatedTorsions>
[  496  491  490  487 ] final -134.63 input  -89.99 | X-H torsion

> <Gold.Protein.ActiveResidues>
 MET295  LEU298  THR299  LEU301  ALA302  GLU305  TRP335  MET336  LEU339  MET340 
 GLY342  LEU343  ARG346  PHE356  ILE373  ILE376  PHE377  LEU380  LYS471  GLY472 
 MET473  HIS475  LEU476  LEU477  ASN478  MET479  VAL484  VAL487 

> <Gold.Protein.RotatedAtoms>
   37.1381   34.1540   40.7347 H   0  0  0  0  0  0  0  0  0  0  0  0  # atno 496  bound_to 491 

> <Gold.Score>
     Score     S(PLP)   S(hbond)     S(cho)   S(metal)  DE(clash)   DE(tors)     intcor
     38.85     -38.86       0.00       0.00       0.00       7.22       0.09       7.38

> <Gold.PLP.Fitness>
38.8456

> <Gold.PLP.PLP>
-38.8558

> <Gold.PLP.part.hbond>
0.0000

> <Gold.PLP.part.metal>
0.0000

> <Gold.PLP.part.buried>
-3.0802

> <Gold.PLP.part.nonpolar>
-36.0573

> <Gold.PLP.part.repulsive>
0.0000

> <Gold.PLP.ligand.clash>
7.2158

> <Gold.PLP.ligand.torsion>
0.0896

> <Gold.PLP.Chemscore.Hbond>
0.0000

> <Gold.PLP.Chemscore.CHOScore>
0.0000

> <Gold.PLP.Chemscore.Metal>
0.0000

> <Gold.PLP.Chemscore.Internal.Correction>
7.3849

