#       Name:                EN300-154847_i001
#       Creating user name   aseyller
#       Creation time:       Fri Apr 21 16:33:17 2023


#       File generated by GOLD software.
#

@<TRIPOS>MOLECULE
EN300-154847_i001|aminophenols|mol2|50|dock18
    27    27     1
SMALL
USER_CHARGES


@<TRIPOS>ATOM
      1 C1          32.5790  37.4668  35.3837 C.3            1 <1>                0.0000
      2 C2          31.2254  37.9823  35.8768 C.3            1 <1>                0.0000
      3 C3          31.3834  39.4119  36.3985 C.3            1 <1>                0.0000
      4 C4          30.2229  37.9689  34.7211 C.3            1 <1>                0.0000
      5 C5          30.7241  37.0949  36.9870 C.ar           1 <1>                0.0000
      6 C6          31.4238  35.9512  37.3272 C.ar           1 <1>                0.0000
      7 C7          30.9670  35.1340  38.3450 C.ar           1 <1>                0.0000
      8 Br8         31.9288  33.5720  38.8046 Br             1 <1>                0.0000
      9 C9          29.8081  35.4570  39.0282 C.ar           1 <1>                0.0000
     10 C10         29.1024  36.6025  38.6922 C.ar           1 <1>                0.0000
     11 N11         27.9297  36.9316  39.3817 N.pl3          1 <1>                0.0000
     12 C12         29.5666  37.4279  37.6698 C.ar           1 <1>                0.0000
     13 O13         28.8785  38.5530  37.3366 O.3            1 <1>                0.0000
     14 H14         33.2932  37.4763  36.2070 H              1 <1>                0.0000
     15 H15         32.4664  36.4483  35.0121 H              1 <1>                0.0000
     16 H16         32.9416  38.1085  34.5807 H              1 <1>                0.0000
     17 H17         31.7459  40.0537  35.5955 H              1 <1>                0.0000
     18 H18         30.4191  39.7791  36.7497 H              1 <1>                0.0000
     19 H19         32.0976  39.4214  37.2218 H              1 <1>                0.0000
     20 H20         30.1103  36.9503  34.3496 H              1 <1>                0.0000
     21 H21         29.2586  38.3361  35.0724 H              1 <1>                0.0000
     22 H22         30.5855  38.6106  33.9182 H              1 <1>                0.0000
     23 H23         32.3288  35.6955  36.7964 H              1 <1>                0.0000
     24 H24         29.4531  34.8172  39.8225 H              1 <1>                0.0000
     25 H25         27.6097  36.3582  40.0955 H              1 <1>                0.0000
     26 H26         27.4370  37.7333  39.1457 H              1 <1>                0.0000
     27 H27         29.3573  39.1450  36.7405 H              1 <1>                0.0000
@<TRIPOS>BOND
    1    1    2 1     
    2    1   14 1     
    3    1   15 1     
    4    1   16 1     
    5    2    3 1     
    6    2    4 1     
    7    2    5 1     
    8    3   17 1     
    9    3   18 1     
   10    3   19 1     
   11    4   20 1     
   12    4   21 1     
   13    4   22 1     
   14    5    6 ar    
   15    5   12 ar    
   16    6    7 ar    
   17    6   23 1     
   18    7    8 1     
   19    7    9 ar    
   20    9   10 ar    
   21    9   24 1     
   22   10   11 1     
   23   10   12 ar    
   24   11   25 1     
   25   11   26 1     
   26   12   13 1     
   27   13   27 1     
@<TRIPOS>SUBSTRUCTURE
      1 ****           1
@<TRIPOS>SET
DONOR_HYDROGENS      STATIC     ATOMS    <user>   **** ""
3 25 26 27
ATOM$RED        STATIC     ATOMS    COLORGROUP SYSTEM
3 25 26 27
@<TRIPOS>COMMENT
> <Gold.Version>
2022.2.0

> <Gold.Id.Protein>
1qkm|1qkm_protein|mol2

> <Gold.Protein.RotatedTorsions>
[  496  491  490  487 ] final   14.87 input  -89.99 | X-H torsion

> <Gold.Protein.ActiveResidues>
 MET295  LEU298  THR299  LEU301  ALA302  GLU305  TRP335  MET336  LEU339  MET340 
 GLY342  LEU343  ARG346  PHE356  ILE373  ILE376  PHE377  LEU380  LYS471  GLY472 
 MET473  HIS475  LEU476  LEU477  ASN478  MET479  VAL484  VAL487 

> <Gold.Protein.RotatedAtoms>
   36.2855   33.9917   42.3344 H   0  0  0  0  0  0  0  0  0  0  0  0  # atno 496  bound_to 491 

> <Gold.Score>
     Score     S(PLP)   S(hbond)     S(cho)   S(metal)  DE(clash)   DE(tors)     intcor
     36.63     -36.64       0.00       0.00       0.00       7.23       0.08       7.38

> <Gold.PLP.Fitness>
36.6343

> <Gold.PLP.PLP>
-36.6428

> <Gold.PLP.part.hbond>
0.0000

> <Gold.PLP.part.metal>
0.0000

> <Gold.PLP.part.buried>
-2.6235

> <Gold.PLP.part.nonpolar>
-34.6521

> <Gold.PLP.part.repulsive>
0.0000

> <Gold.PLP.ligand.clash>
7.2283

> <Gold.PLP.ligand.torsion>
0.0825

> <Gold.PLP.Chemscore.Hbond>
0.0000

> <Gold.PLP.Chemscore.CHOScore>
0.0000

> <Gold.PLP.Chemscore.Metal>
0.0000

> <Gold.PLP.Chemscore.Internal.Correction>
7.3849

