#       Name:                EN300-154847_i001
#       Creating user name   aseyller
#       Creation time:       Fri Apr 21 16:33:15 2023


#       File generated by GOLD software.
#

@<TRIPOS>MOLECULE
EN300-154847_i001|aminophenols|mol2|50|dock15
    27    27     1
SMALL
USER_CHARGES


@<TRIPOS>ATOM
      1 C1          28.2431  35.1971  39.0612 C.3            1 <1>                0.0000
      2 C2          28.9389  36.5563  38.9634 C.3            1 <1>                0.0000
      3 C3          27.9638  37.5886  38.3940 C.3            1 <1>                0.0000
      4 C4          29.3936  36.9978  40.3560 C.3            1 <1>                0.0000
      5 C5          30.1370  36.4430  38.0562 C.ar           1 <1>                0.0000
      6 C6          30.2530  37.2748  36.9571 C.ar           1 <1>                0.0000
      7 C7          31.3506  37.1739  36.1219 C.ar           1 <1>                0.0000
      8 Br8         31.5024  38.3145  34.6212 Br             1 <1>                0.0000
      9 C9          32.3381  36.2406  36.3822 C.ar           1 <1>                0.0000
     10 C10         32.2279  35.4041  37.4828 C.ar           1 <1>                0.0000
     11 N11         33.2255  34.4590  37.7483 N.pl3          1 <1>                0.0000
     12 C12         31.1238  35.5104  38.3265 C.ar           1 <1>                0.0000
     13 O13         31.0111  34.6926  39.4077 O.3            1 <1>                0.0000
     14 H14         27.9191  34.8825  38.0692 H              1 <1>                0.0000
     15 H15         28.9378  34.4616  39.4668 H              1 <1>                0.0000
     16 H16         27.3766  35.2790  39.7175 H              1 <1>                0.0000
     17 H17         27.0973  37.6705  39.0503 H              1 <1>                0.0000
     18 H18         28.4595  38.5569  38.3244 H              1 <1>                0.0000
     19 H19         27.6398  37.2740  37.4020 H              1 <1>                0.0000
     20 H20         30.0883  36.2623  40.7615 H              1 <1>                0.0000
     21 H21         29.8893  37.9661  40.2862 H              1 <1>                0.0000
     22 H22         28.5271  37.0796  41.0121 H              1 <1>                0.0000
     23 H23         29.4843  38.0047  36.7505 H              1 <1>                0.0000
     24 H24         33.1942  36.1634  35.7285 H              1 <1>                0.0000
     25 H25         33.9951  34.3886  37.1623 H              1 <1>                0.0000
     26 H26         33.1471  33.8745  38.5186 H              1 <1>                0.0000
     27 H27         31.2702  35.1062  40.2425 H              1 <1>                0.0000
@<TRIPOS>BOND
    1    1    2 1     
    2    1   14 1     
    3    1   15 1     
    4    1   16 1     
    5    2    3 1     
    6    2    4 1     
    7    2    5 1     
    8    3   17 1     
    9    3   18 1     
   10    3   19 1     
   11    4   20 1     
   12    4   21 1     
   13    4   22 1     
   14    5    6 ar    
   15    5   12 ar    
   16    6    7 ar    
   17    6   23 1     
   18    7    8 1     
   19    7    9 ar    
   20    9   10 ar    
   21    9   24 1     
   22   10   11 1     
   23   10   12 ar    
   24   11   25 1     
   25   11   26 1     
   26   12   13 1     
   27   13   27 1     
@<TRIPOS>SUBSTRUCTURE
      1 ****           1
@<TRIPOS>SET
DONOR_HYDROGENS      STATIC     ATOMS    <user>   **** ""
3 25 26 27
ATOM$RED        STATIC     ATOMS    COLORGROUP SYSTEM
3 25 26 27
@<TRIPOS>COMMENT
> <Gold.Version>
2022.2.0

> <Gold.Id.Protein>
1qkm|1qkm_protein|mol2

> <Gold.Protein.RotatedTorsions>
[  496  491  490  487 ] final  -72.37 input  -89.99 | X-H torsion

> <Gold.Protein.ActiveResidues>
 MET295  LEU298  THR299  LEU301  ALA302  GLU305  TRP335  MET336  LEU339  MET340 
 GLY342  LEU343  ARG346  PHE356  ILE373  ILE376  PHE377  LEU380  LYS471  GLY472 
 MET473  HIS475  LEU476  LEU477  ASN478  MET479  VAL484  VAL487 

> <Gold.Protein.RotatedAtoms>
   36.5986   34.7289   41.3087 H   0  0  0  0  0  0  0  0  0  0  0  0  # atno 496  bound_to 491 

> <Gold.Score>
     Score     S(PLP)   S(hbond)     S(cho)   S(metal)  DE(clash)   DE(tors)     intcor
     37.04     -34.09       1.00       0.00       0.00       7.35       0.05       7.38

> <Gold.PLP.Fitness>
37.0387

> <Gold.PLP.PLP>
-34.0922

> <Gold.PLP.part.hbond>
-1.0000

> <Gold.PLP.part.metal>
0.0000

> <Gold.PLP.part.buried>
2.0756

> <Gold.PLP.part.nonpolar>
-35.4716

> <Gold.PLP.part.repulsive>
0.0472

> <Gold.PLP.ligand.clash>
7.3475

> <Gold.PLP.ligand.torsion>
0.0455

> <Gold.PLP.Chemscore.Hbond>
1.0000

> <Gold.PLP.Chemscore.CHOScore>
0.0000

> <Gold.PLP.Chemscore.Metal>
0.0000

> <Gold.Chemscore.Hbonds>
donor molecule, donor type, donor heavy atom, donor atom, acceptor molecule, acceptor atom, score
      L1  H    13    27       P1   470  1.00

> <Gold.PLP.Chemscore.Internal.Correction>
7.3849

