#       Name:                EN300-154847_i001
#       Creating user name   aseyller
#       Creation time:       Fri Apr 21 16:33:09 2023


#       File generated by GOLD software.
#

@<TRIPOS>MOLECULE
EN300-154847_i001|aminophenols|mol2|50|dock4
    27    27     1
SMALL
USER_CHARGES


@<TRIPOS>ATOM
      1 C1          29.3330  36.3881  40.7985 C.3            1 <1>                0.0000
      2 C2          28.8938  36.2168  39.3429 C.3            1 <1>                0.0000
      3 C3          28.5723  34.7448  39.0770 C.3            1 <1>                0.0000
      4 C4          27.6479  37.0660  39.0829 C.3            1 <1>                0.0000
      5 C5          30.0051  36.6617  38.4273 C.ar           1 <1>                0.0000
      6 C6          29.8312  37.7686  37.6162 C.ar           1 <1>                0.0000
      7 C7          30.8482  38.1800  36.7743 C.ar           1 <1>                0.0000
      8 Br8         30.6032  39.6942  35.6683 Br             1 <1>                0.0000
      9 C9          32.0448  37.4864  36.7399 C.ar           1 <1>                0.0000
     10 C10         32.2255  36.3762  37.5509 C.ar           1 <1>                0.0000
     11 N11         33.4351  35.6727  37.5180 N.pl3          1 <1>                0.0000
     12 C12         31.2017  35.9658  38.4026 C.ar           1 <1>                0.0000
     13 O13         31.3741  34.8777  39.2007 O.3            1 <1>                0.0000
     14 H14         30.2205  35.7831  40.9838 H              1 <1>                0.0000
     15 H15         29.5620  37.4367  40.9880 H              1 <1>                0.0000
     16 H16         28.5292  36.0663  41.4608 H              1 <1>                0.0000
     17 H17         27.7685  34.4231  39.7392 H              1 <1>                0.0000
     18 H18         28.2594  34.6229  38.0400 H              1 <1>                0.0000
     19 H19         29.4599  34.1398  39.2622 H              1 <1>                0.0000
     20 H20         27.8770  38.1147  39.2723 H              1 <1>                0.0000
     21 H21         27.3351  36.9440  38.0459 H              1 <1>                0.0000
     22 H22         26.8443  36.7443  39.7452 H              1 <1>                0.0000
     23 H23         28.8986  38.3127  37.6402 H              1 <1>                0.0000
     24 H24         32.8376  37.8093  36.0814 H              1 <1>                0.0000
     25 H25         34.1482  35.9616  36.9274 H              1 <1>                0.0000
     26 H26         33.5602  34.8963  38.0859 H              1 <1>                0.0000
     27 H27         31.2653  35.0606  40.1440 H              1 <1>                0.0000
@<TRIPOS>BOND
    1    1    2 1     
    2    1   14 1     
    3    1   15 1     
    4    1   16 1     
    5    2    3 1     
    6    2    4 1     
    7    2    5 1     
    8    3   17 1     
    9    3   18 1     
   10    3   19 1     
   11    4   20 1     
   12    4   21 1     
   13    4   22 1     
   14    5    6 ar    
   15    5   12 ar    
   16    6    7 ar    
   17    6   23 1     
   18    7    8 1     
   19    7    9 ar    
   20    9   10 ar    
   21    9   24 1     
   22   10   11 1     
   23   10   12 ar    
   24   11   25 1     
   25   11   26 1     
   26   12   13 1     
   27   13   27 1     
@<TRIPOS>SUBSTRUCTURE
      1 ****           1
@<TRIPOS>SET
DONOR_HYDROGENS      STATIC     ATOMS    <user>   **** ""
3 25 26 27
ATOM$RED        STATIC     ATOMS    COLORGROUP SYSTEM
3 25 26 27
@<TRIPOS>COMMENT
> <Gold.Version>
2022.2.0

> <Gold.Id.Protein>
1qkm|1qkm_protein|mol2

> <Gold.Protein.RotatedTorsions>
[  496  491  490  487 ] final  158.26 input  -89.99 | X-H torsion

> <Gold.Protein.ActiveResidues>
 MET295  LEU298  THR299  LEU301  ALA302  GLU305  TRP335  MET336  LEU339  MET340 
 GLY342  LEU343  ARG346  PHE356  ILE373  ILE376  PHE377  LEU380  LYS471  GLY472 
 MET473  HIS475  LEU476  LEU477  ASN478  MET479  VAL484  VAL487 

> <Gold.Protein.RotatedAtoms>
   37.2919   33.1863   41.0911 H   0  0  0  0  0  0  0  0  0  0  0  0  # atno 496  bound_to 491 

> <Gold.Score>
     Score     S(PLP)   S(hbond)     S(cho)   S(metal)  DE(clash)   DE(tors)     intcor
     39.84     -36.84       1.00       0.00       0.00       7.21       0.09       7.39

> <Gold.PLP.Fitness>
39.8377

> <Gold.PLP.PLP>
-36.8387

> <Gold.PLP.part.hbond>
-1.0000

> <Gold.PLP.part.metal>
0.0000

> <Gold.PLP.part.buried>
0.7121

> <Gold.PLP.part.nonpolar>
-37.8855

> <Gold.PLP.part.repulsive>
0.0388

> <Gold.PLP.ligand.clash>
7.2070

> <Gold.PLP.ligand.torsion>
0.0896

> <Gold.PLP.Chemscore.Hbond>
1.0000

> <Gold.PLP.Chemscore.CHOScore>
0.0000

> <Gold.PLP.Chemscore.Metal>
0.0000

> <Gold.Chemscore.Hbonds>
donor molecule, donor type, donor heavy atom, donor atom, acceptor molecule, acceptor atom, score
      L1  H    13    27       P1   470  1.00

> <Gold.PLP.Chemscore.Internal.Correction>
7.3853

