#       Name:                EN300-154847_i001
#       Creating user name   aseyller
#       Creation time:       Fri Apr 21 16:33:16 2023


#       File generated by GOLD software.
#

@<TRIPOS>MOLECULE
EN300-154847_i001|aminophenols|mol2|50|dock16
    27    27     1
SMALL
USER_CHARGES


@<TRIPOS>ATOM
      1 C1          31.3229  38.1658  34.5754 C.3            1 <1>                0.0000
      2 C2          31.8455  37.4150  35.8018 C.3            1 <1>                0.0000
      3 C3          32.2696  36.0030  35.3930 C.3            1 <1>                0.0000
      4 C4          33.0486  38.1611  36.3821 C.3            1 <1>                0.0000
      5 C5          30.7572  37.3316  36.8411 C.ar           1 <1>                0.0000
      6 C6          29.5552  37.9850  36.6373 C.ar           1 <1>                0.0000
      7 C7          28.5541  37.9113  37.5885 C.ar           1 <1>                0.0000
      8 Br8         26.9134  38.8072  37.3030 Br             1 <1>                0.0000
      9 C9          28.7502  37.1831  38.7484 C.ar           1 <1>                0.0000
     10 C10         29.9529  36.5254  38.9584 C.ar           1 <1>                0.0000
     11 N11         30.1538  35.7881  40.1310 N.pl3          1 <1>                0.0000
     12 C12         30.9589  36.5962  37.9967 C.ar           1 <1>                0.0000
     13 O13         32.1403  35.9524  38.1975 O.3            1 <1>                0.0000
     14 H14         30.4658  37.6344  34.1620 H              1 <1>                0.0000
     15 H15         31.0208  39.1717  34.8667 H              1 <1>                0.0000
     16 H16         32.1101  38.2263  33.8238 H              1 <1>                0.0000
     17 H17         33.0568  36.0634  34.6414 H              1 <1>                0.0000
     18 H18         32.6419  35.4682  36.2668 H              1 <1>                0.0000
     19 H19         31.4125  35.4715  34.9796 H              1 <1>                0.0000
     20 H20         32.7464  39.1670  36.6734 H              1 <1>                0.0000
     21 H21         33.4209  37.6262  37.2559 H              1 <1>                0.0000
     22 H22         33.8357  38.2214  35.6305 H              1 <1>                0.0000
     23 H23         29.3982  38.5545  35.7332 H              1 <1>                0.0000
     24 H24         27.9672  37.1272  39.4900 H              1 <1>                0.0000
     25 H25         29.4514  35.7366  40.7979 H              1 <1>                0.0000
     26 H26         30.9956  35.3284  40.2766 H              1 <1>                0.0000
     27 H27         32.4045  35.8957  39.1260 H              1 <1>                0.0000
@<TRIPOS>BOND
    1    1    2 1     
    2    1   14 1     
    3    1   15 1     
    4    1   16 1     
    5    2    3 1     
    6    2    4 1     
    7    2    5 1     
    8    3   17 1     
    9    3   18 1     
   10    3   19 1     
   11    4   20 1     
   12    4   21 1     
   13    4   22 1     
   14    5    6 ar    
   15    5   12 ar    
   16    6    7 ar    
   17    6   23 1     
   18    7    8 1     
   19    7    9 ar    
   20    9   10 ar    
   21    9   24 1     
   22   10   11 1     
   23   10   12 ar    
   24   11   25 1     
   25   11   26 1     
   26   12   13 1     
   27   13   27 1     
@<TRIPOS>SUBSTRUCTURE
      1 ****           1
@<TRIPOS>SET
DONOR_HYDROGENS      STATIC     ATOMS    <user>   **** ""
3 25 26 27
ATOM$RED        STATIC     ATOMS    COLORGROUP SYSTEM
3 25 26 27
@<TRIPOS>COMMENT
> <Gold.Version>
2022.2.0

> <Gold.Id.Protein>
1qkm|1qkm_protein|mol2

> <Gold.Protein.RotatedTorsions>
[  496  491  490  487 ] final  -41.01 input  -89.99 | X-H torsion

> <Gold.Protein.ActiveResidues>
 MET295  LEU298  THR299  LEU301  ALA302  GLU305  TRP335  MET336  LEU339  MET340 
 GLY342  LEU343  ARG346  PHE356  ILE373  ILE376  PHE377  LEU380  LYS471  GLY472 
 MET473  HIS475  LEU476  LEU477  ASN478  MET479  VAL484  VAL487 

> <Gold.Protein.RotatedAtoms>
   36.3689   34.6566   41.7581 H   0  0  0  0  0  0  0  0  0  0  0  0  # atno 496  bound_to 491 

> <Gold.Score>
     Score     S(PLP)   S(hbond)     S(cho)   S(metal)  DE(clash)   DE(tors)     intcor
     37.68     -36.24       0.48       0.00       0.00       7.22       0.09       7.38

> <Gold.PLP.Fitness>
37.6781

> <Gold.PLP.PLP>
-36.2446

> <Gold.PLP.part.hbond>
-1.0000

> <Gold.PLP.part.metal>
0.0000

> <Gold.PLP.part.buried>
-2.5212

> <Gold.PLP.part.nonpolar>
-33.2086

> <Gold.PLP.part.repulsive>
0.0764

> <Gold.PLP.ligand.clash>
7.2202

> <Gold.PLP.ligand.torsion>
0.0856

> <Gold.PLP.Chemscore.Hbond>
0.4800

> <Gold.PLP.Chemscore.CHOScore>
0.0000

> <Gold.PLP.Chemscore.Metal>
0.0000

> <Gold.Chemscore.Hbonds>
donor molecule, donor type, donor heavy atom, donor atom, acceptor molecule, acceptor atom, score
      L1  H    11    26       P1   470  0.48

> <Gold.PLP.Chemscore.Internal.Correction>
7.3849

