#       Name:                EN300-154847_i001
#       Creating user name   aseyller
#       Creation time:       Fri Apr 21 16:33:19 2023


#       File generated by GOLD software.
#

@<TRIPOS>MOLECULE
EN300-154847_i001|aminophenols|mol2|50|dock20
    27    27     1
SMALL
USER_CHARGES


@<TRIPOS>ATOM
      1 C1          27.3060  35.5216  38.0734 C.3            1 <1>                0.0000
      2 C2          27.7023  36.8857  38.6421 C.3            1 <1>                0.0000
      3 C3          26.6263  37.9159  38.2934 C.3            1 <1>                0.0000
      4 C4          27.8378  36.7844  40.1628 C.3            1 <1>                0.0000
      5 C5          29.0194  37.3141  38.0479 C.ar           1 <1>                0.0000
      6 C6          29.1223  38.5324  37.4009 C.ar           1 <1>                0.0000
      7 C7          30.3289  38.9291  36.8540 C.ar           1 <1>                0.0000
      8 Br8         30.4620  40.5960  35.9710 Br             1 <1>                0.0000
      9 C9          31.4390  38.1093  36.9519 C.ar           1 <1>                0.0000
     10 C10         31.3424  36.8869  37.5996 C.ar           1 <1>                0.0000
     11 N11         32.4640  36.0556  37.7000 N.pl3          1 <1>                0.0000
     12 C12         30.1272  36.4906  38.1549 C.ar           1 <1>                0.0000
     13 O13         30.0272  35.2928  38.7918 O.3            1 <1>                0.0000
     14 H14         27.2095  35.5938  36.9901 H              1 <1>                0.0000
     15 H15         28.0726  34.7878  38.3219 H              1 <1>                0.0000
     16 H16         26.3534  35.2117  38.5033 H              1 <1>                0.0000
     17 H17         25.6737  37.6059  38.7232 H              1 <1>                0.0000
     18 H18         26.9087  38.8876  38.6985 H              1 <1>                0.0000
     19 H19         26.5298  37.9880  37.2101 H              1 <1>                0.0000
     20 H20         28.6044  36.0504  40.4111 H              1 <1>                0.0000
     21 H21         28.1201  37.7561  40.5678 H              1 <1>                0.0000
     22 H22         26.8852  36.4744  40.5925 H              1 <1>                0.0000
     23 H23         28.2580  39.1752  37.3224 H              1 <1>                0.0000
     24 H24         32.3801  38.4210  36.5238 H              1 <1>                0.0000
     25 H25         33.3100  36.3343  37.3163 H              1 <1>                0.0000
     26 H26         32.3950  35.2008  38.1534 H              1 <1>                0.0000
     27 H27         30.2702  35.3233  39.7273 H              1 <1>                0.0000
@<TRIPOS>BOND
    1    1    2 1     
    2    1   14 1     
    3    1   15 1     
    4    1   16 1     
    5    2    3 1     
    6    2    4 1     
    7    2    5 1     
    8    3   17 1     
    9    3   18 1     
   10    3   19 1     
   11    4   20 1     
   12    4   21 1     
   13    4   22 1     
   14    5    6 ar    
   15    5   12 ar    
   16    6    7 ar    
   17    6   23 1     
   18    7    8 1     
   19    7    9 ar    
   20    9   10 ar    
   21    9   24 1     
   22   10   11 1     
   23   10   12 ar    
   24   11   25 1     
   25   11   26 1     
   26   12   13 1     
   27   13   27 1     
@<TRIPOS>SUBSTRUCTURE
      1 ****           1
@<TRIPOS>SET
DONOR_HYDROGENS      STATIC     ATOMS    <user>   **** ""
3 25 26 27
ATOM$RED        STATIC     ATOMS    COLORGROUP SYSTEM
3 25 26 27
@<TRIPOS>COMMENT
> <Gold.Version>
2022.2.0

> <Gold.Id.Protein>
1qkm|1qkm_protein|mol2

> <Gold.Protein.RotatedTorsions>
[  496  491  490  487 ] final -121.79 input  -89.99 | X-H torsion

> <Gold.Protein.ActiveResidues>
 MET295  LEU298  THR299  LEU301  ALA302  GLU305  TRP335  MET336  LEU339  MET340 
 GLY342  LEU343  ARG346  PHE356  ILE373  ILE376  PHE377  LEU380  LYS471  GLY472 
 MET473  HIS475  LEU476  LEU477  ASN478  MET479  VAL484  VAL487 

> <Gold.Protein.RotatedAtoms>
   37.0408   34.3328   40.7896 H   0  0  0  0  0  0  0  0  0  0  0  0  # atno 496  bound_to 491 

> <Gold.Score>
     Score     S(PLP)   S(hbond)     S(cho)   S(metal)  DE(clash)   DE(tors)     intcor
     35.23     -35.27       0.00       0.00       0.00       7.30       0.06       7.38

> <Gold.PLP.Fitness>
35.2295

> <Gold.PLP.PLP>
-35.2687

> <Gold.PLP.part.hbond>
0.0000

> <Gold.PLP.part.metal>
0.0000

> <Gold.PLP.part.buried>
-2.6133

> <Gold.PLP.part.nonpolar>
-32.8223

> <Gold.PLP.part.repulsive>
0.0308

> <Gold.PLP.ligand.clash>
7.2980

> <Gold.PLP.ligand.torsion>
0.0631

> <Gold.PLP.Chemscore.Hbond>
0.0000

> <Gold.PLP.Chemscore.CHOScore>
0.0000

> <Gold.PLP.Chemscore.Metal>
0.0000

> <Gold.PLP.Chemscore.Internal.Correction>
7.3849

