#       Name:                EN300-154847_i001
#       Creating user name   aseyller
#       Creation time:       Fri Apr 21 16:33:07 2023


#       File generated by GOLD software.
#

@<TRIPOS>MOLECULE
EN300-154847_i001|aminophenols|mol2|50|dock1
    27    27     1
SMALL
USER_CHARGES


@<TRIPOS>ATOM
      1 C1          27.8918  34.7847  39.3687 C.3            1 <1>                0.0000
      2 C2          28.0661  36.2742  39.6721 C.3            1 <1>                0.0000
      3 C3          26.7431  37.0028  39.4276 C.3            1 <1>                0.0000
      4 C4          28.4837  36.4515  41.1333 C.3            1 <1>                0.0000
      5 C5          29.1298  36.8489  38.7724 C.ar           1 <1>                0.0000
      6 C6          28.8489  37.9524  37.9870 C.ar           1 <1>                0.0000
      7 C7          29.8220  38.4825  37.1598 C.ar           1 <1>                0.0000
      8 Br8         29.4306  39.9912  36.0890 Br             1 <1>                0.0000
      9 C9          31.0815  37.9119  37.1143 C.ar           1 <1>                0.0000
     10 C10         31.3696  36.8057  37.8996 C.ar           1 <1>                0.0000
     11 N11         32.6429  36.2265  37.8554 N.pl3          1 <1>                0.0000
     12 C12         30.3896  36.2756  38.7366 C.ar           1 <1>                0.0000
     13 O13         30.6671  35.1910  39.5094 O.3            1 <1>                0.0000
     14 H14         27.5943  34.6583  38.3277 H              1 <1>                0.0000
     15 H15         28.8343  34.2657  39.5428 H              1 <1>                0.0000
     16 H16         27.1225  34.3690  40.0195 H              1 <1>                0.0000
     17 H17         25.9738  36.5871  40.0784 H              1 <1>                0.0000
     18 H18         26.8674  38.0639  39.6438 H              1 <1>                0.0000
     19 H19         26.4457  36.8764  38.3866 H              1 <1>                0.0000
     20 H20         29.4262  35.9325  41.3074 H              1 <1>                0.0000
     21 H21         28.6079  37.5127  41.3494 H              1 <1>                0.0000
     22 H22         27.7143  36.0358  41.7840 H              1 <1>                0.0000
     23 H23         27.8669  38.4008  38.0196 H              1 <1>                0.0000
     24 H24         31.8398  38.3274  36.4674 H              1 <1>                0.0000
     25 H25         33.3252  36.5987  37.2751 H              1 <1>                0.0000
     26 H26         32.8431  35.4527  38.4053 H              1 <1>                0.0000
     27 H27         31.0806  35.4070  40.3564 H              1 <1>                0.0000
@<TRIPOS>BOND
    1    1    2 1     
    2    1   14 1     
    3    1   15 1     
    4    1   16 1     
    5    2    3 1     
    6    2    4 1     
    7    2    5 1     
    8    3   17 1     
    9    3   18 1     
   10    3   19 1     
   11    4   20 1     
   12    4   21 1     
   13    4   22 1     
   14    5    6 ar    
   15    5   12 ar    
   16    6    7 ar    
   17    6   23 1     
   18    7    8 1     
   19    7    9 ar    
   20    9   10 ar    
   21    9   24 1     
   22   10   11 1     
   23   10   12 ar    
   24   11   25 1     
   25   11   26 1     
   26   12   13 1     
   27   13   27 1     
@<TRIPOS>SUBSTRUCTURE
      1 ****           1
@<TRIPOS>SET
DONOR_HYDROGENS      STATIC     ATOMS    <user>   **** ""
3 25 26 27
ATOM$RED        STATIC     ATOMS    COLORGROUP SYSTEM
3 25 26 27
@<TRIPOS>COMMENT
> <Gold.Version>
2022.2.0

> <Gold.Id.Protein>
1qkm|1qkm_protein|mol2

> <Gold.Protein.RotatedTorsions>
[  496  491  490  487 ] final    8.90 input  -89.99 | X-H torsion

> <Gold.Protein.ActiveResidues>
 MET295  LEU298  THR299  LEU301  ALA302  GLU305  TRP335  MET336  LEU339  MET340 
 GLY342  LEU343  ARG346  PHE356  ILE373  ILE376  PHE377  LEU380  LYS471  GLY472 
 MET473  HIS475  LEU476  LEU477  ASN478  MET479  VAL484  VAL487 

> <Gold.Protein.RotatedAtoms>
   36.2709   34.0829   42.3009 H   0  0  0  0  0  0  0  0  0  0  0  0  # atno 496  bound_to 491 

> <Gold.Score>
     Score     S(PLP)   S(hbond)     S(cho)   S(metal)  DE(clash)   DE(tors)     intcor
     44.20     -41.20       1.00       0.00       0.00       7.22       0.09       7.39

> <Gold.PLP.Fitness>
44.1976

> <Gold.PLP.PLP>
-41.2036

> <Gold.PLP.part.hbond>
-1.0000

> <Gold.PLP.part.metal>
0.0000

> <Gold.PLP.part.buried>
-3.0943

> <Gold.PLP.part.nonpolar>
-37.4936

> <Gold.PLP.part.repulsive>
0.0401

> <Gold.PLP.ligand.clash>
7.2170

> <Gold.PLP.ligand.torsion>
0.0896

> <Gold.PLP.Chemscore.Hbond>
1.0000

> <Gold.PLP.Chemscore.CHOScore>
0.0000

> <Gold.PLP.Chemscore.Metal>
0.0000

> <Gold.Chemscore.Hbonds>
donor molecule, donor type, donor heavy atom, donor atom, acceptor molecule, acceptor atom, score
      L1  H    13    27       P1   470  1.00

> <Gold.PLP.Chemscore.Internal.Correction>
7.3902

