#       Name:                EN300-154847_i001
#       Creating user name   aseyller
#       Creation time:       Fri Apr 21 16:33:13 2023


#       File generated by GOLD software.
#

@<TRIPOS>MOLECULE
EN300-154847_i001|aminophenols|mol2|50|dock12
    27    27     1
SMALL
USER_CHARGES


@<TRIPOS>ATOM
      1 C1          31.3725  37.2648  35.5695 C.3            1 <1>                0.0000
      2 C2          31.6054  36.5243  36.8880 C.3            1 <1>                0.0000
      3 C3          31.8470  35.0405  36.6038 C.3            1 <1>                0.0000
      4 C4          32.8275  37.1139  37.5949 C.3            1 <1>                0.0000
      5 C5          30.3930  36.6759  37.7702 C.ar           1 <1>                0.0000
      6 C6          29.3250  37.4485  37.3507 C.ar           1 <1>                0.0000
      7 C7          28.2108  37.5906  38.1574 C.ar           1 <1>                0.0000
      8 Br8         26.7546  38.6484  37.5773 Br             1 <1>                0.0000
      9 C9          28.1590  36.9600  39.3878 C.ar           1 <1>                0.0000
     10 C10         29.2262  36.1837  39.8138 C.ar           1 <1>                0.0000
     11 N11         29.1763  35.5448  41.0581 N.pl3          1 <1>                0.0000
     12 C12         30.3463  36.0372  38.9977 C.ar           1 <1>                0.0000
     13 O13         31.3956  35.2764  39.4106 O.3            1 <1>                0.0000
     14 H14         30.5018  36.8448  35.0658 H              1 <1>                0.0000
     15 H15         31.2003  38.3218  35.7719 H              1 <1>                0.0000
     16 H16         32.2494  37.1552  34.9314 H              1 <1>                0.0000
     17 H17         32.7240  34.9309  35.9658 H              1 <1>                0.0000
     18 H18         32.0130  34.5130  37.5432 H              1 <1>                0.0000
     19 H19         30.9764  34.6205  36.1002 H              1 <1>                0.0000
     20 H20         32.6553  38.1710  37.7974 H              1 <1>                0.0000
     21 H21         32.9935  36.5863  38.5342 H              1 <1>                0.0000
     22 H22         33.7043  37.0042  36.9568 H              1 <1>                0.0000
     23 H23         29.3616  37.9423  36.3910 H              1 <1>                0.0000
     24 H24         27.2880  37.0726  40.0162 H              1 <1>                0.0000
     25 H25         28.3946  35.6447  41.6235 H              1 <1>                0.0000
     26 H26         29.9235  35.0020  41.3549 H              1 <1>                0.0000
     27 H27         31.3549  35.0230  40.3429 H              1 <1>                0.0000
@<TRIPOS>BOND
    1    1    2 1     
    2    1   14 1     
    3    1   15 1     
    4    1   16 1     
    5    2    3 1     
    6    2    4 1     
    7    2    5 1     
    8    3   17 1     
    9    3   18 1     
   10    3   19 1     
   11    4   20 1     
   12    4   21 1     
   13    4   22 1     
   14    5    6 ar    
   15    5   12 ar    
   16    6    7 ar    
   17    6   23 1     
   18    7    8 1     
   19    7    9 ar    
   20    9   10 ar    
   21    9   24 1     
   22   10   11 1     
   23   10   12 ar    
   24   11   25 1     
   25   11   26 1     
   26   12   13 1     
   27   13   27 1     
@<TRIPOS>SUBSTRUCTURE
      1 ****           1
@<TRIPOS>SET
DONOR_HYDROGENS      STATIC     ATOMS    <user>   **** ""
3 25 26 27
ATOM$RED        STATIC     ATOMS    COLORGROUP SYSTEM
3 25 26 27
@<TRIPOS>COMMENT
> <Gold.Version>
2022.2.0

> <Gold.Id.Protein>
1qkm|1qkm_protein|mol2

> <Gold.Protein.RotatedTorsions>
[  496  491  490  487 ] final  -16.92 input  -89.99 | X-H torsion

> <Gold.Protein.ActiveResidues>
 MET295  LEU298  THR299  LEU301  ALA302  GLU305  TRP335  MET336  LEU339  MET340 
 GLY342  LEU343  ARG346  PHE356  ILE373  ILE376  PHE377  LEU380  LYS471  GLY472 
 MET473  HIS475  LEU476  LEU477  ASN478  MET479  VAL484  VAL487 

> <Gold.Protein.RotatedAtoms>
   36.2735   34.4347   42.0689 H   0  0  0  0  0  0  0  0  0  0  0  0  # atno 496  bound_to 491 

> <Gold.Score>
     Score     S(PLP)   S(hbond)     S(cho)   S(metal)  DE(clash)   DE(tors)     intcor
     39.27     -33.75       1.86       0.00       0.00       7.41       0.02       7.38

> <Gold.PLP.Fitness>
39.2726

> <Gold.PLP.PLP>
-33.7535

> <Gold.PLP.part.hbond>
-2.0000

> <Gold.PLP.part.metal>
0.0000

> <Gold.PLP.part.buried>
-0.8112

> <Gold.PLP.part.nonpolar>
-30.3390

> <Gold.PLP.part.repulsive>
0.0780

> <Gold.PLP.ligand.clash>
7.4118

> <Gold.PLP.ligand.torsion>
0.0230

> <Gold.PLP.Chemscore.Hbond>
1.8640

> <Gold.PLP.Chemscore.CHOScore>
0.0000

> <Gold.PLP.Chemscore.Metal>
0.0000

> <Gold.Chemscore.Hbonds>
donor molecule, donor type, donor heavy atom, donor atom, acceptor molecule, acceptor atom, score
      L1  H    11    26       P1   470  0.86
      L1  H    13    27       P1   470  1.00

> <Gold.PLP.Chemscore.Internal.Correction>
7.3849

