#       Name:                EN300-154847_i001
#       Creating user name   aseyller
#       Creation time:       Fri Apr 21 16:33:14 2023


#       File generated by GOLD software.
#

@<TRIPOS>MOLECULE
EN300-154847_i001|aminophenols|mol2|50|dock13
    27    27     1
SMALL
USER_CHARGES


@<TRIPOS>ATOM
      1 C1          33.5798  35.9576  38.4948 C.3            1 <1>                0.0000
      2 C2          32.6073  35.8621  37.3175 C.3            1 <1>                0.0000
      3 C3          33.2790  36.4074  36.0556 C.3            1 <1>                0.0000
      4 C4          32.2167  34.3995  37.0959 C.3            1 <1>                0.0000
      5 C5          31.3725  36.6717  37.6191 C.ar           1 <1>                0.0000
      6 C6          31.0735  37.7866  36.8570 C.ar           1 <1>                0.0000
      7 C7          29.9416  38.5324  37.1307 C.ar           1 <1>                0.0000
      8 Br8         29.5393  40.0554  36.0845 Br             1 <1>                0.0000
      9 C9          29.1025  38.1664  38.1680 C.ar           1 <1>                0.0000
     10 C10         29.3965  37.0494  38.9355 C.ar           1 <1>                0.0000
     11 N11         28.5494  36.6769  39.9856 N.pl3          1 <1>                0.0000
     12 C12         30.5347  36.2957  38.6553 C.ar           1 <1>                0.0000
     13 O13         30.8274  35.1988  39.4047 O.3            1 <1>                0.0000
     14 H14         33.8581  36.9995  38.6527 H              1 <1>                0.0000
     15 H15         33.1013  35.5691  39.3938 H              1 <1>                0.0000
     16 H16         34.4730  35.3720  38.2767 H              1 <1>                0.0000
     17 H17         34.1721  35.8218  35.8375 H              1 <1>                0.0000
     18 H18         32.5861  36.3394  35.2169 H              1 <1>                0.0000
     19 H19         33.5573  37.4494  36.2134 H              1 <1>                0.0000
     20 H20         31.7382  34.0111  37.9950 H              1 <1>                0.0000
     21 H21         31.5239  34.3315  36.2572 H              1 <1>                0.0000
     22 H22         33.1099  33.8140  36.8778 H              1 <1>                0.0000
     23 H23         31.7259  38.0757  36.0463 H              1 <1>                0.0000
     24 H24         28.2193  38.7504  38.3802 H              1 <1>                0.0000
     25 H25         27.7556  37.2003  40.1772 H              1 <1>                0.0000
     26 H26         28.7562  35.8953  40.5217 H              1 <1>                0.0000
     27 H27         31.0840  35.4013  40.3148 H              1 <1>                0.0000
@<TRIPOS>BOND
    1    1    2 1     
    2    1   14 1     
    3    1   15 1     
    4    1   16 1     
    5    2    3 1     
    6    2    4 1     
    7    2    5 1     
    8    3   17 1     
    9    3   18 1     
   10    3   19 1     
   11    4   20 1     
   12    4   21 1     
   13    4   22 1     
   14    5    6 ar    
   15    5   12 ar    
   16    6    7 ar    
   17    6   23 1     
   18    7    8 1     
   19    7    9 ar    
   20    9   10 ar    
   21    9   24 1     
   22   10   11 1     
   23   10   12 ar    
   24   11   25 1     
   25   11   26 1     
   26   12   13 1     
   27   13   27 1     
@<TRIPOS>SUBSTRUCTURE
      1 ****           1
@<TRIPOS>SET
DONOR_HYDROGENS      STATIC     ATOMS    <user>   **** ""
3 25 26 27
ATOM$RED        STATIC     ATOMS    COLORGROUP SYSTEM
3 25 26 27
@<TRIPOS>COMMENT
> <Gold.Version>
2022.2.0

> <Gold.Id.Protein>
1qkm|1qkm_protein|mol2

> <Gold.Protein.RotatedTorsions>
[  496  491  490  487 ] final  124.68 input  -89.99 | X-H torsion

> <Gold.Protein.ActiveResidues>
 MET295  LEU298  THR299  LEU301  ALA302  GLU305  TRP335  MET336  LEU339  MET340 
 GLY342  LEU343  ARG346  PHE356  ILE373  ILE376  PHE377  LEU380  LYS471  GLY472 
 MET473  HIS475  LEU476  LEU477  ASN478  MET479  VAL484  VAL487 

> <Gold.Protein.RotatedAtoms>
   37.1157   32.9529   41.5509 H   0  0  0  0  0  0  0  0  0  0  0  0  # atno 496  bound_to 491 

> <Gold.Score>
     Score     S(PLP)   S(hbond)     S(cho)   S(metal)  DE(clash)   DE(tors)     intcor
     39.42     -36.44       1.00       0.00       0.00       7.24       0.08       7.38

> <Gold.PLP.Fitness>
39.4239

> <Gold.PLP.PLP>
-36.4392

> <Gold.PLP.part.hbond>
-1.0000

> <Gold.PLP.part.metal>
0.0000

> <Gold.PLP.part.buried>
-2.8874

> <Gold.PLP.part.nonpolar>
-32.7518

> <Gold.PLP.part.repulsive>
0.0000

> <Gold.PLP.ligand.clash>
7.2413

> <Gold.PLP.ligand.torsion>
0.0795

> <Gold.PLP.Chemscore.Hbond>
1.0000

> <Gold.PLP.Chemscore.CHOScore>
0.0000

> <Gold.PLP.Chemscore.Metal>
0.0000

> <Gold.Chemscore.Hbonds>
donor molecule, donor type, donor heavy atom, donor atom, acceptor molecule, acceptor atom, score
      L1  H    13    27       P1   470  1.00

> <Gold.PLP.Chemscore.Internal.Correction>
7.3849

