#       Name:                EN300-154847_i001
#       Creating user name   aseyller
#       Creation time:       Fri Apr 21 16:33:11 2023


#       File generated by GOLD software.
#

@<TRIPOS>MOLECULE
EN300-154847_i001|aminophenols|mol2|50|dock8
    27    27     1
SMALL
USER_CHARGES


@<TRIPOS>ATOM
      1 C1          26.8546  35.1330  38.9805 C.3            1 <1>                0.0000
      2 C2          27.4171  36.5120  39.3311 C.3            1 <1>                0.0000
      3 C3          26.4711  37.5961  38.8107 C.3            1 <1>                0.0000
      4 C4          27.5501  36.6374  40.8501 C.3            1 <1>                0.0000
      5 C5          28.7720  36.6789  38.6927 C.ar           1 <1>                0.0000
      6 C6          28.9627  37.6401  37.7164 C.ar           1 <1>                0.0000
      7 C7          30.2043  37.7963  37.1279 C.ar           1 <1>                0.0000
      8 Br8         30.4574  39.1125  35.7939 Br             1 <1>                0.0000
      9 C9          31.2619  36.9919  37.5134 C.ar           1 <1>                0.0000
     10 C10         31.0773  36.0267  38.4919 C.ar           1 <1>                0.0000
     11 N11         32.1456  35.2117  38.8836 N.pl3          1 <1>                0.0000
     12 C12         29.8269  35.8740  39.0879 C.ar           1 <1>                0.0000
     13 O13         29.6407  34.9291  40.0486 O.3            1 <1>                0.0000
     14 H14         26.7599  35.0436  37.8983 H              1 <1>                0.0000
     15 H15         27.5286  34.3607  39.3512 H              1 <1>                0.0000
     16 H16         25.8746  35.0122  39.4423 H              1 <1>                0.0000
     17 H17         25.4911  37.4753  39.2724 H              1 <1>                0.0000
     18 H18         26.8719  38.5785  39.0604 H              1 <1>                0.0000
     19 H19         26.3764  37.5067  37.7285 H              1 <1>                0.0000
     20 H20         28.2241  35.8651  41.2208 H              1 <1>                0.0000
     21 H21         27.9508  37.6199  41.0998 H              1 <1>                0.0000
     22 H22         26.5701  36.5167  41.3118 H              1 <1>                0.0000
     23 H23         28.1396  38.2700  37.4128 H              1 <1>                0.0000
     24 H24         32.2305  37.1154  37.0522 H              1 <1>                0.0000
     25 H25         33.0163  35.3216  38.4706 H              1 <1>                0.0000
     26 H26         32.0151  34.5369  39.5683 H              1 <1>                0.0000
     27 H27         30.3519  34.8875  40.7025 H              1 <1>                0.0000
@<TRIPOS>BOND
    1    1    2 1     
    2    1   14 1     
    3    1   15 1     
    4    1   16 1     
    5    2    3 1     
    6    2    4 1     
    7    2    5 1     
    8    3   17 1     
    9    3   18 1     
   10    3   19 1     
   11    4   20 1     
   12    4   21 1     
   13    4   22 1     
   14    5    6 ar    
   15    5   12 ar    
   16    6    7 ar    
   17    6   23 1     
   18    7    8 1     
   19    7    9 ar    
   20    9   10 ar    
   21    9   24 1     
   22   10   11 1     
   23   10   12 ar    
   24   11   25 1     
   25   11   26 1     
   26   12   13 1     
   27   13   27 1     
@<TRIPOS>SUBSTRUCTURE
      1 ****           1
@<TRIPOS>SET
DONOR_HYDROGENS      STATIC     ATOMS    <user>   **** ""
3 25 26 27
ATOM$RED        STATIC     ATOMS    COLORGROUP SYSTEM
3 25 26 27
@<TRIPOS>COMMENT
> <Gold.Version>
2022.2.0

> <Gold.Id.Protein>
1qkm|1qkm_protein|mol2

> <Gold.Protein.RotatedTorsions>
[  496  491  490  487 ] final  -83.33 input  -89.99 | X-H torsion

> <Gold.Protein.ActiveResidues>
 MET295  LEU298  THR299  LEU301  ALA302  GLU305  TRP335  MET336  LEU339  MET340 
 GLY342  LEU343  ARG346  PHE356  ILE373  ILE376  PHE377  LEU380  LYS471  GLY472 
 MET473  HIS475  LEU476  LEU477  ASN478  MET479  VAL484  VAL487 

> <Gold.Protein.RotatedAtoms>
   36.6961   34.6915   41.1620 H   0  0  0  0  0  0  0  0  0  0  0  0  # atno 496  bound_to 491 

> <Gold.Score>
     Score     S(PLP)   S(hbond)     S(cho)   S(metal)  DE(clash)   DE(tors)     intcor
     37.89     -34.92       1.00       0.00       0.00       7.27       0.07       7.38

> <Gold.PLP.Fitness>
37.8913

> <Gold.PLP.PLP>
-34.9190

> <Gold.PLP.part.hbond>
-1.4945

> <Gold.PLP.part.metal>
0.0000

> <Gold.PLP.part.buried>
0.6389

> <Gold.PLP.part.nonpolar>
-35.1426

> <Gold.PLP.part.repulsive>
0.0854

> <Gold.PLP.ligand.clash>
7.2713

> <Gold.PLP.ligand.torsion>
0.0707

> <Gold.PLP.Chemscore.Hbond>
1.0000

> <Gold.PLP.Chemscore.CHOScore>
0.0000

> <Gold.PLP.Chemscore.Metal>
0.0000

> <Gold.Chemscore.Hbonds>
donor molecule, donor type, donor heavy atom, donor atom, acceptor molecule, acceptor atom, score
      L1  H    13    27       P1   470  1.00

> <Gold.PLP.Chemscore.Internal.Correction>
7.3849

