#       Name:                EN300-154847_i001
#       Creating user name   aseyller
#       Creation time:       Fri Apr 21 16:33:12 2023


#       File generated by GOLD software.
#

@<TRIPOS>MOLECULE
EN300-154847_i001|aminophenols|mol2|50|dock9
    27    27     1
SMALL
USER_CHARGES


@<TRIPOS>ATOM
      1 C1          29.4904  37.2973  40.1983 C.3            1 <1>                0.0000
      2 C2          29.2634  37.0772  38.7012 C.3            1 <1>                0.0000
      3 C3          27.9519  36.3181  38.4904 C.3            1 <1>                0.0000
      4 C4          29.1888  38.4311  37.9924 C.3            1 <1>                0.0000
      5 C5          30.4054  36.2748  38.1327 C.ar           1 <1>                0.0000
      6 C6          31.1208  36.7597  37.0527 C.ar           1 <1>                0.0000
      7 C7          32.1691  36.0263  36.5277 C.ar           1 <1>                0.0000
      8 Br8         33.1426  36.6957  35.0511 Br             1 <1>                0.0000
      9 C9          32.5075  34.8042  37.0808 C.ar           1 <1>                0.0000
     10 C10         31.7944  34.3128  38.1639 C.ar           1 <1>                0.0000
     11 N11         32.1347  33.0766  38.7253 N.pl3          1 <1>                0.0000
     12 C12         30.7416  35.0552  38.6953 C.ar           1 <1>                0.0000
     13 O13         30.0393  34.5780  39.7580 O.3            1 <1>                0.0000
     14 H14         29.5436  36.3328  40.7033 H              1 <1>                0.0000
     15 H15         30.4247  37.8380  40.3485 H              1 <1>                0.0000
     16 H16         28.6645  37.8778  40.6095 H              1 <1>                0.0000
     17 H17         27.1260  36.8986  38.9016 H              1 <1>                0.0000
     18 H18         27.7902  36.1614  37.4239 H              1 <1>                0.0000
     19 H19         28.0051  35.3537  38.9954 H              1 <1>                0.0000
     20 H20         30.1232  38.9718  38.1426 H              1 <1>                0.0000
     21 H21         29.0271  38.2743  36.9259 H              1 <1>                0.0000
     22 H22         28.3629  39.0115  38.4037 H              1 <1>                0.0000
     23 H23         30.8597  37.7133  36.6181 H              1 <1>                0.0000
     24 H24         33.3263  34.2331  36.6690 H              1 <1>                0.0000
     25 H25         32.8701  32.5626  38.3568 H              1 <1>                0.0000
     26 H26         31.6351  32.7341  39.4830 H              1 <1>                0.0000
     27 H27         30.4750  34.7139  40.6105 H              1 <1>                0.0000
@<TRIPOS>BOND
    1    1    2 1     
    2    1   14 1     
    3    1   15 1     
    4    1   16 1     
    5    2    3 1     
    6    2    4 1     
    7    2    5 1     
    8    3   17 1     
    9    3   18 1     
   10    3   19 1     
   11    4   20 1     
   12    4   21 1     
   13    4   22 1     
   14    5    6 ar    
   15    5   12 ar    
   16    6    7 ar    
   17    6   23 1     
   18    7    8 1     
   19    7    9 ar    
   20    9   10 ar    
   21    9   24 1     
   22   10   11 1     
   23   10   12 ar    
   24   11   25 1     
   25   11   26 1     
   26   12   13 1     
   27   13   27 1     
@<TRIPOS>SUBSTRUCTURE
      1 ****           1
@<TRIPOS>SET
DONOR_HYDROGENS      STATIC     ATOMS    <user>   **** ""
3 25 26 27
ATOM$RED        STATIC     ATOMS    COLORGROUP SYSTEM
3 25 26 27
@<TRIPOS>COMMENT
> <Gold.Version>
2022.2.0

> <Gold.Id.Protein>
1qkm|1qkm_protein|mol2

> <Gold.Protein.RotatedTorsions>
[  496  491  490  487 ] final    1.49 input  -89.99 | X-H torsion

> <Gold.Protein.ActiveResidues>
 MET295  LEU298  THR299  LEU301  ALA302  GLU305  TRP335  MET336  LEU339  MET340 
 GLY342  LEU343  ARG346  PHE356  ILE373  ILE376  PHE377  LEU380  LYS471  GLY472 
 MET473  HIS475  LEU476  LEU477  ASN478  MET479  VAL484  VAL487 

> <Gold.Protein.RotatedAtoms>
   36.2607   34.1923   42.2481 H   0  0  0  0  0  0  0  0  0  0  0  0  # atno 496  bound_to 491 

> <Gold.Score>
     Score     S(PLP)   S(hbond)     S(cho)   S(metal)  DE(clash)   DE(tors)     intcor
     38.49     -35.50       1.00       0.00       0.00       7.23       0.08       7.38

> <Gold.PLP.Fitness>
38.4941

> <Gold.PLP.PLP>
-35.5003

> <Gold.PLP.part.hbond>
-1.0000

> <Gold.PLP.part.metal>
0.0000

> <Gold.PLP.part.buried>
2.1780

> <Gold.PLP.part.nonpolar>
-36.0962

> <Gold.PLP.part.repulsive>
0.0461

> <Gold.PLP.ligand.clash>
7.2261

> <Gold.PLP.ligand.torsion>
0.0825

> <Gold.PLP.Chemscore.Hbond>
1.0000

> <Gold.PLP.Chemscore.CHOScore>
0.0000

> <Gold.PLP.Chemscore.Metal>
0.0000

> <Gold.Chemscore.Hbonds>
donor molecule, donor type, donor heavy atom, donor atom, acceptor molecule, acceptor atom, score
      L1  H    13    27       P1   470  1.00

> <Gold.PLP.Chemscore.Internal.Correction>
7.3849

