#       Name:                EN300-154847_i001
#       Creating user name   aseyller
#       Creation time:       Fri Apr 21 16:33:12 2023


#       File generated by GOLD software.
#

@<TRIPOS>MOLECULE
EN300-154847_i001|aminophenols|mol2|50|dock10
    27    27     1
SMALL
USER_CHARGES


@<TRIPOS>ATOM
      1 C1          29.8673  38.4592  34.9092 C.3            1 <1>                0.0000
      2 C2          29.8896  38.9480  36.3589 C.3            1 <1>                0.0000
      3 C3          30.9155  40.0741  36.5019 C.3            1 <1>                0.0000
      4 C4          28.5032  39.4692  36.7427 C.3            1 <1>                0.0000
      5 C5          30.2665  37.8066  37.2681 C.ar           1 <1>                0.0000
      6 C6          29.4439  37.4651  38.3264 C.ar           1 <1>                0.0000
      7 C7          29.7863  36.4187  39.1632 C.ar           1 <1>                0.0000
      8 Br8         28.6568  35.9576  40.6080 Br             1 <1>                0.0000
      9 C9          30.9532  35.7082  38.9453 C.ar           1 <1>                0.0000
     10 C10         31.7819  36.0453  37.8857 C.ar           1 <1>                0.0000
     11 N11         32.9630  35.3281  37.6630 N.pl3          1 <1>                0.0000
     12 C12         31.4331  37.0967  37.0401 C.ar           1 <1>                0.0000
     13 O13         32.2422  37.4311  35.9990 O.3            1 <1>                0.0000
     14 H14         30.8549  38.0879  34.6358 H              1 <1>                0.0000
     15 H15         29.1365  37.6570  34.8075 H              1 <1>                0.0000
     16 H16         29.5946  39.2847  34.2517 H              1 <1>                0.0000
     17 H17         30.6427  40.8996  35.8443 H              1 <1>                0.0000
     18 H18         30.9313  40.4222  37.5347 H              1 <1>                0.0000
     19 H19         31.9031  39.7027  36.2284 H              1 <1>                0.0000
     20 H20         27.7725  38.6669  36.6409 H              1 <1>                0.0000
     21 H21         28.5191  39.8174  37.7755 H              1 <1>                0.0000
     22 H22         28.2306  40.2947  36.0852 H              1 <1>                0.0000
     23 H23         28.5322  38.0173  38.4999 H              1 <1>                0.0000
     24 H24         31.2187  34.8916  39.6002 H              1 <1>                0.0000
     25 H25         33.2027  34.5943  38.2502 H              1 <1>                0.0000
     26 H26         33.5418  35.5650  36.9214 H              1 <1>                0.0000
     27 H27         32.2706  36.7693  35.2945 H              1 <1>                0.0000
@<TRIPOS>BOND
    1    1    2 1     
    2    1   14 1     
    3    1   15 1     
    4    1   16 1     
    5    2    3 1     
    6    2    4 1     
    7    2    5 1     
    8    3   17 1     
    9    3   18 1     
   10    3   19 1     
   11    4   20 1     
   12    4   21 1     
   13    4   22 1     
   14    5    6 ar    
   15    5   12 ar    
   16    6    7 ar    
   17    6   23 1     
   18    7    8 1     
   19    7    9 ar    
   20    9   10 ar    
   21    9   24 1     
   22   10   11 1     
   23   10   12 ar    
   24   11   25 1     
   25   11   26 1     
   26   12   13 1     
   27   13   27 1     
@<TRIPOS>SUBSTRUCTURE
      1 ****           1
@<TRIPOS>SET
DONOR_HYDROGENS      STATIC     ATOMS    <user>   **** ""
3 25 26 27
ATOM$RED        STATIC     ATOMS    COLORGROUP SYSTEM
3 25 26 27
@<TRIPOS>COMMENT
> <Gold.Version>
2022.2.0

> <Gold.Id.Protein>
1qkm|1qkm_protein|mol2

> <Gold.Protein.RotatedTorsions>
[  496  491  490  487 ] final   94.88 input  -89.99 | X-H torsion

> <Gold.Protein.ActiveResidues>
 MET295  LEU298  THR299  LEU301  ALA302  GLU305  TRP335  MET336  LEU339  MET340 
 GLY342  LEU343  ARG346  PHE356  ILE373  ILE376  PHE377  LEU380  LYS471  GLY472 
 MET473  HIS475  LEU476  LEU477  ASN478  MET479  VAL484  VAL487 

> <Gold.Protein.RotatedAtoms>
   36.8652   32.9929   41.9642 H   0  0  0  0  0  0  0  0  0  0  0  0  # atno 496  bound_to 491 

> <Gold.Score>
     Score     S(PLP)   S(hbond)     S(cho)   S(metal)  DE(clash)   DE(tors)     intcor
     38.23     -38.24       0.00       0.00       0.00       7.22       0.09       7.38

> <Gold.PLP.Fitness>
38.2327

> <Gold.PLP.PLP>
-38.2398

> <Gold.PLP.part.hbond>
0.0000

> <Gold.PLP.part.metal>
0.0000

> <Gold.PLP.part.buried>
-0.7854

> <Gold.PLP.part.nonpolar>
-38.7510

> <Gold.PLP.part.repulsive>
0.0425

> <Gold.PLP.ligand.clash>
7.2208

> <Gold.PLP.ligand.torsion>
0.0856

> <Gold.PLP.Chemscore.Hbond>
0.0000

> <Gold.PLP.Chemscore.CHOScore>
0.0000

> <Gold.PLP.Chemscore.Metal>
0.0000

> <Gold.PLP.Chemscore.Internal.Correction>
7.3849

