#       Name:                EN300-154847_i001
#       Creating user name   aseyller
#       Creation time:       Fri Apr 21 16:33:08 2023


#       File generated by GOLD software.
#

@<TRIPOS>MOLECULE
EN300-154847_i001|aminophenols|mol2|50|dock3
    27    27     1
SMALL
USER_CHARGES


@<TRIPOS>ATOM
      1 C1          33.6222  36.1783  37.9604 C.3            1 <1>                0.0000
      2 C2          32.3903  35.8104  37.1308 C.3            1 <1>                0.0000
      3 C3          32.5076  36.4348  35.7390 C.3            1 <1>                0.0000
      4 C4          32.2989  34.2886  37.0011 C.3            1 <1>                0.0000
      5 C5          31.1516  36.3318  37.8126 C.ar           1 <1>                0.0000
      6 C6          30.3915  37.3161  37.2070 C.ar           1 <1>                0.0000
      7 C7          29.2543  37.7976  37.8294 C.ar           1 <1>                0.0000
      8 Br8         28.2203  39.1434  36.9954 Br             1 <1>                0.0000
      9 C9          28.8713  37.2964  39.0607 C.ar           1 <1>                0.0000
     10 C10         29.6287  36.3091  39.6728 C.ar           1 <1>                0.0000
     11 N11         29.2434  35.8004  40.9185 N.pl3          1 <1>                0.0000
     12 C12         30.7716  35.8211  39.0421 C.ar           1 <1>                0.0000
     13 O13         31.5178  34.8524  39.6380 O.3            1 <1>                0.0000
     14 H14         33.6874  37.2624  38.0528 H              1 <1>                0.0000
     15 H15         33.5386  35.7335  38.9519 H              1 <1>                0.0000
     16 H16         34.5182  35.8011  37.4673 H              1 <1>                0.0000
     17 H17         33.4036  36.0576  35.2459 H              1 <1>                0.0000
     18 H18         31.6301  36.1726  35.1480 H              1 <1>                0.0000
     19 H19         32.5728  37.5189  35.8314 H              1 <1>                0.0000
     20 H20         32.2153  33.8438  37.9927 H              1 <1>                0.0000
     21 H21         31.4213  34.0265  36.4101 H              1 <1>                0.0000
     22 H22         33.1949  33.9115  36.5081 H              1 <1>                0.0000
     23 H23         30.6872  37.7100  36.2458 H              1 <1>                0.0000
     24 H24         27.9830  37.6740  39.5451 H              1 <1>                0.0000
     25 H25         28.4457  36.1383  41.3546 H              1 <1>                0.0000
     26 H26         29.7742  35.1097  41.3456 H              1 <1>                0.0000
     27 H27         31.4521  34.8427  40.6027 H              1 <1>                0.0000
@<TRIPOS>BOND
    1    1    2 1     
    2    1   14 1     
    3    1   15 1     
    4    1   16 1     
    5    2    3 1     
    6    2    4 1     
    7    2    5 1     
    8    3   17 1     
    9    3   18 1     
   10    3   19 1     
   11    4   20 1     
   12    4   21 1     
   13    4   22 1     
   14    5    6 ar    
   15    5   12 ar    
   16    6    7 ar    
   17    6   23 1     
   18    7    8 1     
   19    7    9 ar    
   20    9   10 ar    
   21    9   24 1     
   22   10   11 1     
   23   10   12 ar    
   24   11   25 1     
   25   11   26 1     
   26   12   13 1     
   27   13   27 1     
@<TRIPOS>SUBSTRUCTURE
      1 ****           1
@<TRIPOS>SET
DONOR_HYDROGENS      STATIC     ATOMS    <user>   **** ""
3 25 26 27
ATOM$RED        STATIC     ATOMS    COLORGROUP SYSTEM
3 25 26 27
@<TRIPOS>COMMENT
> <Gold.Version>
2022.2.0

> <Gold.Id.Protein>
1qkm|1qkm_protein|mol2

> <Gold.Protein.RotatedTorsions>
[  496  491  490  487 ] final -167.46 input  -89.99 | X-H torsion

> <Gold.Protein.ActiveResidues>
 MET295  LEU298  THR299  LEU301  ALA302  GLU305  TRP335  MET336  LEU339  MET340 
 GLY342  LEU343  ARG346  PHE356  ILE373  ILE376  PHE377  LEU380  LYS471  GLY472 
 MET473  HIS475  LEU476  LEU477  ASN478  MET479  VAL484  VAL487 

> <Gold.Protein.RotatedAtoms>
   37.2984   33.6478   40.7811 H   0  0  0  0  0  0  0  0  0  0  0  0  # atno 496  bound_to 491 

> <Gold.Score>
     Score     S(PLP)   S(hbond)     S(cho)   S(metal)  DE(clash)   DE(tors)     intcor
     41.69     -37.45       1.42       0.00       0.00       7.23       0.09       7.39

> <Gold.PLP.Fitness>
41.6910

> <Gold.PLP.PLP>
-37.4503

> <Gold.PLP.part.hbond>
-1.9200

> <Gold.PLP.part.metal>
0.0000

> <Gold.PLP.part.buried>
-0.2348

> <Gold.PLP.part.nonpolar>
-35.4283

> <Gold.PLP.part.repulsive>
0.0651

> <Gold.PLP.ligand.clash>
7.2263

> <Gold.PLP.ligand.torsion>
0.0856

> <Gold.PLP.Chemscore.Hbond>
1.4160

> <Gold.PLP.Chemscore.CHOScore>
0.0000

> <Gold.PLP.Chemscore.Metal>
0.0000

> <Gold.Chemscore.Hbonds>
donor molecule, donor type, donor heavy atom, donor atom, acceptor molecule, acceptor atom, score
      L1  H    11    26       P1   470  0.42
      L1  H    13    27       P1   470  1.00

> <Gold.PLP.Chemscore.Internal.Correction>
7.3902

