#       Name:                EN300-154847_i001
#       Creating user name   aseyller
#       Creation time:       Fri Apr 21 16:33:17 2023


#       File generated by GOLD software.
#

@<TRIPOS>MOLECULE
EN300-154847_i001|aminophenols|mol2|50|dock17
    27    27     1
SMALL
USER_CHARGES


@<TRIPOS>ATOM
      1 C1          32.6271  35.0220  35.8795 C.3            1 <1>                0.0000
      2 C2          32.8062  36.4694  36.3422 C.3            1 <1>                0.0000
      3 C3          34.0489  36.5714  37.2288 C.3            1 <1>                0.0000
      4 C4          32.9739  37.3776  35.1224 C.3            1 <1>                0.0000
      5 C5          31.5931  36.8999  37.1260 C.ar           1 <1>                0.0000
      6 C6          30.7783  37.9070  36.6410 C.ar           1 <1>                0.0000
      7 C7          29.6644  38.3053  37.3573 C.ar           1 <1>                0.0000
      8 Br8         28.5551  39.6827  36.6879 Br             1 <1>                0.0000
      9 C9          29.3596  37.6977  38.5623 C.ar           1 <1>                0.0000
     10 C10         30.1722  36.6872  39.0537 C.ar           1 <1>                0.0000
     11 N11         29.8661  36.0710  40.2725 N.pl3          1 <1>                0.0000
     12 C12         31.2915  36.2832  38.3283 C.ar           1 <1>                0.0000
     13 O13         32.0916  35.2921  38.8056 O.3            1 <1>                0.0000
     14 H14         32.5075  34.3749  36.7484 H              1 <1>                0.0000
     15 H15         31.7417  34.9494  35.2479 H              1 <1>                0.0000
     16 H16         33.5044  34.7106  35.3125 H              1 <1>                0.0000
     17 H17         34.9262  36.2600  36.6618 H              1 <1>                0.0000
     18 H18         34.1764  37.6025  37.5584 H              1 <1>                0.0000
     19 H19         33.9293  35.9243  38.0978 H              1 <1>                0.0000
     20 H20         32.0885  37.3050  34.4908 H              1 <1>                0.0000
     21 H21         33.1015  38.4087  35.4520 H              1 <1>                0.0000
     22 H22         33.8513  37.0662  34.5555 H              1 <1>                0.0000
     23 H23         31.0128  38.3837  35.7007 H              1 <1>                0.0000
     24 H24         28.4894  38.0106  39.1201 H              1 <1>                0.0000
     25 H25         29.0848  36.3506  40.7745 H              1 <1>                0.0000
     26 H26         30.4354  35.3642  40.6151 H              1 <1>                0.0000
     27 H27         31.8328  34.9630  39.6772 H              1 <1>                0.0000
@<TRIPOS>BOND
    1    1    2 1     
    2    1   14 1     
    3    1   15 1     
    4    1   16 1     
    5    2    3 1     
    6    2    4 1     
    7    2    5 1     
    8    3   17 1     
    9    3   18 1     
   10    3   19 1     
   11    4   20 1     
   12    4   21 1     
   13    4   22 1     
   14    5    6 ar    
   15    5   12 ar    
   16    6    7 ar    
   17    6   23 1     
   18    7    8 1     
   19    7    9 ar    
   20    9   10 ar    
   21    9   24 1     
   22   10   11 1     
   23   10   12 ar    
   24   11   25 1     
   25   11   26 1     
   26   12   13 1     
   27   13   27 1     
@<TRIPOS>SUBSTRUCTURE
      1 ****           1
@<TRIPOS>SET
DONOR_HYDROGENS      STATIC     ATOMS    <user>   **** ""
3 25 26 27
ATOM$RED        STATIC     ATOMS    COLORGROUP SYSTEM
3 25 26 27
@<TRIPOS>COMMENT
> <Gold.Version>
2022.2.0

> <Gold.Id.Protein>
1qkm|1qkm_protein|mol2

> <Gold.Protein.RotatedTorsions>
[  496  491  490  487 ] final  100.56 input  -89.99 | X-H torsion

> <Gold.Protein.ActiveResidues>
 MET295  LEU298  THR299  LEU301  ALA302  GLU305  TRP335  MET336  LEU339  MET340 
 GLY342  LEU343  ARG346  PHE356  ILE373  ILE376  PHE377  LEU380  LYS471  GLY472 
 MET473  HIS475  LEU476  LEU477  ASN478  MET479  VAL484  VAL487 

> <Gold.Protein.RotatedAtoms>
   36.9167   32.9669   41.8908 H   0  0  0  0  0  0  0  0  0  0  0  0  # atno 496  bound_to 491 

> <Gold.Score>
     Score     S(PLP)   S(hbond)     S(cho)   S(metal)  DE(clash)   DE(tors)     intcor
     37.83     -35.42       0.81       0.00       0.00       7.27       0.07       7.38

> <Gold.PLP.Fitness>
37.8292

> <Gold.PLP.PLP>
-35.4154

> <Gold.PLP.part.hbond>
-1.2372

> <Gold.PLP.part.metal>
0.0000

> <Gold.PLP.part.buried>
-2.7967

> <Gold.PLP.part.nonpolar>
-32.0296

> <Gold.PLP.part.repulsive>
0.0568

> <Gold.PLP.ligand.clash>
7.2745

> <Gold.PLP.ligand.torsion>
0.0686

> <Gold.PLP.Chemscore.Hbond>
0.8135

> <Gold.PLP.Chemscore.CHOScore>
0.0000

> <Gold.PLP.Chemscore.Metal>
0.0000

> <Gold.Chemscore.Hbonds>
donor molecule, donor type, donor heavy atom, donor atom, acceptor molecule, acceptor atom, score
      L1  H    11    26       P1   470  0.77
      L1  H    13    27       P1   470  0.05

> <Gold.PLP.Chemscore.Internal.Correction>
7.3849

