#       Name:                EN300-154847_i001
#       Creating user name   aseyller
#       Creation time:       Fri Apr 21 16:33:18 2023


#       File generated by GOLD software.
#

@<TRIPOS>MOLECULE
EN300-154847_i001|aminophenols|mol2|50|dock19
    27    27     1
SMALL
USER_CHARGES


@<TRIPOS>ATOM
      1 C1          27.5413  37.0511  39.2518 C.3            1 <1>                0.0000
      2 C2          28.6100  36.3293  40.0752 C.3            1 <1>                0.0000
      3 C3          29.1047  37.2526  41.1903 C.3            1 <1>                0.0000
      4 C4          28.0110  35.0626  40.6898 C.3            1 <1>                0.0000
      5 C5          29.7652  35.9564  39.1821 C.ar           1 <1>                0.0000
      6 C6          30.1909  34.6420  39.1149 C.ar           1 <1>                0.0000
      7 C7          31.2508  34.2957  38.2970 C.ar           1 <1>                0.0000
      8 Br8         31.8271  32.4967  38.2102 Br             1 <1>                0.0000
      9 C9          31.8901  35.2625  37.5416 C.ar           1 <1>                0.0000
     10 C10         31.4679  36.5819  37.6042 C.ar           1 <1>                0.0000
     11 N11         32.1130  37.5619  36.8411 N.pl3          1 <1>                0.0000
     12 C12         30.3963  36.9287  38.4249 C.ar           1 <1>                0.0000
     13 O13         29.9778  38.2214  38.4896 O.3            1 <1>                0.0000
     14 H14         27.9679  37.9535  38.8139 H              1 <1>                0.0000
     15 H15         27.1889  36.3934  38.4574 H              1 <1>                0.0000
     16 H16         26.7056  37.3207  39.8978 H              1 <1>                0.0000
     17 H17         28.2691  37.5222  41.8363 H              1 <1>                0.0000
     18 H18         29.8660  36.7383  41.7768 H              1 <1>                0.0000
     19 H19         29.5314  38.1549  40.7525 H              1 <1>                0.0000
     20 H20         27.6586  34.4049  39.8953 H              1 <1>                0.0000
     21 H21         28.7723  34.5484  41.2763 H              1 <1>                0.0000
     22 H22         27.1754  35.3323  41.3357 H              1 <1>                0.0000
     23 H23         29.6944  33.8843  39.7030 H              1 <1>                0.0000
     24 H24         32.7179  34.9898  36.9038 H              1 <1>                0.0000
     25 H25         32.8563  37.3186  36.2675 H              1 <1>                0.0000
     26 H26         31.8166  38.4845  36.8858 H              1 <1>                0.0000
     27 H27         29.5614  38.4584  39.3295 H              1 <1>                0.0000
@<TRIPOS>BOND
    1    1    2 1     
    2    1   14 1     
    3    1   15 1     
    4    1   16 1     
    5    2    3 1     
    6    2    4 1     
    7    2    5 1     
    8    3   17 1     
    9    3   18 1     
   10    3   19 1     
   11    4   20 1     
   12    4   21 1     
   13    4   22 1     
   14    5    6 ar    
   15    5   12 ar    
   16    6    7 ar    
   17    6   23 1     
   18    7    8 1     
   19    7    9 ar    
   20    9   10 ar    
   21    9   24 1     
   22   10   11 1     
   23   10   12 ar    
   24   11   25 1     
   25   11   26 1     
   26   12   13 1     
   27   13   27 1     
@<TRIPOS>SUBSTRUCTURE
      1 ****           1
@<TRIPOS>SET
DONOR_HYDROGENS      STATIC     ATOMS    <user>   **** ""
3 25 26 27
ATOM$RED        STATIC     ATOMS    COLORGROUP SYSTEM
3 25 26 27
@<TRIPOS>COMMENT
> <Gold.Version>
2022.2.0

> <Gold.Id.Protein>
1qkm|1qkm_protein|mol2

> <Gold.Protein.RotatedTorsions>
[  496  491  490  487 ] final  -84.23 input  -89.99 | X-H torsion

> <Gold.Protein.ActiveResidues>
 MET295  LEU298  THR299  LEU301  ALA302  GLU305  TRP335  MET336  LEU339  MET340 
 GLY342  LEU343  ARG346  PHE356  ILE373  ILE376  PHE377  LEU380  LYS471  GLY472 
 MET473  HIS475  LEU476  LEU477  ASN478  MET479  VAL484  VAL487 

> <Gold.Protein.RotatedAtoms>
   36.7043   34.6870   41.1505 H   0  0  0  0  0  0  0  0  0  0  0  0  # atno 496  bound_to 491 

> <Gold.Score>
     Score     S(PLP)   S(hbond)     S(cho)   S(metal)  DE(clash)   DE(tors)     intcor
     37.39     -37.40       0.00       0.00       0.00       7.22       0.08       7.38

> <Gold.PLP.Fitness>
37.3930

> <Gold.PLP.PLP>
-37.3968

> <Gold.PLP.part.hbond>
0.0000

> <Gold.PLP.part.metal>
0.0000

> <Gold.PLP.part.buried>
-1.8717

> <Gold.PLP.part.nonpolar>
-35.9310

> <Gold.PLP.part.repulsive>
0.0000

> <Gold.PLP.ligand.clash>
7.2237

> <Gold.PLP.ligand.torsion>
0.0825

> <Gold.PLP.Chemscore.Hbond>
0.0000

> <Gold.PLP.Chemscore.CHOScore>
0.0000

> <Gold.PLP.Chemscore.Metal>
0.0000

> <Gold.PLP.Chemscore.Internal.Correction>
7.3849

