#       Name:                EN300-154847_i001
#       Creating user name   aseyller
#       Creation time:       Fri Apr 21 16:33:10 2023


#       File generated by GOLD software.
#

@<TRIPOS>MOLECULE
EN300-154847_i001|aminophenols|mol2|50|dock7
    27    27     1
SMALL
USER_CHARGES


@<TRIPOS>ATOM
      1 C1          30.3035  37.5314  34.9766 C.3            1 <1>                0.0000
      2 C2          30.1848  38.3886  36.2384 C.3            1 <1>                0.0000
      3 C3          31.5016  39.1300  36.4772 C.3            1 <1>                0.0000
      4 C4          29.0532  39.4031  36.0611 C.3            1 <1>                0.0000
      5 C5          29.8851  37.5033  37.4207 C.ar           1 <1>                0.0000
      6 C6          28.6728  37.6140  38.0775 C.ar           1 <1>                0.0000
      7 C7          28.3940  36.8039  39.1630 C.ar           1 <1>                0.0000
      8 Br8         26.7345  36.9609  40.0560 Br             1 <1>                0.0000
      9 C9          29.3263  35.8783  39.5967 C.ar           1 <1>                0.0000
     10 C10         30.5434  35.7622  38.9422 C.ar           1 <1>                0.0000
     11 N11         31.4883  34.8266  39.3789 N.pl3          1 <1>                0.0000
     12 C12         30.8210  36.5756  37.8452 C.ar           1 <1>                0.0000
     13 O13         32.0130  36.4653  37.1993 O.3            1 <1>                0.0000
     14 H14         31.1096  36.8087  35.1029 H              1 <1>                0.0000
     15 H15         29.3653  37.0033  34.8065 H              1 <1>                0.0000
     16 H16         30.5202  38.1718  34.1215 H              1 <1>                0.0000
     17 H17         31.7183  39.7703  35.6221 H              1 <1>                0.0000
     18 H18         31.4169  39.7406  37.3762 H              1 <1>                0.0000
     19 H19         32.3077  38.4072  36.6035 H              1 <1>                0.0000
     20 H20         28.1150  38.8749  35.8911 H              1 <1>                0.0000
     21 H21         28.9686  40.0137  36.9601 H              1 <1>                0.0000
     22 H22         29.2699  40.0433  35.2060 H              1 <1>                0.0000
     23 H23         27.9423  38.3353  37.7421 H              1 <1>                0.0000
     24 H24         29.1065  35.2469  40.4448 H              1 <1>                0.0000
     25 H25         31.2924  34.2586  40.1403 H              1 <1>                0.0000
     26 H26         32.3393  34.7464  38.9202 H              1 <1>                0.0000
     27 H27         32.7252  36.9850  37.5965 H              1 <1>                0.0000
@<TRIPOS>BOND
    1    1    2 1     
    2    1   14 1     
    3    1   15 1     
    4    1   16 1     
    5    2    3 1     
    6    2    4 1     
    7    2    5 1     
    8    3   17 1     
    9    3   18 1     
   10    3   19 1     
   11    4   20 1     
   12    4   21 1     
   13    4   22 1     
   14    5    6 ar    
   15    5   12 ar    
   16    6    7 ar    
   17    6   23 1     
   18    7    8 1     
   19    7    9 ar    
   20    9   10 ar    
   21    9   24 1     
   22   10   11 1     
   23   10   12 ar    
   24   11   25 1     
   25   11   26 1     
   26   12   13 1     
   27   13   27 1     
@<TRIPOS>SUBSTRUCTURE
      1 ****           1
@<TRIPOS>SET
DONOR_HYDROGENS      STATIC     ATOMS    <user>   **** ""
3 25 26 27
ATOM$RED        STATIC     ATOMS    COLORGROUP SYSTEM
3 25 26 27
@<TRIPOS>COMMENT
> <Gold.Version>
2022.2.0

> <Gold.Id.Protein>
1qkm|1qkm_protein|mol2

> <Gold.Protein.RotatedTorsions>
[  496  491  490  487 ] final -150.29 input  -89.99 | X-H torsion

> <Gold.Protein.ActiveResidues>
 MET295  LEU298  THR299  LEU301  ALA302  GLU305  TRP335  MET336  LEU339  MET340 
 GLY342  LEU343  ARG346  PHE356  ILE373  ILE376  PHE377  LEU380  LYS471  GLY472 
 MET473  HIS475  LEU476  LEU477  ASN478  MET479  VAL484  VAL487 

> <Gold.Protein.RotatedAtoms>
   37.2327   33.9153   40.7232 H   0  0  0  0  0  0  0  0  0  0  0  0  # atno 496  bound_to 491 

> <Gold.Score>
     Score     S(PLP)   S(hbond)     S(cho)   S(metal)  DE(clash)   DE(tors)     intcor
     38.07     -37.46       0.20       0.00       0.00       7.21       0.09       7.38

> <Gold.PLP.Fitness>
38.0676

> <Gold.PLP.PLP>
-37.4611

> <Gold.PLP.part.hbond>
-1.0000

> <Gold.PLP.part.metal>
0.0000

> <Gold.PLP.part.buried>
-1.1772

> <Gold.PLP.part.nonpolar>
-35.3219

> <Gold.PLP.part.repulsive>
0.0998

> <Gold.PLP.ligand.clash>
7.2068

> <Gold.PLP.ligand.torsion>
0.0896

> <Gold.PLP.Chemscore.Hbond>
0.2025

> <Gold.PLP.Chemscore.CHOScore>
0.0000

> <Gold.PLP.Chemscore.Metal>
0.0000

> <Gold.Chemscore.Hbonds>
donor molecule, donor type, donor heavy atom, donor atom, acceptor molecule, acceptor atom, score
      L1  H    11    25       P1   470  0.20

> <Gold.PLP.Chemscore.Internal.Correction>
7.3849

