#       Name:                EN300-154847_i001
#       Creating user name   aseyller
#       Creation time:       Fri Apr 21 16:33:09 2023


#       File generated by GOLD software.
#

@<TRIPOS>MOLECULE
EN300-154847_i001|aminophenols|mol2|50|dock5
    27    27     1
SMALL
USER_CHARGES


@<TRIPOS>ATOM
      1 C1          33.3047  36.4175  37.9392 C.3            1 <1>                0.0000
      2 C2          32.0861  35.7767  37.2718 C.3            1 <1>                0.0000
      3 C3          32.3989  35.4965  35.8006 C.3            1 <1>                0.0000
      4 C4          31.7481  34.4635  37.9805 C.3            1 <1>                0.0000
      5 C5          30.9106  36.7152  37.3656 C.ar           1 <1>                0.0000
      6 C6          29.7235  36.2822  37.9283 C.ar           1 <1>                0.0000
      7 C7          28.6424  37.1400  38.0160 C.ar           1 <1>                0.0000
      8 Br8         27.0227  36.5411  38.7866 Br             1 <1>                0.0000
      9 C9          28.7434  38.4357  37.5415 C.ar           1 <1>                0.0000
     10 C10         29.9309  38.8760  36.9767 C.ar           1 <1>                0.0000
     11 N11         30.0357  40.1863  36.4959 N.pl3          1 <1>                0.0000
     12 C12         31.0213  38.0121  36.8937 C.ar           1 <1>                0.0000
     13 O13         32.1886  38.4391  36.3411 O.3            1 <1>                0.0000
     14 H14         33.5455  37.3530  37.4344 H              1 <1>                0.0000
     15 H15         33.0818  36.6171  38.9873 H              1 <1>                0.0000
     16 H16         34.1549  35.7387  37.8715 H              1 <1>                0.0000
     17 H17         33.2491  34.8177  35.7328 H              1 <1>                0.0000
     18 H18         31.5307  35.0400  35.3251 H              1 <1>                0.0000
     19 H19         32.6397  36.4320  35.2957 H              1 <1>                0.0000
     20 H20         31.5252  34.6633  39.0286 H              1 <1>                0.0000
     21 H21         30.8800  34.0071  37.5050 H              1 <1>                0.0000
     22 H22         32.5983  33.7849  37.9127 H              1 <1>                0.0000
     23 H23         29.6406  35.2715  38.2998 H              1 <1>                0.0000
     24 H24         27.8977  39.1038  37.6107 H              1 <1>                0.0000
     25 H25         29.2772  40.7876  36.5576 H              1 <1>                0.0000
     26 H26         30.8670  40.4930  36.1011 H              1 <1>                0.0000
     27 H27         32.0732  39.0611  35.6097 H              1 <1>                0.0000
@<TRIPOS>BOND
    1    1    2 1     
    2    1   14 1     
    3    1   15 1     
    4    1   16 1     
    5    2    3 1     
    6    2    4 1     
    7    2    5 1     
    8    3   17 1     
    9    3   18 1     
   10    3   19 1     
   11    4   20 1     
   12    4   21 1     
   13    4   22 1     
   14    5    6 ar    
   15    5   12 ar    
   16    6    7 ar    
   17    6   23 1     
   18    7    8 1     
   19    7    9 ar    
   20    9   10 ar    
   21    9   24 1     
   22   10   11 1     
   23   10   12 ar    
   24   11   25 1     
   25   11   26 1     
   26   12   13 1     
   27   13   27 1     
@<TRIPOS>SUBSTRUCTURE
      1 ****           1
@<TRIPOS>SET
DONOR_HYDROGENS      STATIC     ATOMS    <user>   **** ""
3 25 26 27
ATOM$RED        STATIC     ATOMS    COLORGROUP SYSTEM
3 25 26 27
@<TRIPOS>COMMENT
> <Gold.Version>
2022.2.0

> <Gold.Id.Protein>
1qkm|1qkm_protein|mol2

> <Gold.Protein.RotatedTorsions>
[  496  491  490  487 ] final  -56.97 input  -89.99 | X-H torsion

> <Gold.Protein.ActiveResidues>
 MET295  LEU298  THR299  LEU301  ALA302  GLU305  TRP335  MET336  LEU339  MET340 
 GLY342  LEU343  ARG346  PHE356  ILE373  ILE376  PHE377  LEU380  LYS471  GLY472 
 MET473  HIS475  LEU476  LEU477  ASN478  MET479  VAL484  VAL487 

> <Gold.Protein.RotatedAtoms>
   36.4740   34.7264   41.5286 H   0  0  0  0  0  0  0  0  0  0  0  0  # atno 496  bound_to 491 

> <Gold.Score>
     Score     S(PLP)   S(hbond)     S(cho)   S(metal)  DE(clash)   DE(tors)     intcor
     39.74     -39.74       0.00       0.00       0.00       7.22       0.08       7.39

> <Gold.PLP.Fitness>
39.7364

> <Gold.PLP.PLP>
-39.7395

> <Gold.PLP.part.hbond>
0.0000

> <Gold.PLP.part.metal>
0.0000

> <Gold.PLP.part.buried>
-2.8105

> <Gold.PLP.part.nonpolar>
-36.9335

> <Gold.PLP.part.repulsive>
0.0000

> <Gold.PLP.ligand.clash>
7.2233

> <Gold.PLP.ligand.torsion>
0.0825

> <Gold.PLP.Chemscore.Hbond>
0.0000

> <Gold.PLP.Chemscore.CHOScore>
0.0000

> <Gold.PLP.Chemscore.Metal>
0.0000

> <Gold.PLP.Chemscore.Internal.Correction>
7.3853

