#       Name:                EN300-154847_i001
#       Creating user name   aseyller
#       Creation time:       Fri Apr 21 16:33:10 2023


#       File generated by GOLD software.
#

@<TRIPOS>MOLECULE
EN300-154847_i001|aminophenols|mol2|50|dock6
    27    27     1
SMALL
USER_CHARGES


@<TRIPOS>ATOM
      1 C1          30.1197  39.4273  36.9592 C.3            1 <1>                0.0000
      2 C2          30.8871  38.1957  36.4741 C.3            1 <1>                0.0000
      3 C3          30.3273  37.7452  35.1234 C.3            1 <1>                0.0000
      4 C4          32.3687  38.5456  36.3211 C.3            1 <1>                0.0000
      5 C5          30.7351  37.0817  37.4777 C.ar           1 <1>                0.0000
      6 C6          29.8976  37.2420  38.5669 C.ar           1 <1>                0.0000
      7 C7          29.7556  36.2225  39.4903 C.ar           1 <1>                0.0000
      8 Br8         28.6088  36.4488  40.9769 Br             1 <1>                0.0000
      9 C9          30.4502  35.0370  39.3287 C.ar           1 <1>                0.0000
     10 C10         31.2911  34.8700  38.2386 C.ar           1 <1>                0.0000
     11 N11         31.9950  33.6717  38.0728 N.pl3          1 <1>                0.0000
     12 C12         31.4293  35.8962  37.3060 C.ar           1 <1>                0.0000
     13 O13         32.2523  35.7373  36.2347 O.3            1 <1>                0.0000
     14 H14         29.0642  39.1781  37.0682 H              1 <1>                0.0000
     15 H15         30.5186  39.7482  37.9215 H              1 <1>                0.0000
     16 H16         30.2298  40.2331  36.2333 H              1 <1>                0.0000
     17 H17         30.4373  38.5509  34.3976 H              1 <1>                0.0000
     18 H18         30.8740  36.8678  34.7779 H              1 <1>                0.0000
     19 H19         29.2718  37.4960  35.2324 H              1 <1>                0.0000
     20 H20         32.7675  38.8665  37.2835 H              1 <1>                0.0000
     21 H21         32.9154  37.6682  35.9756 H              1 <1>                0.0000
     22 H22         32.4786  39.3513  35.5953 H              1 <1>                0.0000
     23 H23         29.3535  38.1659  38.6967 H              1 <1>                0.0000
     24 H24         30.3380  34.2423  40.0512 H              1 <1>                0.0000
     25 H25         31.8951  32.9568  38.7206 H              1 <1>                0.0000
     26 H26         32.5828  33.5561  37.3098 H              1 <1>                0.0000
     27 H27         31.8320  35.9254  35.3844 H              1 <1>                0.0000
@<TRIPOS>BOND
    1    1    2 1     
    2    1   14 1     
    3    1   15 1     
    4    1   16 1     
    5    2    3 1     
    6    2    4 1     
    7    2    5 1     
    8    3   17 1     
    9    3   18 1     
   10    3   19 1     
   11    4   20 1     
   12    4   21 1     
   13    4   22 1     
   14    5    6 ar    
   15    5   12 ar    
   16    6    7 ar    
   17    6   23 1     
   18    7    8 1     
   19    7    9 ar    
   20    9   10 ar    
   21    9   24 1     
   22   10   11 1     
   23   10   12 ar    
   24   11   25 1     
   25   11   26 1     
   26   12   13 1     
   27   13   27 1     
@<TRIPOS>SUBSTRUCTURE
      1 ****           1
@<TRIPOS>SET
DONOR_HYDROGENS      STATIC     ATOMS    <user>   **** ""
3 25 26 27
ATOM$RED        STATIC     ATOMS    COLORGROUP SYSTEM
3 25 26 27
@<TRIPOS>COMMENT
> <Gold.Version>
2022.2.0

> <Gold.Id.Protein>
1qkm|1qkm_protein|mol2

> <Gold.Protein.RotatedTorsions>
[  496  491  490  487 ] final   -6.93 input  -89.99 | X-H torsion

> <Gold.Protein.ActiveResidues>
 MET295  LEU298  THR299  LEU301  ALA302  GLU305  TRP335  MET336  LEU339  MET340 
 GLY342  LEU343  ARG346  PHE356  ILE373  ILE376  PHE377  LEU380  LYS471  GLY472 
 MET473  HIS475  LEU476  LEU477  ASN478  MET479  VAL484  VAL487 

> <Gold.Protein.RotatedAtoms>
   36.2598   34.3093   42.1740 H   0  0  0  0  0  0  0  0  0  0  0  0  # atno 496  bound_to 491 

> <Gold.Score>
     Score     S(PLP)   S(hbond)     S(cho)   S(metal)  DE(clash)   DE(tors)     intcor
     39.48     -39.50       0.00       0.00       0.00       7.23       0.08       7.39

> <Gold.PLP.Fitness>
39.4841

> <Gold.PLP.PLP>
-39.4973

> <Gold.PLP.part.hbond>
0.0000

> <Gold.PLP.part.metal>
0.0000

> <Gold.PLP.part.buried>
-2.0183

> <Gold.PLP.part.nonpolar>
-38.1335

> <Gold.PLP.part.repulsive>
0.0283

> <Gold.PLP.ligand.clash>
7.2318

> <Gold.PLP.ligand.torsion>
0.0834

> <Gold.PLP.Chemscore.Hbond>
0.0000

> <Gold.PLP.Chemscore.CHOScore>
0.0000

> <Gold.PLP.Chemscore.Metal>
0.0000

> <Gold.PLP.Chemscore.Internal.Correction>
7.3853

