#       Name:                EN300-154847_i001
#       Creating user name   aseyller
#       Creation time:       Fri Apr 21 16:33:08 2023


#       File generated by GOLD software.
#

@<TRIPOS>MOLECULE
EN300-154847_i001|aminophenols|mol2|50|dock2
    27    27     1
SMALL
USER_CHARGES


@<TRIPOS>ATOM
      1 C1          30.9514  39.8753  36.2154 C.3            1 <1>                0.0000
      2 C2          30.3796  38.5054  35.8450 C.3            1 <1>                0.0000
      3 C3          29.1440  38.2199  36.7010 C.3            1 <1>                0.0000
      4 C4          29.9879  38.4992  34.3660 C.3            1 <1>                0.0000
      5 C5          31.4194  37.4432  36.0937 C.ar           1 <1>                0.0000
      6 C6          31.2075  36.4826  37.0662 C.ar           1 <1>                0.0000
      7 C7          32.1592  35.5064  37.2978 C.ar           1 <1>                0.0000
      8 Br8         31.8627  34.1964  38.6290 Br             1 <1>                0.0000
      9 C9          33.3277  35.4858  36.5573 C.ar           1 <1>                0.0000
     10 C10         33.5459  36.4458  35.5806 C.ar           1 <1>                0.0000
     11 N11         34.7271  36.4272  34.8301 N.pl3          1 <1>                0.0000
     12 C12         32.5836  37.4258  35.3447 C.ar           1 <1>                0.0000
     13 O13         32.7924  38.3695  34.3874 O.3            1 <1>                0.0000
     14 H14         31.2305  39.8797  37.2691 H              1 <1>                0.0000
     15 H15         31.8316  40.0786  35.6056 H              1 <1>                0.0000
     16 H16         30.1994  40.6436  36.0355 H              1 <1>                0.0000
     17 H17         28.3920  38.9882  36.5211 H              1 <1>                0.0000
     18 H18         28.7367  37.2440  36.4370 H              1 <1>                0.0000
     19 H19         29.4231  38.2243  37.7547 H              1 <1>                0.0000
     20 H20         30.8682  38.7025  33.7562 H              1 <1>                0.0000
     21 H21         29.5806  37.5233  34.1021 H              1 <1>                0.0000
     22 H22         29.2359  39.2675  34.1861 H              1 <1>                0.0000
     23 H23         30.2967  36.4952  37.6463 H              1 <1>                0.0000
     24 H24         34.0697  34.7227  36.7401 H              1 <1>                0.0000
     25 H25         35.3944  35.7423  34.9929 H              1 <1>                0.0000
     26 H26         34.8785  37.0993  34.1472 H              1 <1>                0.0000
     27 H27         33.6652  38.3237  33.9737 H              1 <1>                0.0000
@<TRIPOS>BOND
    1    1    2 1     
    2    1   14 1     
    3    1   15 1     
    4    1   16 1     
    5    2    3 1     
    6    2    4 1     
    7    2    5 1     
    8    3   17 1     
    9    3   18 1     
   10    3   19 1     
   11    4   20 1     
   12    4   21 1     
   13    4   22 1     
   14    5    6 ar    
   15    5   12 ar    
   16    6    7 ar    
   17    6   23 1     
   18    7    8 1     
   19    7    9 ar    
   20    9   10 ar    
   21    9   24 1     
   22   10   11 1     
   23   10   12 ar    
   24   11   25 1     
   25   11   26 1     
   26   12   13 1     
   27   13   27 1     
@<TRIPOS>SUBSTRUCTURE
      1 ****           1
@<TRIPOS>SET
DONOR_HYDROGENS      STATIC     ATOMS    <user>   **** ""
3 25 26 27
ATOM$RED        STATIC     ATOMS    COLORGROUP SYSTEM
3 25 26 27
@<TRIPOS>COMMENT
> <Gold.Version>
2022.2.0

> <Gold.Id.Protein>
1qkm|1qkm_protein|mol2

> <Gold.Protein.RotatedTorsions>
[  496  491  490  487 ] final   40.39 input  -89.99 | X-H torsion

> <Gold.Protein.ActiveResidues>
 MET295  LEU298  THR299  LEU301  ALA302  GLU305  TRP335  MET336  LEU339  MET340 
 GLY342  LEU343  ARG346  PHE356  ILE373  ILE376  PHE377  LEU380  LYS471  GLY472 
 MET473  HIS475  LEU476  LEU477  ASN478  MET479  VAL484  VAL487 

> <Gold.Protein.RotatedAtoms>
   36.4062   33.5955   42.3791 H   0  0  0  0  0  0  0  0  0  0  0  0  # atno 496  bound_to 491 

> <Gold.Score>
     Score     S(PLP)   S(hbond)     S(cho)   S(metal)  DE(clash)   DE(tors)     intcor
     39.62     -34.43       1.73       0.00       0.00       7.22       0.09       7.39

> <Gold.PLP.Fitness>
39.6158

> <Gold.PLP.PLP>
-34.4273

> <Gold.PLP.part.hbond>
-1.7936

> <Gold.PLP.part.metal>
0.0000

> <Gold.PLP.part.buried>
0.8564

> <Gold.PLP.part.nonpolar>
-34.5321

> <Gold.PLP.part.repulsive>
0.0895

> <Gold.PLP.ligand.clash>
7.2242

> <Gold.PLP.ligand.torsion>
0.0856

> <Gold.PLP.Chemscore.Hbond>
1.7313

> <Gold.PLP.Chemscore.CHOScore>
0.0000

> <Gold.PLP.Chemscore.Metal>
0.0000

> <Gold.Chemscore.Hbonds>
donor molecule, donor type, donor heavy atom, donor atom, acceptor molecule, acceptor atom, score
      L1  H    11    26       P1  3229  1.00
      L1  H    13    27       P1  3229  0.73

> <Gold.PLP.Chemscore.Internal.Correction>
7.3902

