#       Name:                EN300-154847_i001
#       Creating user name   aseyller
#       Creation time:       Fri Apr 21 16:33:13 2023


#       File generated by GOLD software.
#

@<TRIPOS>MOLECULE
EN300-154847_i001|aminophenols|mol2|50|dock11
    27    27     1
SMALL
USER_CHARGES


@<TRIPOS>ATOM
      1 C1          32.6987  38.6408  36.1859 C.3            1 <1>                0.0000
      2 C2          32.1242  37.3100  35.6960 C.3            1 <1>                0.0000
      3 C3          31.0043  37.5779  34.6886 C.3            1 <1>                0.0000
      4 C4          33.2301  36.4936  35.0241 C.3            1 <1>                0.0000
      5 C5          31.5723  36.5394  36.8677 C.ar           1 <1>                0.0000
      6 C6          32.0082  35.2500  37.1143 C.ar           1 <1>                0.0000
      7 C7          31.5040  34.5394  38.1882 C.ar           1 <1>                0.0000
      8 Br8         32.1047  32.7772  38.5191 Br             1 <1>                0.0000
      9 C9          30.5614  35.1152  39.0213 C.ar           1 <1>                0.0000
     10 C10         30.1206  36.4077  38.7796 C.ar           1 <1>                0.0000
     11 N11         29.1670  36.9925  39.6208 N.pl3          1 <1>                0.0000
     12 C12         30.6334  37.1246  37.7002 C.ar           1 <1>                0.0000
     13 O13         30.2048  38.3929  37.4590 O.3            1 <1>                0.0000
     14 H14         31.9109  39.2224  36.6646 H              1 <1>                0.0000
     15 H15         33.4965  38.4499  36.9036 H              1 <1>                0.0000
     16 H16         33.0980  39.1980  35.3384 H              1 <1>                0.0000
     17 H17         31.4036  38.1351  33.8412 H              1 <1>                0.0000
     18 H18         30.5951  36.6298  34.3397 H              1 <1>                0.0000
     19 H19         30.2165  38.1595  35.1673 H              1 <1>                0.0000
     20 H20         34.0279  36.3027  35.7419 H              1 <1>                0.0000
     21 H21         32.8208  35.5455  34.6752 H              1 <1>                0.0000
     22 H22         33.6293  37.0509  34.1768 H              1 <1>                0.0000
     23 H23         32.7439  34.7970  36.4664 H              1 <1>                0.0000
     24 H24         30.1688  34.5583  39.8591 H              1 <1>                0.0000
     25 H25         28.8137  36.4937  40.3739 H              1 <1>                0.0000
     26 H26         28.8596  37.8967  39.4507 H              1 <1>                0.0000
     27 H27         29.9213  38.8696  38.2512 H              1 <1>                0.0000
@<TRIPOS>BOND
    1    1    2 1     
    2    1   14 1     
    3    1   15 1     
    4    1   16 1     
    5    2    3 1     
    6    2    4 1     
    7    2    5 1     
    8    3   17 1     
    9    3   18 1     
   10    3   19 1     
   11    4   20 1     
   12    4   21 1     
   13    4   22 1     
   14    5    6 ar    
   15    5   12 ar    
   16    6    7 ar    
   17    6   23 1     
   18    7    8 1     
   19    7    9 ar    
   20    9   10 ar    
   21    9   24 1     
   22   10   11 1     
   23   10   12 ar    
   24   11   25 1     
   25   11   26 1     
   26   12   13 1     
   27   13   27 1     
@<TRIPOS>SUBSTRUCTURE
      1 ****           1
@<TRIPOS>SET
DONOR_HYDROGENS      STATIC     ATOMS    <user>   **** ""
3 25 26 27
ATOM$RED        STATIC     ATOMS    COLORGROUP SYSTEM
3 25 26 27
@<TRIPOS>COMMENT
> <Gold.Version>
2022.2.0

> <Gold.Id.Protein>
1qkm|1qkm_protein|mol2

> <Gold.Protein.RotatedTorsions>
[  496  491  490  487 ] final -119.03 input  -89.99 | X-H torsion

> <Gold.Protein.ActiveResidues>
 MET295  LEU298  THR299  LEU301  ALA302  GLU305  TRP335  MET336  LEU339  MET340 
 GLY342  LEU343  ARG346  PHE356  ILE373  ILE376  PHE377  LEU380  LYS471  GLY472 
 MET473  HIS475  LEU476  LEU477  ASN478  MET479  VAL484  VAL487 

> <Gold.Protein.RotatedAtoms>
   37.0180   34.3684   40.8065 H   0  0  0  0  0  0  0  0  0  0  0  0  # atno 496  bound_to 491 

> <Gold.Score>
     Score     S(PLP)   S(hbond)     S(cho)   S(metal)  DE(clash)   DE(tors)     intcor
     38.61     -38.62       0.00       0.00       0.00       7.24       0.08       7.38

> <Gold.PLP.Fitness>
38.6055

> <Gold.PLP.PLP>
-38.6177

> <Gold.PLP.part.hbond>
0.0000

> <Gold.PLP.part.metal>
0.0000

> <Gold.PLP.part.buried>
-3.3640

> <Gold.PLP.part.nonpolar>
-35.6180

> <Gold.PLP.part.repulsive>
0.0000

> <Gold.PLP.ligand.clash>
7.2382

> <Gold.PLP.ligand.torsion>
0.0795

> <Gold.PLP.Chemscore.Hbond>
0.0000

> <Gold.PLP.Chemscore.CHOScore>
0.0000

> <Gold.PLP.Chemscore.Metal>
0.0000

> <Gold.PLP.Chemscore.Internal.Correction>
7.3849

