#       Name:                EN300-154847_i001
#       Creating user name   aseyller
#       Creation time:       Fri Apr 21 16:33:07 2023


#       File generated by GOLD software.
#

@<TRIPOS>MOLECULE
EN300-154847_i001
    27    27     1
SMALL
USER_CHARGES


@<TRIPOS>ATOM
      1 C1           0.2744   2.5752   0.0248 C.3            1 <1>                0.0000
      2 C2           0.8501   1.1576   0.0314 C.3            1 <1>                0.0000
      3 C3           1.7135   0.9519  -1.2148 C.3            1 <1>                0.0000
      4 C4           1.7069   0.9610   1.2837 C.3            1 <1>                0.0000
      5 C5          -0.2774   0.1576   0.0321 C.ar           1 <1>                0.0000
      6 C6          -1.5896   0.5952   0.0270 C.ar           1 <1>                0.0000
      7 C7          -2.6271  -0.3191   0.0280 C.ar           1 <1>                0.0000
      8 Br8         -4.4185   0.2866   0.0210 Br             1 <1>                0.0000
      9 C9          -2.3573  -1.6760   0.0336 C.ar           1 <1>                0.0000
     10 C10         -1.0439  -2.1211   0.0383 C.ar           1 <1>                0.0000
     11 N11         -0.7682  -3.4933   0.0440 N.pl3          1 <1>                0.0000
     12 C12          0.0007  -1.1987   0.0320 C.ar           1 <1>                0.0000
     13 O13          1.2908  -1.6300   0.0360 O.3            1 <1>                0.0000
     14 H14         -0.3360   2.7153  -0.8673 H              1 <1>                0.0000
     15 H15         -0.3407   2.7217   0.9126 H              1 <1>                0.0000
     16 H16          1.0899   3.2985   0.0244 H              1 <1>                0.0000
     17 H17          2.5290   1.6752  -1.2152 H              1 <1>                0.0000
     18 H18          2.1236  -0.0580  -1.2100 H              1 <1>                0.0000
     19 H19          1.1031   1.0920  -2.1069 H              1 <1>                0.0000
     20 H20          1.0917   1.1075   2.1715 H              1 <1>                0.0000
     21 H21          2.1170  -0.0489   1.2884 H              1 <1>                0.0000
     22 H22          2.5223   1.6843   1.2832 H              1 <1>                0.0000
     23 H23         -1.8044   1.6536   0.0226 H              1 <1>                0.0000
     24 H24         -3.1691  -2.3882   0.0347 H              1 <1>                0.0000
     25 H25         -1.4962  -4.1342   0.0446 H              1 <1>                0.0000
     26 H26          0.1510  -3.8033   0.0472 H              1 <1>                0.0000
     27 H27          1.6644  -1.7613  -0.8462 H              1 <1>                0.0000
@<TRIPOS>BOND
    1    1    2 1     
    2    1   14 1     
    3    1   15 1     
    4    1   16 1     
    5    2    3 1     
    6    2    4 1     
    7    2    5 1     
    8    3   17 1     
    9    3   18 1     
   10    3   19 1     
   11    4   20 1     
   12    4   21 1     
   13    4   22 1     
   14    5    6 ar    
   15    5   12 ar    
   16    6    7 ar    
   17    6   23 1     
   18    7    8 1     
   19    7    9 ar    
   20    9   10 ar    
   21    9   24 1     
   22   10   11 1     
   23   10   12 ar    
   24   11   25 1     
   25   11   26 1     
   26   12   13 1     
   27   13   27 1     
@<TRIPOS>SUBSTRUCTURE
      1 ****           1
@<TRIPOS>SET
DONOR_HYDROGENS      STATIC     ATOMS    <user>   **** ""
3 25 26 27
ATOM$RED        STATIC     ATOMS    COLORGROUP SYSTEM
3 25 26 27
