#       Name:                EN300-100613_i001
#       Creating user name   aseyller
#       Creation time:       Fri Apr 21 19:02:38 2023


#       File generated by GOLD software.
#

@<TRIPOS>MOLECULE
EN300-100613_i001|benzaldehydes|mol2|695|dock7
    18    19     1
SMALL
USER_CHARGES


@<TRIPOS>ATOM
      1 F1          30.4648  36.8089  38.0677 F              1 <1>                0.0000
      2 C2          30.7662  37.5679  36.9914 C.ar           1 <1>                0.0000
      3 C3          29.9885  38.6638  36.6750 C.ar           1 <1>                0.0000
      4 C4          30.2969  39.4435  35.5706 C.ar           1 <1>                0.0000
      5 C5          31.3797  39.1378  34.7748 C.ar           1 <1>                0.0000
      6 C6          32.1761  38.0375  35.0768 C.ar           1 <1>                0.0000
      7 N7          33.2972  37.4950  34.4819 N.pl3          1 <1>                0.0000
      8 C8          33.7154  36.4071  35.1573 C.2            1 <1>                0.0000
      9 C9          32.8841  36.1827  36.2336 C.2            1 <1>                0.0000
     10 C10         32.9879  35.1384  37.1861 C.2            1 <1>                0.0000
     11 O11         32.0369  34.8599  37.8876 O.2            1 <1>                0.0000
     12 C12         31.8672  37.2524  36.1979 C.ar           1 <1>                0.0000
     13 H13         29.1365  38.9145  37.2897 H              1 <1>                0.0000
     14 H14         29.6822  40.2988  35.3315 H              1 <1>                0.0000
     15 H15         31.6098  39.7520  33.9168 H              1 <1>                0.0000
     16 H16         34.5715  35.8029  34.8955 H              1 <1>                0.0000
     17 H17         33.9129  34.5902  37.2880 H              1 <1>                0.0000
     18 H18         33.7249  37.8482  33.6862 H              1 <1>                0.0000
@<TRIPOS>BOND
    1    1    2 1     
    2    2    3 ar    
    3    2   12 ar    
    4    3    4 ar    
    5    3   13 1     
    6    4    5 ar    
    7    4   14 1     
    8    5    6 ar    
    9    5   15 1     
   10    6    7 1     
   11    6   12 ar    
   12    7    8 1     
   13    7   18 1     
   14    8    9 2     
   15    8   16 1     
   16    9   10 1     
   17    9   12 1     
   18   10   11 2     
   19   10   17 1     
@<TRIPOS>SUBSTRUCTURE
      1 ****           1
@<TRIPOS>SET
DONOR_HYDROGENS      STATIC     ATOMS    <user>   **** ""
1 18
ATOM$RED        STATIC     ATOMS    COLORGROUP SYSTEM
1 18
@<TRIPOS>COMMENT
> <Gold.Version>
2022.2.0

> <Gold.Id.Protein>
1qkm|1qkm_protein|mol2

> <Gold.Protein.RotatedTorsions>
[  496  491  490  487 ] final  105.73 input  -89.99 | X-H torsion

> <Gold.Protein.ActiveResidues>
 MET295  LEU298  THR299  LEU301  ALA302  GLU305  TRP335  MET336  LEU339  MET340 
 GLY342  LEU343  ARG346  PHE356  ILE373  ILE376  PHE377  LEU380  LYS471  GLY472 
 MET473  HIS475  LEU476  LEU477  ASN478  MET479  VAL484  VAL487 

> <Gold.Protein.RotatedAtoms>
   36.9625   32.9506   41.8211 H   0  0  0  0  0  0  0  0  0  0  0  0  # atno 496  bound_to 491 

> <Gold.Score>
     Score     S(PLP)   S(hbond)     S(cho)   S(metal)  DE(clash)   DE(tors)     intcor
     41.01     -38.20       0.98       0.00       0.00       0.00       0.07       0.00

> <Gold.PLP.Fitness>
41.0096

> <Gold.PLP.PLP>
-38.1955

> <Gold.PLP.part.hbond>
-1.0000

> <Gold.PLP.part.metal>
0.0000

> <Gold.PLP.part.buried>
-3.7371

> <Gold.PLP.part.nonpolar>
-34.0757

> <Gold.PLP.part.repulsive>
0.1047

> <Gold.PLP.ligand.clash>
0.0000

> <Gold.PLP.ligand.torsion>
0.0679

> <Gold.PLP.Chemscore.Hbond>
0.9833

> <Gold.PLP.Chemscore.CHOScore>
0.0000

> <Gold.PLP.Chemscore.Metal>
0.0000

> <Gold.Chemscore.Hbonds>
donor molecule, donor type, donor heavy atom, donor atom, acceptor molecule, acceptor atom, score
      L1  H     7    18       P1  3229  0.98

> <Gold.PLP.Chemscore.Internal.Correction>
0.0000

