#       Name:                EN300-100613_i001
#       Creating user name   aseyller
#       Creation time:       Fri Apr 21 19:02:38 2023


#       File generated by GOLD software.
#

@<TRIPOS>MOLECULE
EN300-100613_i001|benzaldehydes|mol2|695|dock9
    18    19     1
SMALL
USER_CHARGES


@<TRIPOS>ATOM
      1 F1          32.5442  36.3599  35.3182 F              1 <1>                0.0000
      2 C2          31.6926  37.2218  35.9161 C.ar           1 <1>                0.0000
      3 C3          31.3557  38.4079  35.2950 C.ar           1 <1>                0.0000
      4 C4          30.4819  39.2932  35.9077 C.ar           1 <1>                0.0000
      5 C5          29.9387  39.0044  37.1408 C.ar           1 <1>                0.0000
      6 C6          30.2655  37.8143  37.7833 C.ar           1 <1>                0.0000
      7 N7          29.8907  37.2628  38.9918 N.pl3          1 <1>                0.0000
      8 C8          30.4855  36.0682  39.1751 C.2            1 <1>                0.0000
      9 C9          31.2834  35.7771  38.0895 C.2            1 <1>                0.0000
     10 C10         32.0736  34.6158  37.9009 C.2            1 <1>                0.0000
     11 O11         31.8065  33.5955  38.5023 O.2            1 <1>                0.0000
     12 C12         31.1450  36.9159  37.1602 C.ar           1 <1>                0.0000
     13 H13         31.7746  38.6472  34.3287 H              1 <1>                0.0000
     14 H14         30.2246  40.2185  35.4136 H              1 <1>                0.0000
     15 H15         29.2597  39.7019  37.6086 H              1 <1>                0.0000
     16 H16         30.3569  35.4350  40.0405 H              1 <1>                0.0000
     17 H17         32.9134  34.6384  37.2221 H              1 <1>                0.0000
     18 H18         29.2828  37.6787  39.6229 H              1 <1>                0.0000
@<TRIPOS>BOND
    1    1    2 1     
    2    2    3 ar    
    3    2   12 ar    
    4    3    4 ar    
    5    3   13 1     
    6    4    5 ar    
    7    4   14 1     
    8    5    6 ar    
    9    5   15 1     
   10    6    7 1     
   11    6   12 ar    
   12    7    8 1     
   13    7   18 1     
   14    8    9 2     
   15    8   16 1     
   16    9   10 1     
   17    9   12 1     
   18   10   11 2     
   19   10   17 1     
@<TRIPOS>SUBSTRUCTURE
      1 ****           1
@<TRIPOS>SET
DONOR_HYDROGENS      STATIC     ATOMS    <user>   **** ""
1 18
ATOM$RED        STATIC     ATOMS    COLORGROUP SYSTEM
1 18
@<TRIPOS>COMMENT
> <Gold.Version>
2022.2.0

> <Gold.Id.Protein>
1qkm|1qkm_protein|mol2

> <Gold.Protein.RotatedTorsions>
[  496  491  490  487 ] final -147.42 input  -89.99 | X-H torsion

> <Gold.Protein.ActiveResidues>
 MET295  LEU298  THR299  LEU301  ALA302  GLU305  TRP335  MET336  LEU339  MET340 
 GLY342  LEU343  ARG346  PHE356  ILE373  ILE376  PHE377  LEU380  LYS471  GLY472 
 MET473  HIS475  LEU476  LEU477  ASN478  MET479  VAL484  VAL487 

> <Gold.Protein.RotatedAtoms>
   37.2177   33.9600   40.7207 H   0  0  0  0  0  0  0  0  0  0  0  0  # atno 496  bound_to 491 

> <Gold.Score>
     Score     S(PLP)   S(hbond)     S(cho)   S(metal)  DE(clash)   DE(tors)     intcor
     40.99     -38.21       0.00       1.00       0.00       0.00       0.11       0.00

> <Gold.PLP.Fitness>
40.9948

> <Gold.PLP.PLP>
-38.2129

> <Gold.PLP.part.hbond>
0.0000

> <Gold.PLP.part.metal>
0.0000

> <Gold.PLP.part.buried>
-3.4320

> <Gold.PLP.part.nonpolar>
-35.3076

> <Gold.PLP.part.repulsive>
0.0651

> <Gold.PLP.ligand.clash>
0.0000

> <Gold.PLP.ligand.torsion>
0.1091

> <Gold.PLP.Chemscore.Hbond>
0.0000

> <Gold.PLP.Chemscore.CHOScore>
1.0000

> <Gold.PLP.Chemscore.Metal>
0.0000

> <Gold.Chemscore.Hbonds>
donor molecule, donor type, donor heavy atom, donor atom, acceptor molecule, acceptor atom, score
      L1  C     8    16       P1   470  1.00

> <Gold.PLP.Chemscore.Internal.Correction>
0.0000

