#       Name:                EN300-100613_i001
#       Creating user name   aseyller
#       Creation time:       Fri Apr 21 19:02:37 2023


#       File generated by GOLD software.
#

@<TRIPOS>MOLECULE
EN300-100613_i001|benzaldehydes|mol2|695|dock6
    18    19     1
SMALL
USER_CHARGES


@<TRIPOS>ATOM
      1 F1          30.0623  38.9640  36.6439 F              1 <1>                0.0000
      2 C2          31.0553  38.1022  36.3333 C.ar           1 <1>                0.0000
      3 C3          31.8108  38.2952  35.1940 C.ar           1 <1>                0.0000
      4 C4          32.8302  37.4113  34.8741 C.ar           1 <1>                0.0000
      5 C5          33.1038  36.3309  35.6847 C.ar           1 <1>                0.0000
      6 C6          32.3539  36.1189  36.8375 C.ar           1 <1>                0.0000
      7 N7          32.3915  35.1507  37.8205 N.pl3          1 <1>                0.0000
      8 C8          31.4436  35.3787  38.7500 C.2            1 <1>                0.0000
      9 C9          30.7349  36.5137  38.4195 C.2            1 <1>                0.0000
     10 C10         29.6584  37.0857  39.1425 C.2            1 <1>                0.0000
     11 O11         29.2936  36.5842  40.1861 O.2            1 <1>                0.0000
     12 C12         31.3265  37.0170  37.1640 C.ar           1 <1>                0.0000
     13 H13         31.6068  39.1374  34.5493 H              1 <1>                0.0000
     14 H14         33.4156  37.5710  33.9806 H              1 <1>                0.0000
     15 H15         33.8998  35.6488  35.4251 H              1 <1>                0.0000
     16 H16         31.2661  34.7657  39.6213 H              1 <1>                0.0000
     17 H17         29.1625  37.9678  38.7649 H              1 <1>                0.0000
     18 H18         33.0147  34.4076  37.8390 H              1 <1>                0.0000
@<TRIPOS>BOND
    1    1    2 1     
    2    2    3 ar    
    3    2   12 ar    
    4    3    4 ar    
    5    3   13 1     
    6    4    5 ar    
    7    4   14 1     
    8    5    6 ar    
    9    5   15 1     
   10    6    7 1     
   11    6   12 ar    
   12    7    8 1     
   13    7   18 1     
   14    8    9 2     
   15    8   16 1     
   16    9   10 1     
   17    9   12 1     
   18   10   11 2     
   19   10   17 1     
@<TRIPOS>SUBSTRUCTURE
      1 ****           1
@<TRIPOS>SET
DONOR_HYDROGENS      STATIC     ATOMS    <user>   **** ""
1 18
ATOM$RED        STATIC     ATOMS    COLORGROUP SYSTEM
1 18
@<TRIPOS>COMMENT
> <Gold.Version>
2022.2.0

> <Gold.Id.Protein>
1qkm|1qkm_protein|mol2

> <Gold.Protein.RotatedTorsions>
[  496  491  490  487 ] final  -16.71 input  -89.99 | X-H torsion

> <Gold.Protein.ActiveResidues>
 MET295  LEU298  THR299  LEU301  ALA302  GLU305  TRP335  MET336  LEU339  MET340 
 GLY342  LEU343  ARG346  PHE356  ILE373  ILE376  PHE377  LEU380  LYS471  GLY472 
 MET473  HIS475  LEU476  LEU477  ASN478  MET479  VAL484  VAL487 

> <Gold.Protein.RotatedAtoms>
   36.2730   34.4323   42.0713 H   0  0  0  0  0  0  0  0  0  0  0  0  # atno 496  bound_to 491 

> <Gold.Score>
     Score     S(PLP)   S(hbond)     S(cho)   S(metal)  DE(clash)   DE(tors)     intcor
     42.09     -39.09       0.00       1.00       0.00       0.00       0.00       0.00

> <Gold.PLP.Fitness>
42.0919

> <Gold.PLP.PLP>
-39.0934

> <Gold.PLP.part.hbond>
0.0000

> <Gold.PLP.part.metal>
0.0000

> <Gold.PLP.part.buried>
-3.4475

> <Gold.PLP.part.nonpolar>
-35.9842

> <Gold.PLP.part.repulsive>
0.1209

> <Gold.PLP.ligand.clash>
0.0000

> <Gold.PLP.ligand.torsion>
0.0008

> <Gold.PLP.Chemscore.Hbond>
0.0000

> <Gold.PLP.Chemscore.CHOScore>
1.0000

> <Gold.PLP.Chemscore.Metal>
0.0000

> <Gold.Chemscore.Hbonds>
donor molecule, donor type, donor heavy atom, donor atom, acceptor molecule, acceptor atom, score
      L1  C     8    16       P1   470  1.00

> <Gold.PLP.Chemscore.Internal.Correction>
0.0000

