#       Name:                EN300-100613_i001
#       Creating user name   aseyller
#       Creation time:       Fri Apr 21 19:02:39 2023


#       File generated by GOLD software.
#

@<TRIPOS>MOLECULE
EN300-100613_i001|benzaldehydes|mol2|695|dock13
    18    19     1
SMALL
USER_CHARGES


@<TRIPOS>ATOM
      1 F1          27.2997  38.6607  37.2936 F              1 <1>                0.0000
      2 C2          27.2220  37.7409  38.2801 C.ar           1 <1>                0.0000
      3 C3          26.0097  37.4698  38.8826 C.ar           1 <1>                0.0000
      4 C4          25.9287  36.5260  39.8952 C.ar           1 <1>                0.0000
      5 C5          27.0522  35.8470  40.3145 C.ar           1 <1>                0.0000
      6 C6          28.2834  36.1055  39.7200 C.ar           1 <1>                0.0000
      7 N7          29.5512  35.5983  39.9210 N.pl3          1 <1>                0.0000
      8 C8          30.4337  36.1757  39.0829 C.2            1 <1>                0.0000
      9 C9          29.7833  37.0945  38.2875 C.2            1 <1>                0.0000
     10 C10         30.3604  37.9084  37.2808 C.2            1 <1>                0.0000
     11 O11         29.7647  38.8851  36.8744 O.2            1 <1>                0.0000
     12 C12         28.3638  37.0563  38.6912 C.ar           1 <1>                0.0000
     13 H13         25.1212  37.9951  38.5643 H              1 <1>                0.0000
     14 H14         24.9756  36.3212  40.3602 H              1 <1>                0.0000
     15 H15         26.9771  35.1145  41.1045 H              1 <1>                0.0000
     16 H16         31.4896  35.9527  39.0406 H              1 <1>                0.0000
     17 H17         31.3300  37.6598  36.8752 H              1 <1>                0.0000
     18 H18         29.7761  34.9194  40.5764 H              1 <1>                0.0000
@<TRIPOS>BOND
    1    1    2 1     
    2    2    3 ar    
    3    2   12 ar    
    4    3    4 ar    
    5    3   13 1     
    6    4    5 ar    
    7    4   14 1     
    8    5    6 ar    
    9    5   15 1     
   10    6    7 1     
   11    6   12 ar    
   12    7    8 1     
   13    7   18 1     
   14    8    9 2     
   15    8   16 1     
   16    9   10 1     
   17    9   12 1     
   18   10   11 2     
   19   10   17 1     
@<TRIPOS>SUBSTRUCTURE
      1 ****           1
@<TRIPOS>SET
DONOR_HYDROGENS      STATIC     ATOMS    <user>   **** ""
1 18
ATOM$RED        STATIC     ATOMS    COLORGROUP SYSTEM
1 18
@<TRIPOS>COMMENT
> <Gold.Version>
2022.2.0

> <Gold.Id.Protein>
1qkm|1qkm_protein|mol2

> <Gold.Protein.RotatedTorsions>
[  496  491  490  487 ] final -168.63 input  -89.99 | X-H torsion

> <Gold.Protein.ActiveResidues>
 MET295  LEU298  THR299  LEU301  ALA302  GLU305  TRP335  MET336  LEU339  MET340 
 GLY342  LEU343  ARG346  PHE356  ILE373  ILE376  PHE377  LEU380  LYS471  GLY472 
 MET473  HIS475  LEU476  LEU477  ASN478  MET479  VAL484  VAL487 

> <Gold.Protein.RotatedAtoms>
   37.3013   33.6298   40.7877 H   0  0  0  0  0  0  0  0  0  0  0  0  # atno 496  bound_to 491 

> <Gold.Score>
     Score     S(PLP)   S(hbond)     S(cho)   S(metal)  DE(clash)   DE(tors)     intcor
     41.01     -41.14       0.00       0.00       0.00       0.00       0.07       0.00

> <Gold.PLP.Fitness>
41.0076

> <Gold.PLP.PLP>
-41.1435

> <Gold.PLP.part.hbond>
-0.5414

> <Gold.PLP.part.metal>
0.0000

> <Gold.PLP.part.buried>
-3.2769

> <Gold.PLP.part.nonpolar>
-37.8674

> <Gold.PLP.part.repulsive>
0.0366

> <Gold.PLP.ligand.clash>
0.0000

> <Gold.PLP.ligand.torsion>
0.0679

> <Gold.PLP.Chemscore.Hbond>
0.0000

> <Gold.PLP.Chemscore.CHOScore>
0.0000

> <Gold.PLP.Chemscore.Metal>
0.0000

> <Gold.PLP.Chemscore.Internal.Correction>
0.0000

