#       Name:                EN300-100613_i001
#       Creating user name   aseyller
#       Creation time:       Fri Apr 21 19:02:39 2023


#       File generated by GOLD software.
#

@<TRIPOS>MOLECULE
EN300-100613_i001|benzaldehydes|mol2|695|dock11
    18    19     1
SMALL
USER_CHARGES


@<TRIPOS>ATOM
      1 F1          30.1453  37.8314  35.5617 F              1 <1>                0.0000
      2 C2          30.8730  37.0892  36.4247 C.ar           1 <1>                0.0000
      3 C3          32.1415  36.6677  36.0792 C.ar           1 <1>                0.0000
      4 C4          32.8894  35.9059  36.9641 C.ar           1 <1>                0.0000
      5 C5          32.3803  35.5588  38.1968 C.ar           1 <1>                0.0000
      6 C6          31.1039  35.9738  38.5641 C.ar           1 <1>                0.0000
      7 N7          30.3439  35.7875  39.7011 N.pl3          1 <1>                0.0000
      8 C8          29.1482  36.3959  39.5796 C.2            1 <1>                0.0000
      9 C9          29.0662  37.0139  38.3504 C.2            1 <1>                0.0000
     10 C10         27.9717  37.7578  37.8430 C.2            1 <1>                0.0000
     11 O11         26.8650  37.6116  38.3201 O.2            1 <1>                0.0000
     12 C12         30.3499  36.7499  37.6707 C.ar           1 <1>                0.0000
     13 H13         32.5526  36.9319  35.1160 H              1 <1>                0.0000
     14 H14         33.8807  35.5810  36.6844 H              1 <1>                0.0000
     15 H15         32.9717  34.9645  38.8776 H              1 <1>                0.0000
     16 H16         28.3723  36.3990  40.3309 H              1 <1>                0.0000
     17 H17         28.1222  38.4549  37.0318 H              1 <1>                0.0000
     18 H18         30.6312  35.2867  40.4805 H              1 <1>                0.0000
@<TRIPOS>BOND
    1    1    2 1     
    2    2    3 ar    
    3    2   12 ar    
    4    3    4 ar    
    5    3   13 1     
    6    4    5 ar    
    7    4   14 1     
    8    5    6 ar    
    9    5   15 1     
   10    6    7 1     
   11    6   12 ar    
   12    7    8 1     
   13    7   18 1     
   14    8    9 2     
   15    8   16 1     
   16    9   10 1     
   17    9   12 1     
   18   10   11 2     
   19   10   17 1     
@<TRIPOS>SUBSTRUCTURE
      1 ****           1
@<TRIPOS>SET
DONOR_HYDROGENS      STATIC     ATOMS    <user>   **** ""
1 18
ATOM$RED        STATIC     ATOMS    COLORGROUP SYSTEM
1 18
@<TRIPOS>COMMENT
> <Gold.Version>
2022.2.0

> <Gold.Id.Protein>
1qkm|1qkm_protein|mol2

> <Gold.Protein.RotatedTorsions>
[  496  491  490  487 ] final   56.13 input  -89.99 | X-H torsion

> <Gold.Protein.ActiveResidues>
 MET295  LEU298  THR299  LEU301  ALA302  GLU305  TRP335  MET336  LEU339  MET340 
 GLY342  LEU343  ARG346  PHE356  ILE373  ILE376  PHE377  LEU380  LYS471  GLY472 
 MET473  HIS475  LEU476  LEU477  ASN478  MET479  VAL484  VAL487 

> <Gold.Protein.RotatedAtoms>
   36.5201   33.3699   42.3254 H   0  0  0  0  0  0  0  0  0  0  0  0  # atno 496  bound_to 491 

> <Gold.Score>
     Score     S(PLP)   S(hbond)     S(cho)   S(metal)  DE(clash)   DE(tors)     intcor
     39.53     -36.73       0.99       0.00       0.00       0.00       0.09       0.00

> <Gold.PLP.Fitness>
39.5280

> <Gold.PLP.PLP>
-36.7255

> <Gold.PLP.part.hbond>
-1.0000

> <Gold.PLP.part.metal>
0.0000

> <Gold.PLP.part.buried>
-2.8618

> <Gold.PLP.part.nonpolar>
-33.1180

> <Gold.PLP.part.repulsive>
0.0601

> <Gold.PLP.ligand.clash>
0.0000

> <Gold.PLP.ligand.torsion>
0.0868

> <Gold.PLP.Chemscore.Hbond>
0.9920

> <Gold.PLP.Chemscore.CHOScore>
0.0000

> <Gold.PLP.Chemscore.Metal>
0.0000

> <Gold.Chemscore.Hbonds>
donor molecule, donor type, donor heavy atom, donor atom, acceptor molecule, acceptor atom, score
      L1  H     7    18       P1   470  0.99

> <Gold.PLP.Chemscore.Internal.Correction>
0.0000

