#       Name:                EN300-100613_i001
#       Creating user name   aseyller
#       Creation time:       Fri Apr 21 19:02:38 2023


#       File generated by GOLD software.
#

@<TRIPOS>MOLECULE
EN300-100613_i001|benzaldehydes|mol2|695|dock10
    18    19     1
SMALL
USER_CHARGES


@<TRIPOS>ATOM
      1 F1          32.4315  35.4109  37.7051 F              1 <1>                0.0000
      2 C2          32.1714  36.3091  36.7300 C.ar           1 <1>                0.0000
      3 C3          32.9828  36.3777  35.6150 C.ar           1 <1>                0.0000
      4 C4          32.7168  37.2991  34.6135 C.ar           1 <1>                0.0000
      5 C5          31.6434  38.1573  34.7152 C.ar           1 <1>                0.0000
      6 C6          30.8136  38.1041  35.8308 C.ar           1 <1>                0.0000
      7 N7          29.6919  38.8160  36.2049 N.pl3          1 <1>                0.0000
      8 C8          29.2327  38.3893  37.3972 C.2            1 <1>                0.0000
      9 C9          30.0357  37.3714  37.8650 C.2            1 <1>                0.0000
     10 C10         29.8862  36.6600  39.0817 C.2            1 <1>                0.0000
     11 O11         28.9727  36.9298  39.8343 O.2            1 <1>                0.0000
     12 C12         31.0795  37.1674  36.8411 C.ar           1 <1>                0.0000
     13 H13         33.8279  35.7114  35.5227 H              1 <1>                0.0000
     14 H14         33.3575  37.3448  33.7452 H              1 <1>                0.0000
     15 H15         31.4465  38.8713  33.9291 H              1 <1>                0.0000
     16 H16         28.3673  38.7845  37.9086 H              1 <1>                0.0000
     17 H17         30.5850  35.8778  39.3392 H              1 <1>                0.0000
     18 H18         29.2897  39.5266  35.6812 H              1 <1>                0.0000
@<TRIPOS>BOND
    1    1    2 1     
    2    2    3 ar    
    3    2   12 ar    
    4    3    4 ar    
    5    3   13 1     
    6    4    5 ar    
    7    4   14 1     
    8    5    6 ar    
    9    5   15 1     
   10    6    7 1     
   11    6   12 ar    
   12    7    8 1     
   13    7   18 1     
   14    8    9 2     
   15    8   16 1     
   16    9   10 1     
   17    9   12 1     
   18   10   11 2     
   19   10   17 1     
@<TRIPOS>SUBSTRUCTURE
      1 ****           1
@<TRIPOS>SET
DONOR_HYDROGENS      STATIC     ATOMS    <user>   **** ""
1 18
ATOM$RED        STATIC     ATOMS    COLORGROUP SYSTEM
1 18
@<TRIPOS>COMMENT
> <Gold.Version>
2022.2.0

> <Gold.Id.Protein>
1qkm|1qkm_protein|mol2

> <Gold.Protein.RotatedTorsions>
[  496  491  490  487 ] final -144.81 input  -89.99 | X-H torsion

> <Gold.Protein.ActiveResidues>
 MET295  LEU298  THR299  LEU301  ALA302  GLU305  TRP335  MET336  LEU339  MET340 
 GLY342  LEU343  ARG346  PHE356  ILE373  ILE376  PHE377  LEU380  LYS471  GLY472 
 MET473  HIS475  LEU476  LEU477  ASN478  MET479  VAL484  VAL487 

> <Gold.Protein.RotatedAtoms>
   37.2031   34.0004   40.7202 H   0  0  0  0  0  0  0  0  0  0  0  0  # atno 496  bound_to 491 

> <Gold.Score>
     Score     S(PLP)   S(hbond)     S(cho)   S(metal)  DE(clash)   DE(tors)     intcor
     39.67     -39.67       0.00       0.00       0.00       0.00       0.00       0.00

> <Gold.PLP.Fitness>
39.6672

> <Gold.PLP.PLP>
-39.6672

> <Gold.PLP.part.hbond>
0.0000

> <Gold.PLP.part.metal>
0.0000

> <Gold.PLP.part.buried>
-2.9956

> <Gold.PLP.part.nonpolar>
-36.8459

> <Gold.PLP.part.repulsive>
0.0490

> <Gold.PLP.ligand.clash>
0.0000

> <Gold.PLP.ligand.torsion>
0.0000

> <Gold.PLP.Chemscore.Hbond>
0.0000

> <Gold.PLP.Chemscore.CHOScore>
0.0000

> <Gold.PLP.Chemscore.Metal>
0.0000

> <Gold.PLP.Chemscore.Internal.Correction>
0.0000

