#       Name:                EN300-100613_i001
#       Creating user name   aseyller
#       Creation time:       Fri Apr 21 19:02:40 2023


#       File generated by GOLD software.
#

@<TRIPOS>MOLECULE
EN300-100613_i001|benzaldehydes|mol2|695|dock15
    18    19     1
SMALL
USER_CHARGES


@<TRIPOS>ATOM
      1 F1          30.0559  38.5856  35.6803 F              1 <1>                0.0000
      2 C2          31.1321  37.7709  35.7393 C.ar           1 <1>                0.0000
      3 C3          32.0623  37.7746  34.7192 C.ar           1 <1>                0.0000
      4 C4          33.1673  36.9389  34.7786 C.ar           1 <1>                0.0000
      5 C5          33.3531  36.0950  35.8521 C.ar           1 <1>                0.0000
      6 C6          32.4272  36.0763  36.8906 C.ar           1 <1>                0.0000
      7 N7          32.3452  35.3579  38.0663 N.pl3          1 <1>                0.0000
      8 C8          31.2398  35.6988  38.7565 C.2            1 <1>                0.0000
      9 C9          30.5398  36.6624  38.0629 C.2            1 <1>                0.0000
     10 C10         29.3254  37.2796  38.4542 C.2            1 <1>                0.0000
     11 O11         28.6489  37.8635  37.6325 O.2            1 <1>                0.0000
     12 C12         31.3124  36.9265  36.8329 C.ar           1 <1>                0.0000
     13 H13         31.9288  38.4305  33.8715 H              1 <1>                0.0000
     14 H14         33.8893  36.9493  33.9754 H              1 <1>                0.0000
     15 H15         34.2172  35.4481  35.8873 H              1 <1>                0.0000
     16 H16         30.9467  35.2808  39.7083 H              1 <1>                0.0000
     17 H17         29.0018  37.2303  39.4834 H              1 <1>                0.0000
     18 H18         32.9943  34.6978  38.3555 H              1 <1>                0.0000
@<TRIPOS>BOND
    1    1    2 1     
    2    2    3 ar    
    3    2   12 ar    
    4    3    4 ar    
    5    3   13 1     
    6    4    5 ar    
    7    4   14 1     
    8    5    6 ar    
    9    5   15 1     
   10    6    7 1     
   11    6   12 ar    
   12    7    8 1     
   13    7   18 1     
   14    8    9 2     
   15    8   16 1     
   16    9   10 1     
   17    9   12 1     
   18   10   11 2     
   19   10   17 1     
@<TRIPOS>SUBSTRUCTURE
      1 ****           1
@<TRIPOS>SET
DONOR_HYDROGENS      STATIC     ATOMS    <user>   **** ""
1 18
ATOM$RED        STATIC     ATOMS    COLORGROUP SYSTEM
1 18
@<TRIPOS>COMMENT
> <Gold.Version>
2022.2.0

> <Gold.Id.Protein>
1qkm|1qkm_protein|mol2

> <Gold.Protein.RotatedTorsions>
[  496  491  490  487 ] final  -83.49 input  -89.99 | X-H torsion

> <Gold.Protein.ActiveResidues>
 MET295  LEU298  THR299  LEU301  ALA302  GLU305  TRP335  MET336  LEU339  MET340 
 GLY342  LEU343  ARG346  PHE356  ILE373  ILE376  PHE377  LEU380  LYS471  GLY472 
 MET473  HIS475  LEU476  LEU477  ASN478  MET479  VAL484  VAL487 

> <Gold.Protein.RotatedAtoms>
   36.6975   34.6907   41.1599 H   0  0  0  0  0  0  0  0  0  0  0  0  # atno 496  bound_to 491 

> <Gold.Score>
     Score     S(PLP)   S(hbond)     S(cho)   S(metal)  DE(clash)   DE(tors)     intcor
     41.55     -38.69       0.00       1.00       0.00       0.00       0.07       0.00

> <Gold.PLP.Fitness>
41.5499

> <Gold.PLP.PLP>
-38.6903

> <Gold.PLP.part.hbond>
0.0000

> <Gold.PLP.part.metal>
0.0000

> <Gold.PLP.part.buried>
-3.2963

> <Gold.PLP.part.nonpolar>
-35.7174

> <Gold.PLP.part.repulsive>
0.0513

> <Gold.PLP.ligand.clash>
0.0000

> <Gold.PLP.ligand.torsion>
0.0702

> <Gold.PLP.Chemscore.Hbond>
0.0000

> <Gold.PLP.Chemscore.CHOScore>
1.0000

> <Gold.PLP.Chemscore.Metal>
0.0000

> <Gold.Chemscore.Hbonds>
donor molecule, donor type, donor heavy atom, donor atom, acceptor molecule, acceptor atom, score
      L1  C     8    16       P1   470  1.00

> <Gold.PLP.Chemscore.Internal.Correction>
0.0000

