#       Name:                EN300-100613_i001
#       Creating user name   aseyller
#       Creation time:       Fri Apr 21 19:02:36 2023


#       File generated by GOLD software.
#

@<TRIPOS>MOLECULE
EN300-100613_i001
    18    19     1
SMALL
USER_CHARGES


@<TRIPOS>ATOM
      1 F1           0.0650  -2.6737   0.0006 F              1 <1>                0.0000
      2 C2           0.6355  -1.4490   0.0004 C.ar           1 <1>                0.0000
      3 C3           2.0104  -1.3237   0.0004 C.ar           1 <1>                0.0000
      4 C4           2.5971  -0.0673   0.0002 C.ar           1 <1>                0.0000
      5 C5           1.8203   1.0710   0.0004 C.ar           1 <1>                0.0000
      6 C6           0.4328   0.9662   0.0003 C.ar           1 <1>                0.0000
      7 N7          -0.5822   1.9015   0.0004 N.pl3          1 <1>                0.0000
      8 C8          -1.7863   1.2976   0.0004 C.2            1 <1>                0.0000
      9 C9          -1.6179  -0.0704   0.0001 C.2            1 <1>                0.0000
     10 C10         -2.6386  -1.0537  -0.0001 C.2            1 <1>                0.0000
     11 O11         -3.8052  -0.7177   0.0004 O.2            1 <1>                0.0000
     12 C12         -0.1604  -0.3054  -0.0057 C.ar           1 <1>                0.0000
     13 H13          2.6313  -2.2075   0.0009 H              1 <1>                0.0000
     14 H14          3.6736   0.0201   0.0002 H              1 <1>                0.0000
     15 H15          2.2884   2.0443   0.0009 H              1 <1>                0.0000
     16 H16         -2.7384   1.8075   0.0004 H              1 <1>                0.0000
     17 H17         -2.3786  -2.1020  -0.0007 H              1 <1>                0.0000
     18 H18         -0.4470   2.8620   0.0011 H              1 <1>                0.0000
@<TRIPOS>BOND
    1    1    2 1     
    2    2    3 ar    
    3    2   12 ar    
    4    3    4 ar    
    5    3   13 1     
    6    4    5 ar    
    7    4   14 1     
    8    5    6 ar    
    9    5   15 1     
   10    6    7 1     
   11    6   12 ar    
   12    7    8 1     
   13    7   18 1     
   14    8    9 2     
   15    8   16 1     
   16    9   10 1     
   17    9   12 1     
   18   10   11 2     
   19   10   17 1     
@<TRIPOS>SUBSTRUCTURE
      1 ****           1
@<TRIPOS>SET
DONOR_HYDROGENS      STATIC     ATOMS    <user>   **** ""
1 18
ATOM$RED        STATIC     ATOMS    COLORGROUP SYSTEM
1 18
