#       Name:                EN300-100613_i001
#       Creating user name   aseyller
#       Creation time:       Fri Apr 21 19:02:38 2023


#       File generated by GOLD software.
#

@<TRIPOS>MOLECULE
EN300-100613_i001|benzaldehydes|mol2|695|dock8
    18    19     1
SMALL
USER_CHARGES


@<TRIPOS>ATOM
      1 F1          29.7252  38.3272  37.4800 F              1 <1>                0.0000
      2 C2          30.5939  37.2989  37.5947 C.ar           1 <1>                0.0000
      3 C3          30.5198  36.4450  38.6771 C.ar           1 <1>                0.0000
      4 C4          31.4108  35.3893  38.7960 C.ar           1 <1>                0.0000
      5 C5          32.3803  35.1769  37.8400 C.ar           1 <1>                0.0000
      6 C6          32.4717  36.0260  36.7414 C.ar           1 <1>                0.0000
      7 N7          33.3150  36.0658  35.6495 N.pl3          1 <1>                0.0000
      8 C8          33.0008  37.0975  34.8424 C.2            1 <1>                0.0000
      9 C9          31.9303  37.7877  35.3691 C.2            1 <1>                0.0000
     10 C10         31.3023  38.9331  34.8192 C.2            1 <1>                0.0000
     11 O11         30.5989  39.6339  35.5178 O.2            1 <1>                0.0000
     12 C12         31.5659  37.0906  36.6184 C.ar           1 <1>                0.0000
     13 H13         29.7653  36.6002  39.4342 H              1 <1>                0.0000
     14 H14         31.3446  34.7269  39.6466 H              1 <1>                0.0000
     15 H15         33.0693  34.3517  37.9434 H              1 <1>                0.0000
     16 H16         33.5099  37.3459  33.9228 H              1 <1>                0.0000
     17 H17         31.4494  39.1825  33.7787 H              1 <1>                0.0000
     18 H18         34.0355  35.4373  35.4860 H              1 <1>                0.0000
@<TRIPOS>BOND
    1    1    2 1     
    2    2    3 ar    
    3    2   12 ar    
    4    3    4 ar    
    5    3   13 1     
    6    4    5 ar    
    7    4   14 1     
    8    5    6 ar    
    9    5   15 1     
   10    6    7 1     
   11    6   12 ar    
   12    7    8 1     
   13    7   18 1     
   14    8    9 2     
   15    8   16 1     
   16    9   10 1     
   17    9   12 1     
   18   10   11 2     
   19   10   17 1     
@<TRIPOS>SUBSTRUCTURE
      1 ****           1
@<TRIPOS>SET
DONOR_HYDROGENS      STATIC     ATOMS    <user>   **** ""
1 18
ATOM$RED        STATIC     ATOMS    COLORGROUP SYSTEM
1 18
@<TRIPOS>COMMENT
> <Gold.Version>
2022.2.0

> <Gold.Id.Protein>
1qkm|1qkm_protein|mol2

> <Gold.Protein.RotatedTorsions>
[  496  491  490  487 ] final -157.36 input  -89.99 | X-H torsion

> <Gold.Protein.ActiveResidues>
 MET295  LEU298  THR299  LEU301  ALA302  GLU305  TRP335  MET336  LEU339  MET340 
 GLY342  LEU343  ARG346  PHE356  ILE373  ILE376  PHE377  LEU380  LYS471  GLY472 
 MET473  HIS475  LEU476  LEU477  ASN478  MET479  VAL484  VAL487 

> <Gold.Protein.RotatedAtoms>
   37.2650   33.8046   40.7383 H   0  0  0  0  0  0  0  0  0  0  0  0  # atno 496  bound_to 491 

> <Gold.Score>
     Score     S(PLP)   S(hbond)     S(cho)   S(metal)  DE(clash)   DE(tors)     intcor
     42.13     -39.27       0.00       1.00       0.00       0.00       0.07       0.00

> <Gold.PLP.Fitness>
42.1251

> <Gold.PLP.PLP>
-39.2686

> <Gold.PLP.part.hbond>
0.0000

> <Gold.PLP.part.metal>
0.0000

> <Gold.PLP.part.buried>
-3.0491

> <Gold.PLP.part.nonpolar>
-36.0659

> <Gold.PLP.part.repulsive>
0.0398

> <Gold.PLP.ligand.clash>
0.0000

> <Gold.PLP.ligand.torsion>
0.0718

> <Gold.PLP.Chemscore.Hbond>
0.0000

> <Gold.PLP.Chemscore.CHOScore>
1.0000

> <Gold.PLP.Chemscore.Metal>
0.0000

> <Gold.Chemscore.Hbonds>
donor molecule, donor type, donor heavy atom, donor atom, acceptor molecule, acceptor atom, score
      L1  C     8    16       P1  3229  1.00

> <Gold.PLP.Chemscore.Internal.Correction>
0.0000

