#       Name:                EN300-100613_i001
#       Creating user name   aseyller
#       Creation time:       Fri Apr 21 19:02:39 2023


#       File generated by GOLD software.
#

@<TRIPOS>MOLECULE
EN300-100613_i001|benzaldehydes|mol2|695|dock14
    18    19     1
SMALL
USER_CHARGES


@<TRIPOS>ATOM
      1 F1          27.3030  38.1566  37.5193 F              1 <1>                0.0000
      2 C2          27.0387  37.5483  38.6963 C.ar           1 <1>                0.0000
      3 C3          25.7688  37.6015  39.2353 C.ar           1 <1>                0.0000
      4 C4          25.4962  36.9776  40.4433 C.ar           1 <1>                0.0000
      5 C5          26.4845  36.2979  41.1219 C.ar           1 <1>                0.0000
      6 C6          27.7708  36.2325  40.5954 C.ar           1 <1>                0.0000
      7 N7          28.9385  35.6410  41.0332 N.pl3          1 <1>                0.0000
      8 C8          29.9400  35.8599  40.1593 C.2            1 <1>                0.0000
      9 C9          29.4746  36.6096  39.1005 C.2            1 <1>                0.0000
     10 C10         30.2179  37.0484  37.9764 C.2            1 <1>                0.0000
     11 O11         31.3674  36.6863  37.8298 O.2            1 <1>                0.0000
     12 C12         28.0446  36.8588  39.3700 C.ar           1 <1>                0.0000
     13 H13         24.9848  38.1313  38.7144 H              1 <1>                0.0000
     14 H14         24.4995  37.0250  40.8567 H              1 <1>                0.0000
     15 H15         26.2607  35.8163  42.0623 H              1 <1>                0.0000
     16 H16         30.9530  35.5025  40.2712 H              1 <1>                0.0000
     17 H17         29.7618  37.7049  37.2501 H              1 <1>                0.0000
     18 H18         29.0262  35.1373  41.8575 H              1 <1>                0.0000
@<TRIPOS>BOND
    1    1    2 1     
    2    2    3 ar    
    3    2   12 ar    
    4    3    4 ar    
    5    3   13 1     
    6    4    5 ar    
    7    4   14 1     
    8    5    6 ar    
    9    5   15 1     
   10    6    7 1     
   11    6   12 ar    
   12    7    8 1     
   13    7   18 1     
   14    8    9 2     
   15    8   16 1     
   16    9   10 1     
   17    9   12 1     
   18   10   11 2     
   19   10   17 1     
@<TRIPOS>SUBSTRUCTURE
      1 ****           1
@<TRIPOS>SET
DONOR_HYDROGENS      STATIC     ATOMS    <user>   **** ""
1 18
ATOM$RED        STATIC     ATOMS    COLORGROUP SYSTEM
1 18
@<TRIPOS>COMMENT
> <Gold.Version>
2022.2.0

> <Gold.Id.Protein>
1qkm|1qkm_protein|mol2

> <Gold.Protein.RotatedTorsions>
[  496  491  490  487 ] final -114.97 input  -89.99 | X-H torsion

> <Gold.Protein.ActiveResidues>
 MET295  LEU298  THR299  LEU301  ALA302  GLU305  TRP335  MET336  LEU339  MET340 
 GLY342  LEU343  ARG346  PHE356  ILE373  ILE376  PHE377  LEU380  LYS471  GLY472 
 MET473  HIS475  LEU476  LEU477  ASN478  MET479  VAL484  VAL487 

> <Gold.Protein.RotatedAtoms>
   36.9836   34.4184   40.8345 H   0  0  0  0  0  0  0  0  0  0  0  0  # atno 496  bound_to 491 

> <Gold.Score>
     Score     S(PLP)   S(hbond)     S(cho)   S(metal)  DE(clash)   DE(tors)     intcor
     41.57     -38.93       0.00       0.89       0.00       0.00       0.01       0.00

> <Gold.PLP.Fitness>
41.5689

> <Gold.PLP.PLP>
-38.9252

> <Gold.PLP.part.hbond>
-0.7461

> <Gold.PLP.part.metal>
0.0000

> <Gold.PLP.part.buried>
0.5549

> <Gold.PLP.part.nonpolar>
-39.1985

> <Gold.PLP.part.repulsive>
0.0908

> <Gold.PLP.ligand.clash>
0.0000

> <Gold.PLP.ligand.torsion>
0.0067

> <Gold.PLP.Chemscore.Hbond>
0.0000

> <Gold.PLP.Chemscore.CHOScore>
0.8857

> <Gold.PLP.Chemscore.Metal>
0.0000

> <Gold.Chemscore.Hbonds>
donor molecule, donor type, donor heavy atom, donor atom, acceptor molecule, acceptor atom, score
      L1  C     8    16       P1   470  0.89

> <Gold.PLP.Chemscore.Internal.Correction>
0.0000

