#       Name:                EN300-100613_i001
#       Creating user name   aseyller
#       Creation time:       Fri Apr 21 19:02:41 2023


#       File generated by GOLD software.
#

@<TRIPOS>MOLECULE
EN300-100613_i001|benzaldehydes|mol2|695|dock20
    18    19     1
SMALL
USER_CHARGES


@<TRIPOS>ATOM
      1 F1          26.4967  38.1006  37.8027 F              1 <1>                0.0000
      2 C2          27.8202  37.8645  37.9371 C.ar           1 <1>                0.0000
      3 C3          28.7130  38.3714  37.0140 C.ar           1 <1>                0.0000
      4 C4          30.0715  38.1299  37.1509 C.ar           1 <1>                0.0000
      5 C5          30.5497  37.3830  38.2057 C.ar           1 <1>                0.0000
      6 C6          29.6664  36.8633  39.1468 C.ar           1 <1>                0.0000
      7 N7          29.8425  36.0976  40.2816 N.pl3          1 <1>                0.0000
      8 C8          28.6591  35.8419  40.8721 C.2            1 <1>                0.0000
      9 C9          27.6443  36.4309  40.1489 C.2            1 <1>                0.0000
     10 C10         26.2580  36.3938  40.4416 C.2            1 <1>                0.0000
     11 O11         25.5067  37.1949  39.9243 O.2            1 <1>                0.0000
     12 C12         28.2923  37.1131  39.0113 C.ar           1 <1>                0.0000
     13 H13         28.3519  38.9580  36.1820 H              1 <1>                0.0000
     14 H14         30.7618  38.5308  36.4234 H              1 <1>                0.0000
     15 H15         31.6099  37.2008  38.3017 H              1 <1>                0.0000
     16 H16         28.5258  35.2636  41.7744 H              1 <1>                0.0000
     17 H17         25.8700  35.6527  41.1248 H              1 <1>                0.0000
     18 H18         30.7008  35.7858  40.6087 H              1 <1>                0.0000
@<TRIPOS>BOND
    1    1    2 1     
    2    2    3 ar    
    3    2   12 ar    
    4    3    4 ar    
    5    3   13 1     
    6    4    5 ar    
    7    4   14 1     
    8    5    6 ar    
    9    5   15 1     
   10    6    7 1     
   11    6   12 ar    
   12    7    8 1     
   13    7   18 1     
   14    8    9 2     
   15    8   16 1     
   16    9   10 1     
   17    9   12 1     
   18   10   11 2     
   19   10   17 1     
@<TRIPOS>SUBSTRUCTURE
      1 ****           1
@<TRIPOS>SET
DONOR_HYDROGENS      STATIC     ATOMS    <user>   **** ""
1 18
ATOM$RED        STATIC     ATOMS    COLORGROUP SYSTEM
1 18
@<TRIPOS>COMMENT
> <Gold.Version>
2022.2.0

> <Gold.Id.Protein>
1qkm|1qkm_protein|mol2

> <Gold.Protein.RotatedTorsions>
[  496  491  490  487 ] final  -78.92 input  -89.99 | X-H torsion

> <Gold.Protein.ActiveResidues>
 MET295  LEU298  THR299  LEU301  ALA302  GLU305  TRP335  MET336  LEU339  MET340 
 GLY342  LEU343  ARG346  PHE356  ILE373  ILE376  PHE377  LEU380  LYS471  GLY472 
 MET473  HIS475  LEU476  LEU477  ASN478  MET479  VAL484  VAL487 

> <Gold.Protein.RotatedAtoms>
   36.6563   34.7103   41.2195 H   0  0  0  0  0  0  0  0  0  0  0  0  # atno 496  bound_to 491 

> <Gold.Score>
     Score     S(PLP)   S(hbond)     S(cho)   S(metal)  DE(clash)   DE(tors)     intcor
     41.18     -38.32       1.00       0.00       0.00       0.00       0.07       0.00

> <Gold.PLP.Fitness>
41.1841

> <Gold.PLP.PLP>
-38.3165

> <Gold.PLP.part.hbond>
-1.0000

> <Gold.PLP.part.metal>
0.0000

> <Gold.PLP.part.buried>
-3.6646

> <Gold.PLP.part.nonpolar>
-33.8498

> <Gold.PLP.part.repulsive>
0.1611

> <Gold.PLP.ligand.clash>
0.0000

> <Gold.PLP.ligand.torsion>
0.0662

> <Gold.PLP.Chemscore.Hbond>
1.0000

> <Gold.PLP.Chemscore.CHOScore>
0.0000

> <Gold.PLP.Chemscore.Metal>
0.0000

> <Gold.Chemscore.Hbonds>
donor molecule, donor type, donor heavy atom, donor atom, acceptor molecule, acceptor atom, score
      L1  H     7    18       P1   470  1.00

> <Gold.PLP.Chemscore.Internal.Correction>
0.0000

