#       Name:                EN300-100613_i001
#       Creating user name   aseyller
#       Creation time:       Fri Apr 21 19:02:40 2023


#       File generated by GOLD software.
#

@<TRIPOS>MOLECULE
EN300-100613_i001|benzaldehydes|mol2|695|dock18
    18    19     1
SMALL
USER_CHARGES


@<TRIPOS>ATOM
      1 F1          31.2469  38.7330  34.6715 F              1 <1>                0.0000
      2 C2          31.8658  37.7374  35.3431 C.ar           1 <1>                0.0000
      3 C3          32.9815  37.1267  34.8061 C.ar           1 <1>                0.0000
      4 C4          33.6175  36.1047  35.4944 C.ar           1 <1>                0.0000
      5 C5          33.1477  35.6841  36.7198 C.ar           1 <1>                0.0000
      6 C6          32.0247  36.2868  37.2783 C.ar           1 <1>                0.0000
      7 N7          31.3375  36.0868  38.4584 N.pl3          1 <1>                0.0000
      8 C8          30.2949  36.9345  38.5519 C.2            1 <1>                0.0000
      9 C9          30.2479  37.7356  37.4313 C.2            1 <1>                0.0000
     10 C10         29.3014  38.7527  37.1511 C.2            1 <1>                0.0000
     11 O11         29.5609  39.6161  36.3381 O.2            1 <1>                0.0000
     12 C12         31.3851  37.3250  36.5842 C.ar           1 <1>                0.0000
     13 H13         33.3601  37.4459  33.8462 H              1 <1>                0.0000
     14 H14         34.4896  35.6333  35.0658 H              1 <1>                0.0000
     15 H15         33.6509  34.8867  37.2464 H              1 <1>                0.0000
     16 H16         29.6015  36.9796  39.3788 H              1 <1>                0.0000
     17 H17         28.3493  38.7597  37.6610 H              1 <1>                0.0000
     18 H18         31.5728  35.4260  39.1284 H              1 <1>                0.0000
@<TRIPOS>BOND
    1    1    2 1     
    2    2    3 ar    
    3    2   12 ar    
    4    3    4 ar    
    5    3   13 1     
    6    4    5 ar    
    7    4   14 1     
    8    5    6 ar    
    9    5   15 1     
   10    6    7 1     
   11    6   12 ar    
   12    7    8 1     
   13    7   18 1     
   14    8    9 2     
   15    8   16 1     
   16    9   10 1     
   17    9   12 1     
   18   10   11 2     
   19   10   17 1     
@<TRIPOS>SUBSTRUCTURE
      1 ****           1
@<TRIPOS>SET
DONOR_HYDROGENS      STATIC     ATOMS    <user>   **** ""
1 18
ATOM$RED        STATIC     ATOMS    COLORGROUP SYSTEM
1 18
@<TRIPOS>COMMENT
> <Gold.Version>
2022.2.0

> <Gold.Id.Protein>
1qkm|1qkm_protein|mol2

> <Gold.Protein.RotatedTorsions>
[  496  491  490  487 ] final  148.03 input  -89.99 | X-H torsion

> <Gold.Protein.ActiveResidues>
 MET295  LEU298  THR299  LEU301  ALA302  GLU305  TRP335  MET336  LEU339  MET340 
 GLY342  LEU343  ARG346  PHE356  ILE373  ILE376  PHE377  LEU380  LYS471  GLY472 
 MET473  HIS475  LEU476  LEU477  ASN478  MET479  VAL484  VAL487 

> <Gold.Protein.RotatedAtoms>
   37.2543   33.0868   41.2214 H   0  0  0  0  0  0  0  0  0  0  0  0  # atno 496  bound_to 491 

> <Gold.Score>
     Score     S(PLP)   S(hbond)     S(cho)   S(metal)  DE(clash)   DE(tors)     intcor
     38.99     -39.17       0.00       0.00       0.00       0.00       0.09       0.00

> <Gold.PLP.Fitness>
38.9928

> <Gold.PLP.PLP>
-39.1679

> <Gold.PLP.part.hbond>
0.0000

> <Gold.PLP.part.metal>
0.0000

> <Gold.PLP.part.buried>
-3.1371

> <Gold.PLP.part.nonpolar>
-36.3212

> <Gold.PLP.part.repulsive>
0.0342

> <Gold.PLP.ligand.clash>
0.0000

> <Gold.PLP.ligand.torsion>
0.0876

> <Gold.PLP.Chemscore.Hbond>
0.0000

> <Gold.PLP.Chemscore.CHOScore>
0.0000

> <Gold.PLP.Chemscore.Metal>
0.0000

> <Gold.PLP.Chemscore.Internal.Correction>
0.0000

