#       Name:                EN300-100613_i001
#       Creating user name   aseyller
#       Creation time:       Fri Apr 21 19:02:39 2023


#       File generated by GOLD software.
#

@<TRIPOS>MOLECULE
EN300-100613_i001|benzaldehydes|mol2|695|dock12
    18    19     1
SMALL
USER_CHARGES


@<TRIPOS>ATOM
      1 F1          28.8660  36.1161  41.7649 F              1 <1>                0.0000
      2 C2          28.8365  36.4399  40.4535 C.ar           1 <1>                0.0000
      3 C3          29.9971  36.4155  39.7062 C.ar           1 <1>                0.0000
      4 C4          29.9681  36.7476  38.3603 C.ar           1 <1>                0.0000
      5 C5          28.7855  37.1060  37.7502 C.ar           1 <1>                0.0000
      6 C6          27.6048  37.1367  38.4859 C.ar           1 <1>                0.0000
      7 N7          26.3002  37.4477  38.1601 N.pl3          1 <1>                0.0000
      8 C8          25.4991  37.3282  39.2364 C.2            1 <1>                0.0000
      9 C9          26.2440  36.9308  40.3259 C.2            1 <1>                0.0000
     10 C10         25.7703  36.6951  41.6407 C.2            1 <1>                0.0000
     11 O11         24.5843  36.5264  41.8375 O.2            1 <1>                0.0000
     12 C12         27.6336  36.7946  39.8464 C.ar           1 <1>                0.0000
     13 H13         30.9311  36.1370  40.1718 H              1 <1>                0.0000
     14 H14         30.8815  36.7255  37.7843 H              1 <1>                0.0000
     15 H15         28.7752  37.3634  36.7014 H              1 <1>                0.0000
     16 H16         24.4353  37.5151  39.2445 H              1 <1>                0.0000
     17 H17         26.4645  36.6655  42.4676 H              1 <1>                0.0000
     18 H18         26.0012  37.7161  37.2772 H              1 <1>                0.0000
@<TRIPOS>BOND
    1    1    2 1     
    2    2    3 ar    
    3    2   12 ar    
    4    3    4 ar    
    5    3   13 1     
    6    4    5 ar    
    7    4   14 1     
    8    5    6 ar    
    9    5   15 1     
   10    6    7 1     
   11    6   12 ar    
   12    7    8 1     
   13    7   18 1     
   14    8    9 2     
   15    8   16 1     
   16    9   10 1     
   17    9   12 1     
   18   10   11 2     
   19   10   17 1     
@<TRIPOS>SUBSTRUCTURE
      1 ****           1
@<TRIPOS>SET
DONOR_HYDROGENS      STATIC     ATOMS    <user>   **** ""
1 18
ATOM$RED        STATIC     ATOMS    COLORGROUP SYSTEM
1 18
@<TRIPOS>COMMENT
> <Gold.Version>
2022.2.0

> <Gold.Id.Protein>
1qkm|1qkm_protein|mol2

> <Gold.Protein.RotatedTorsions>
[  496  491  490  487 ] final   50.71 input  -89.99 | X-H torsion

> <Gold.Protein.ActiveResidues>
 MET295  LEU298  THR299  LEU301  ALA302  GLU305  TRP335  MET336  LEU339  MET340 
 GLY342  LEU343  ARG346  PHE356  ILE373  ILE376  PHE377  LEU380  LYS471  GLY472 
 MET473  HIS475  LEU476  LEU477  ASN478  MET479  VAL484  VAL487 

> <Gold.Protein.RotatedAtoms>
   36.4781   33.4445   42.3508 H   0  0  0  0  0  0  0  0  0  0  0  0  # atno 496  bound_to 491 

> <Gold.Score>
     Score     S(PLP)   S(hbond)     S(cho)   S(metal)  DE(clash)   DE(tors)     intcor
     44.61     -39.53       0.78       0.95       0.00       0.00       0.07       0.00

> <Gold.PLP.Fitness>
44.6055

> <Gold.PLP.PLP>
-39.5348

> <Gold.PLP.part.hbond>
-0.8908

> <Gold.PLP.part.metal>
0.0000

> <Gold.PLP.part.buried>
0.8738

> <Gold.PLP.part.nonpolar>
-42.6253

> <Gold.PLP.part.repulsive>
1.4132

> <Gold.PLP.ligand.clash>
0.0000

> <Gold.PLP.ligand.torsion>
0.0687

> <Gold.PLP.Chemscore.Hbond>
0.7840

> <Gold.PLP.Chemscore.CHOScore>
0.9520

> <Gold.PLP.Chemscore.Metal>
0.0000

> <Gold.Chemscore.Hbonds>
donor molecule, donor type, donor heavy atom, donor atom, acceptor molecule, acceptor atom, score
      P1  H  1258  1270       L1    11  0.78
      L1  C     8    16       P1  1131  0.95

> <Gold.PLP.Chemscore.Internal.Correction>
0.0000

