#       Name:                EN300-100613_i001
#       Creating user name   aseyller
#       Creation time:       Fri Apr 21 19:02:36 2023


#       File generated by GOLD software.
#

@<TRIPOS>MOLECULE
EN300-100613_i001|benzaldehydes|mol2|695|dock2
    18    19     1
SMALL
USER_CHARGES


@<TRIPOS>ATOM
      1 F1          26.2458  37.8938  37.8882 F              1 <1>                0.0000
      2 C2          26.6744  37.3976  39.0695 C.ar           1 <1>                0.0000
      3 C3          25.8037  37.2942  40.1359 C.ar           1 <1>                0.0000
      4 C4          26.2424  36.7851  41.3488 C.ar           1 <1>                0.0000
      5 C5          27.5488  36.3764  41.5081 C.ar           1 <1>                0.0000
      6 C6          28.4421  36.4723  40.4455 C.ar           1 <1>                0.0000
      7 N7          29.7772  36.1516  40.3059 N.pl3          1 <1>                0.0000
      8 C8          30.2069  36.4329  39.0606 C.2            1 <1>                0.0000
      9 C9          29.1683  36.9546  38.3196 C.2            1 <1>                0.0000
     10 C10         29.2150  37.3752  36.9669 C.2            1 <1>                0.0000
     11 O11         30.2465  37.2735  36.3348 O.2            1 <1>                0.0000
     12 C12         27.9961  36.9818  39.2166 C.ar           1 <1>                0.0000
     13 H13         24.7772  37.6114  40.0252 H              1 <1>                0.0000
     14 H14         25.5534  36.7083  42.1770 H              1 <1>                0.0000
     15 H15         27.8794  35.9821  42.4577 H              1 <1>                0.0000
     16 H16         31.2118  36.2740  38.6980 H              1 <1>                0.0000
     17 H17         28.3329  37.7861  36.4984 H              1 <1>                0.0000
     18 H18         30.3305  35.7756  41.0083 H              1 <1>                0.0000
@<TRIPOS>BOND
    1    1    2 1     
    2    2    3 ar    
    3    2   12 ar    
    4    3    4 ar    
    5    3   13 1     
    6    4    5 ar    
    7    4   14 1     
    8    5    6 ar    
    9    5   15 1     
   10    6    7 1     
   11    6   12 ar    
   12    7    8 1     
   13    7   18 1     
   14    8    9 2     
   15    8   16 1     
   16    9   10 1     
   17    9   12 1     
   18   10   11 2     
   19   10   17 1     
@<TRIPOS>SUBSTRUCTURE
      1 ****           1
@<TRIPOS>SET
DONOR_HYDROGENS      STATIC     ATOMS    <user>   **** ""
1 18
ATOM$RED        STATIC     ATOMS    COLORGROUP SYSTEM
1 18
@<TRIPOS>COMMENT
> <Gold.Version>
2022.2.0

> <Gold.Id.Protein>
1qkm|1qkm_protein|mol2

> <Gold.Protein.RotatedTorsions>
[  496  491  490  487 ] final  -21.04 input  -89.99 | X-H torsion

> <Gold.Protein.ActiveResidues>
 MET295  LEU298  THR299  LEU301  ALA302  GLU305  TRP335  MET336  LEU339  MET340 
 GLY342  LEU343  ARG346  PHE356  ILE373  ILE376  PHE377  LEU380  LYS471  GLY472 
 MET473  HIS475  LEU476  LEU477  ASN478  MET479  VAL484  VAL487 

> <Gold.Protein.RotatedAtoms>
   36.2837   34.4814   42.0208 H   0  0  0  0  0  0  0  0  0  0  0  0  # atno 496  bound_to 491 

> <Gold.Score>
     Score     S(PLP)   S(hbond)     S(cho)   S(metal)  DE(clash)   DE(tors)     intcor
     44.26     -41.27       1.00       0.00       0.00       0.00       0.00       0.00

> <Gold.PLP.Fitness>
44.2647

> <Gold.PLP.PLP>
-41.2654

> <Gold.PLP.part.hbond>
-1.0000

> <Gold.PLP.part.metal>
0.0000

> <Gold.PLP.part.buried>
-3.1394

> <Gold.PLP.part.nonpolar>
-37.3781

> <Gold.PLP.part.repulsive>
0.0498

> <Gold.PLP.ligand.clash>
0.0000

> <Gold.PLP.ligand.torsion>
0.0003

> <Gold.PLP.Chemscore.Hbond>
1.0000

> <Gold.PLP.Chemscore.CHOScore>
0.0000

> <Gold.PLP.Chemscore.Metal>
0.0000

> <Gold.Chemscore.Hbonds>
donor molecule, donor type, donor heavy atom, donor atom, acceptor molecule, acceptor atom, score
      L1  H     7    18       P1   470  1.00

> <Gold.PLP.Chemscore.Internal.Correction>
0.0000

