#       Name:                EN300-100613_i001
#       Creating user name   aseyller
#       Creation time:       Fri Apr 21 19:02:37 2023


#       File generated by GOLD software.
#

@<TRIPOS>MOLECULE
EN300-100613_i001|benzaldehydes|mol2|695|dock5
    18    19     1
SMALL
USER_CHARGES


@<TRIPOS>ATOM
      1 F1          27.5535  38.2209  37.4165 F              1 <1>                0.0000
      2 C2          28.6419  37.5761  37.8906 C.ar           1 <1>                0.0000
      3 C3          29.8324  37.6178  37.1926 C.ar           1 <1>                0.0000
      4 C4          30.9502  36.9565  37.6783 C.ar           1 <1>                0.0000
      5 C5          30.8905  36.2498  38.8599 C.ar           1 <1>                0.0000
      6 C6          29.7001  36.1955  39.5784 C.ar           1 <1>                0.0000
      7 N7          29.3423  35.5840  40.7629 N.pl3          1 <1>                0.0000
      8 C8          28.0492  35.8266  41.0524 C.2            1 <1>                0.0000
      9 C9          27.4939  36.6132  40.0662 C.2            1 <1>                0.0000
     10 C10         26.1589  37.0852  40.0048 C.2            1 <1>                0.0000
     11 O11         25.4945  37.1607  41.0180 O.2            1 <1>                0.0000
     12 C12         28.5709  36.8700  39.0897 C.ar           1 <1>                0.0000
     13 H13         29.8931  38.1674  36.2648 H              1 <1>                0.0000
     14 H14         31.8768  36.9952  37.1248 H              1 <1>                0.0000
     15 H15         31.7674  35.7380  39.2281 H              1 <1>                0.0000
     16 H16         27.5273  35.4606  41.9243 H              1 <1>                0.0000
     17 H17         25.7326  37.3777  39.0565 H              1 <1>                0.0000
     18 H18         29.9398  35.0521  41.3114 H              1 <1>                0.0000
@<TRIPOS>BOND
    1    1    2 1     
    2    2    3 ar    
    3    2   12 ar    
    4    3    4 ar    
    5    3   13 1     
    6    4    5 ar    
    7    4   14 1     
    8    5    6 ar    
    9    5   15 1     
   10    6    7 1     
   11    6   12 ar    
   12    7    8 1     
   13    7   18 1     
   14    8    9 2     
   15    8   16 1     
   16    9   10 1     
   17    9   12 1     
   18   10   11 2     
   19   10   17 1     
@<TRIPOS>SUBSTRUCTURE
      1 ****           1
@<TRIPOS>SET
DONOR_HYDROGENS      STATIC     ATOMS    <user>   **** ""
1 18
ATOM$RED        STATIC     ATOMS    COLORGROUP SYSTEM
1 18
@<TRIPOS>COMMENT
> <Gold.Version>
2022.2.0

> <Gold.Id.Protein>
1qkm|1qkm_protein|mol2

> <Gold.Protein.RotatedTorsions>
[  496  491  490  487 ] final  117.14 input  -89.99 | X-H torsion

> <Gold.Protein.ActiveResidues>
 MET295  LEU298  THR299  LEU301  ALA302  GLU305  TRP335  MET336  LEU339  MET340 
 GLY342  LEU343  ARG346  PHE356  ILE373  ILE376  PHE377  LEU380  LYS471  GLY472 
 MET473  HIS475  LEU476  LEU477  ASN478  MET479  VAL484  VAL487 

> <Gold.Protein.RotatedAtoms>
   37.0581   32.9403   41.6600 H   0  0  0  0  0  0  0  0  0  0  0  0  # atno 496  bound_to 491 

> <Gold.Score>
     Score     S(PLP)   S(hbond)     S(cho)   S(metal)  DE(clash)   DE(tors)     intcor
     44.31     -39.08       0.82       1.00       0.00       0.00       0.11       0.00

> <Gold.PLP.Fitness>
44.3095

> <Gold.PLP.PLP>
-39.0759

> <Gold.PLP.part.hbond>
-1.0000

> <Gold.PLP.part.metal>
0.0000

> <Gold.PLP.part.buried>
-3.9770

> <Gold.PLP.part.nonpolar>
-35.4822

> <Gold.PLP.part.repulsive>
0.2378

> <Gold.PLP.ligand.clash>
0.0000

> <Gold.PLP.ligand.torsion>
0.1072

> <Gold.PLP.Chemscore.Hbond>
0.8160

> <Gold.PLP.Chemscore.CHOScore>
1.0000

> <Gold.PLP.Chemscore.Metal>
0.0000

> <Gold.Chemscore.Hbonds>
donor molecule, donor type, donor heavy atom, donor atom, acceptor molecule, acceptor atom, score
      L1  H     7    18       P1   470  0.82
      L1  C     8    16       P1   582  1.00

> <Gold.PLP.Chemscore.Internal.Correction>
0.0000

