#       Name:                EN300-100613_i001
#       Creating user name   aseyller
#       Creation time:       Fri Apr 21 19:02:40 2023


#       File generated by GOLD software.
#

@<TRIPOS>MOLECULE
EN300-100613_i001|benzaldehydes|mol2|695|dock17
    18    19     1
SMALL
USER_CHARGES


@<TRIPOS>ATOM
      1 F1          25.7992  37.6014  39.1280 F              1 <1>                0.0000
      2 C2          26.6288  37.0009  40.0092 C.ar           1 <1>                0.0000
      3 C3          26.1514  36.5749  41.2326 C.ar           1 <1>                0.0000
      4 C4          27.0019  35.9584  42.1378 C.ar           1 <1>                0.0000
      5 C5          28.3313  35.7626  41.8320 C.ar           1 <1>                0.0000
      6 C6          28.8320  36.1846  40.6042 C.ar           1 <1>                0.0000
      7 N7          30.0852  36.1281  40.0287 N.pl3          1 <1>                0.0000
      8 C8          30.0702  36.6796  38.7998 C.2            1 <1>                0.0000
      9 C9          28.7993  37.1268  38.5087 C.2            1 <1>                0.0000
     10 C10         28.3735  37.7645  37.3168 C.2            1 <1>                0.0000
     11 O11         29.1807  38.3345  36.6115 O.2            1 <1>                0.0000
     12 C12         27.9696  36.8028  39.6861 C.ar           1 <1>                0.0000
     13 H13         25.1118  36.7226  41.4856 H              1 <1>                0.0000
     14 H14         26.6187  35.6287  43.0923 H              1 <1>                0.0000
     15 H15         28.9844  35.2818  42.5452 H              1 <1>                0.0000
     16 H16         30.9237  36.7592  38.1428 H              1 <1>                0.0000
     17 H17         27.3308  37.7433  37.0358 H              1 <1>                0.0000
     18 H18         30.8693  35.7443  40.4513 H              1 <1>                0.0000
@<TRIPOS>BOND
    1    1    2 1     
    2    2    3 ar    
    3    2   12 ar    
    4    3    4 ar    
    5    3   13 1     
    6    4    5 ar    
    7    4   14 1     
    8    5    6 ar    
    9    5   15 1     
   10    6    7 1     
   11    6   12 ar    
   12    7    8 1     
   13    7   18 1     
   14    8    9 2     
   15    8   16 1     
   16    9   10 1     
   17    9   12 1     
   18   10   11 2     
   19   10   17 1     
@<TRIPOS>SUBSTRUCTURE
      1 ****           1
@<TRIPOS>SET
DONOR_HYDROGENS      STATIC     ATOMS    <user>   **** ""
1 18
ATOM$RED        STATIC     ATOMS    COLORGROUP SYSTEM
1 18
@<TRIPOS>COMMENT
> <Gold.Version>
2022.2.0

> <Gold.Id.Protein>
1qkm|1qkm_protein|mol2

> <Gold.Protein.RotatedTorsions>
[  496  491  490  487 ] final  -87.02 input  -89.99 | X-H torsion

> <Gold.Protein.ActiveResidues>
 MET295  LEU298  THR299  LEU301  ALA302  GLU305  TRP335  MET336  LEU339  MET340 
 GLY342  LEU343  ARG346  PHE356  ILE373  ILE376  PHE377  LEU380  LYS471  GLY472 
 MET473  HIS475  LEU476  LEU477  ASN478  MET479  VAL484  VAL487 

> <Gold.Protein.RotatedAtoms>
   36.7299   34.6718   41.1154 H   0  0  0  0  0  0  0  0  0  0  0  0  # atno 496  bound_to 491 

> <Gold.Score>
     Score     S(PLP)   S(hbond)     S(cho)   S(metal)  DE(clash)   DE(tors)     intcor
     42.98     -40.20       1.00       0.00       0.00       0.00       0.11       0.00

> <Gold.PLP.Fitness>
42.9814

> <Gold.PLP.PLP>
-40.2044

> <Gold.PLP.part.hbond>
-1.0000

> <Gold.PLP.part.metal>
0.0000

> <Gold.PLP.part.buried>
2.8960

> <Gold.PLP.part.nonpolar>
-42.6252

> <Gold.PLP.part.repulsive>
0.0509

> <Gold.PLP.ligand.clash>
0.0000

> <Gold.PLP.ligand.torsion>
0.1115

> <Gold.PLP.Chemscore.Hbond>
1.0000

> <Gold.PLP.Chemscore.CHOScore>
0.0000

> <Gold.PLP.Chemscore.Metal>
0.0000

> <Gold.Chemscore.Hbonds>
donor molecule, donor type, donor heavy atom, donor atom, acceptor molecule, acceptor atom, score
      L1  H     7    18       P1   470  1.00

> <Gold.PLP.Chemscore.Internal.Correction>
0.0000

