#       Name:                EN300-100613_i001
#       Creating user name   aseyller
#       Creation time:       Fri Apr 21 19:02:37 2023


#       File generated by GOLD software.
#

@<TRIPOS>MOLECULE
EN300-100613_i001|benzaldehydes|mol2|695|dock4
    18    19     1
SMALL
USER_CHARGES


@<TRIPOS>ATOM
      1 F1          28.2917  37.2979  37.4832 F              1 <1>                0.0000
      2 C2          27.4383  37.1960  38.5257 C.ar           1 <1>                0.0000
      3 C3          26.1586  37.7047  38.4275 C.ar           1 <1>                0.0000
      4 C4          25.2819  37.6008  39.4967 C.ar           1 <1>                0.0000
      5 C5          25.6726  36.9912  40.6692 C.ar           1 <1>                0.0000
      6 C6          26.9581  36.4720  40.7883 C.ar           1 <1>                0.0000
      7 N7          27.6204  35.8226  41.8104 N.pl3          1 <1>                0.0000
      8 C8          28.8769  35.5087  41.4399 C.2            1 <1>                0.0000
      9 C9          29.1003  35.9397  40.1499 C.2            1 <1>                0.0000
     10 C10         30.2949  35.7993  39.4003 C.2            1 <1>                0.0000
     11 O11         30.4692  36.4713  38.4044 O.2            1 <1>                0.0000
     12 C12         27.8429  36.5719  39.7039 C.ar           1 <1>                0.0000
     13 H13         25.8393  38.1857  37.5146 H              1 <1>                0.0000
     14 H14         24.2828  38.0020  39.4099 H              1 <1>                0.0000
     15 H15         24.9813  36.9167  41.4956 H              1 <1>                0.0000
     16 H16         29.5991  34.9975  42.0591 H              1 <1>                0.0000
     17 H17         31.0503  35.0944  39.7151 H              1 <1>                0.0000
     18 H18         27.2342  35.6204  42.6769 H              1 <1>                0.0000
@<TRIPOS>BOND
    1    1    2 1     
    2    2    3 ar    
    3    2   12 ar    
    4    3    4 ar    
    5    3   13 1     
    6    4    5 ar    
    7    4   14 1     
    8    5    6 ar    
    9    5   15 1     
   10    6    7 1     
   11    6   12 ar    
   12    7    8 1     
   13    7   18 1     
   14    8    9 2     
   15    8   16 1     
   16    9   10 1     
   17    9   12 1     
   18   10   11 2     
   19   10   17 1     
@<TRIPOS>SUBSTRUCTURE
      1 ****           1
@<TRIPOS>SET
DONOR_HYDROGENS      STATIC     ATOMS    <user>   **** ""
1 18
ATOM$RED        STATIC     ATOMS    COLORGROUP SYSTEM
1 18
@<TRIPOS>COMMENT
> <Gold.Version>
2022.2.0

> <Gold.Id.Protein>
1qkm|1qkm_protein|mol2

> <Gold.Protein.RotatedTorsions>
[  496  491  490  487 ] final  101.52 input  -89.99 | X-H torsion

> <Gold.Protein.ActiveResidues>
 MET295  LEU298  THR299  LEU301  ALA302  GLU305  TRP335  MET336  LEU339  MET340 
 GLY342  LEU343  ARG346  PHE356  ILE373  ILE376  PHE377  LEU380  LYS471  GLY472 
 MET473  HIS475  LEU476  LEU477  ASN478  MET479  VAL484  VAL487 

> <Gold.Protein.RotatedAtoms>
   36.9253   32.9633   41.8780 H   0  0  0  0  0  0  0  0  0  0  0  0  # atno 496  bound_to 491 

> <Gold.Score>
     Score     S(PLP)   S(hbond)     S(cho)   S(metal)  DE(clash)   DE(tors)     intcor
     45.87     -39.99       1.00       1.00       0.00       0.00       0.06       0.00

> <Gold.PLP.Fitness>
45.8657

> <Gold.PLP.PLP>
-39.9884

> <Gold.PLP.part.hbond>
-1.0000

> <Gold.PLP.part.metal>
0.0000

> <Gold.PLP.part.buried>
-1.0275

> <Gold.PLP.part.nonpolar>
-39.2042

> <Gold.PLP.part.repulsive>
0.0935

> <Gold.PLP.ligand.clash>
0.0000

> <Gold.PLP.ligand.torsion>
0.0613

> <Gold.PLP.Chemscore.Hbond>
1.0000

> <Gold.PLP.Chemscore.CHOScore>
1.0000

> <Gold.PLP.Chemscore.Metal>
0.0000

> <Gold.Chemscore.Hbonds>
donor molecule, donor type, donor heavy atom, donor atom, acceptor molecule, acceptor atom, score
      L1  H     7    18       P1   582  1.00
      L1  C     8    16       P1   470  1.00

> <Gold.PLP.Chemscore.Internal.Correction>
0.0000

