#       Name:                EN300-100613_i001
#       Creating user name   aseyller
#       Creation time:       Fri Apr 21 19:02:36 2023


#       File generated by GOLD software.
#

@<TRIPOS>MOLECULE
EN300-100613_i001|benzaldehydes|mol2|695|dock1
    18    19     1
SMALL
USER_CHARGES


@<TRIPOS>ATOM
      1 F1          26.2906  37.6835  38.1705 F              1 <1>                0.0000
      2 C2          27.5812  37.3564  38.4002 C.ar           1 <1>                0.0000
      3 C3          28.5472  37.6368  37.4544 C.ar           1 <1>                0.0000
      4 C4          29.8721  37.3016  37.6890 C.ar           1 <1>                0.0000
      5 C5          30.2437  36.6857  38.8644 C.ar           1 <1>                0.0000
      6 C6          29.2853  36.3947  39.8303 C.ar           1 <1>                0.0000
      7 N7          29.3520  35.7988  41.0735 N.pl3          1 <1>                0.0000
      8 C8          28.1311  35.7403  41.6397 C.2            1 <1>                0.0000
      9 C9          27.1999  36.2981  40.7903 C.2            1 <1>                0.0000
     10 C10         25.8073  36.4269  41.0203 C.2            1 <1>                0.0000
     11 O11         25.4039  37.1271  41.9264 O.2            1 <1>                0.0000
     12 C12         27.9457  36.7396  39.5952 C.ar           1 <1>                0.0000
     13 H13         28.2698  38.1186  36.5284 H              1 <1>                0.0000
     14 H14         30.6203  37.5251  36.9428 H              1 <1>                0.0000
     15 H15         31.2785  36.4287  39.0358 H              1 <1>                0.0000
     16 H16         27.9148  35.3204  42.6110 H              1 <1>                0.0000
     17 H17         25.1049  35.9022  40.3895 H              1 <1>                0.0000
     18 H18         30.1662  35.4671  41.4831 H              1 <1>                0.0000
@<TRIPOS>BOND
    1    1    2 1     
    2    2    3 ar    
    3    2   12 ar    
    4    3    4 ar    
    5    3   13 1     
    6    4    5 ar    
    7    4   14 1     
    8    5    6 ar    
    9    5   15 1     
   10    6    7 1     
   11    6   12 ar    
   12    7    8 1     
   13    7   18 1     
   14    8    9 2     
   15    8   16 1     
   16    9   10 1     
   17    9   12 1     
   18   10   11 2     
   19   10   17 1     
@<TRIPOS>SUBSTRUCTURE
      1 ****           1
@<TRIPOS>SET
DONOR_HYDROGENS      STATIC     ATOMS    <user>   **** ""
1 18
ATOM$RED        STATIC     ATOMS    COLORGROUP SYSTEM
1 18
@<TRIPOS>COMMENT
> <Gold.Version>
2022.2.0

> <Gold.Id.Protein>
1qkm|1qkm_protein|mol2

> <Gold.Protein.RotatedTorsions>
[  496  491  490  487 ] final -162.59 input  -89.99 | X-H torsion

> <Gold.Protein.ActiveResidues>
 MET295  LEU298  THR299  LEU301  ALA302  GLU305  TRP335  MET336  LEU339  MET340 
 GLY342  LEU343  ARG346  PHE356  ILE373  ILE376  PHE377  LEU380  LYS471  GLY472 
 MET473  HIS475  LEU476  LEU477  ASN478  MET479  VAL484  VAL487 

> <Gold.Protein.RotatedAtoms>
   37.2842   33.7229   40.7574 H   0  0  0  0  0  0  0  0  0  0  0  0  # atno 496  bound_to 491 

> <Gold.Score>
     Score     S(PLP)   S(hbond)     S(cho)   S(metal)  DE(clash)   DE(tors)     intcor
     47.72     -42.35       1.19       1.00       0.00       0.00       0.61       0.00

> <Gold.PLP.Fitness>
47.7220

> <Gold.PLP.PLP>
-42.3548

> <Gold.PLP.part.hbond>
-2.0000

> <Gold.PLP.part.metal>
0.0000

> <Gold.PLP.part.buried>
-3.8419

> <Gold.PLP.part.nonpolar>
-38.0506

> <Gold.PLP.part.repulsive>
0.3418

> <Gold.PLP.ligand.clash>
0.0000

> <Gold.PLP.ligand.torsion>
0.6081

> <Gold.PLP.Chemscore.Hbond>
1.1945

> <Gold.PLP.Chemscore.CHOScore>
1.0000

> <Gold.PLP.Chemscore.Metal>
0.0000

> <Gold.Chemscore.Hbonds>
donor molecule, donor type, donor heavy atom, donor atom, acceptor molecule, acceptor atom, score
      L1  H     7    18       P1   470  1.00
      P1  H  1258  1270       L1    11  0.19
      L1  C     8    16       P1   582  1.00

> <Gold.PLP.Chemscore.Internal.Correction>
0.0000

