#       Name:                EN300-100613_i001
#       Creating user name   aseyller
#       Creation time:       Fri Apr 21 19:02:36 2023


#       File generated by GOLD software.
#

@<TRIPOS>MOLECULE
EN300-100613_i001|benzaldehydes|mol2|695|dock3
    18    19     1
SMALL
USER_CHARGES


@<TRIPOS>ATOM
      1 F1          26.5118  38.0031  38.0221 F              1 <1>                0.0000
      2 C2          27.0211  37.1887  38.9721 C.ar           1 <1>                0.0000
      3 C3          26.1932  36.6344  39.9279 C.ar           1 <1>                0.0000
      4 C4          26.7147  35.7983  40.9035 C.ar           1 <1>                0.0000
      5 C5          28.0618  35.5092  40.9344 C.ar           1 <1>                0.0000
      6 C6          28.9130  36.0577  39.9801 C.ar           1 <1>                0.0000
      7 N7          30.2717  35.9550  39.7598 N.pl3          1 <1>                0.0000
      8 C8          30.6373  36.6866  38.6895 C.2            1 <1>                0.0000
      9 C9          29.5298  37.3077  38.1533 C.2            1 <1>                0.0000
     10 C10         29.4969  38.1626  37.0234 C.2            1 <1>                0.0000
     11 O11         28.5933  38.9630  36.8938 O.2            1 <1>                0.0000
     12 C12         28.3838  36.8988  38.9894 C.ar           1 <1>                0.0000
     13 H13         25.1356  36.8530  39.9158 H              1 <1>                0.0000
     14 H14         26.0588  35.3696  41.6467 H              1 <1>                0.0000
     15 H15         28.4568  34.8572  41.6994 H              1 <1>                0.0000
     16 H16         31.6445  36.7732  38.3094 H              1 <1>                0.0000
     17 H17         30.2758  38.1021  36.2775 H              1 <1>                0.0000
     18 H18         30.8799  35.4286  40.3019 H              1 <1>                0.0000
@<TRIPOS>BOND
    1    1    2 1     
    2    2    3 ar    
    3    2   12 ar    
    4    3    4 ar    
    5    3   13 1     
    6    4    5 ar    
    7    4   14 1     
    8    5    6 ar    
    9    5   15 1     
   10    6    7 1     
   11    6   12 ar    
   12    7    8 1     
   13    7   18 1     
   14    8    9 2     
   15    8   16 1     
   16    9   10 1     
   17    9   12 1     
   18   10   11 2     
   19   10   17 1     
@<TRIPOS>SUBSTRUCTURE
      1 ****           1
@<TRIPOS>SET
DONOR_HYDROGENS      STATIC     ATOMS    <user>   **** ""
1 18
ATOM$RED        STATIC     ATOMS    COLORGROUP SYSTEM
1 18
@<TRIPOS>COMMENT
> <Gold.Version>
2022.2.0

> <Gold.Id.Protein>
1qkm|1qkm_protein|mol2

> <Gold.Protein.RotatedTorsions>
[  496  491  490  487 ] final   71.18 input  -89.99 | X-H torsion

> <Gold.Protein.ActiveResidues>
 MET295  LEU298  THR299  LEU301  ALA302  GLU305  TRP335  MET336  LEU339  MET340 
 GLY342  LEU343  ARG346  PHE356  ILE373  ILE376  PHE377  LEU380  LYS471  GLY472 
 MET473  HIS475  LEU476  LEU477  ASN478  MET479  VAL484  VAL487 

> <Gold.Protein.RotatedAtoms>
   36.6479   33.1869   42.2197 H   0  0  0  0  0  0  0  0  0  0  0  0  # atno 496  bound_to 491 

> <Gold.Score>
     Score     S(PLP)   S(hbond)     S(cho)   S(metal)  DE(clash)   DE(tors)     intcor
     44.05     -41.31       0.99       0.00       0.00       0.00       0.12       0.00

> <Gold.PLP.Fitness>
44.0530

> <Gold.PLP.PLP>
-41.3120

> <Gold.PLP.part.hbond>
-1.0000

> <Gold.PLP.part.metal>
0.0000

> <Gold.PLP.part.buried>
-2.8650

> <Gold.PLP.part.nonpolar>
-37.8290

> <Gold.PLP.part.repulsive>
0.0502

> <Gold.PLP.ligand.clash>
0.0000

> <Gold.PLP.ligand.torsion>
0.1175

> <Gold.PLP.Chemscore.Hbond>
0.9920

> <Gold.PLP.Chemscore.CHOScore>
0.0000

> <Gold.PLP.Chemscore.Metal>
0.0000

> <Gold.Chemscore.Hbonds>
donor molecule, donor type, donor heavy atom, donor atom, acceptor molecule, acceptor atom, score
      L1  H     7    18       P1   470  0.99

> <Gold.PLP.Chemscore.Internal.Correction>
0.0000

