#       Name:                EN300-100613_i001
#       Creating user name   aseyller
#       Creation time:       Fri Apr 21 19:02:40 2023


#       File generated by GOLD software.
#

@<TRIPOS>MOLECULE
EN300-100613_i001|benzaldehydes|mol2|695|dock16
    18    19     1
SMALL
USER_CHARGES


@<TRIPOS>ATOM
      1 F1          27.2231  37.9808  37.6334 F              1 <1>                0.0000
      2 C2          27.5122  37.1939  38.6929 C.ar           1 <1>                0.0000
      3 C3          26.5299  36.8746  39.6090 C.ar           1 <1>                0.0000
      4 C4          26.8254  36.0671  40.6968 C.ar           1 <1>                0.0000
      5 C5          28.0989  35.5731  40.8799 C.ar           1 <1>                0.0000
      6 C6          29.1030  35.8832  39.9679 C.ar           1 <1>                0.0000
      7 N7          30.4389  35.5457  39.8873 N.pl3          1 <1>                0.0000
      8 C8          31.0055  36.1009  38.7987 C.2            1 <1>                0.0000
      9 C9          30.0632  36.8333  38.1091 C.2            1 <1>                0.0000
     10 C10         30.2634  37.5669  36.9131 C.2            1 <1>                0.0000
     11 O11         31.3898  37.8220  36.5388 O.2            1 <1>                0.0000
     12 C12         28.8020  36.6953  38.8640 C.ar           1 <1>                0.0000
     13 H13         25.5277  37.2554  39.4781 H              1 <1>                0.0000
     14 H14         26.0500  35.8230  41.4078 H              1 <1>                0.0000
     15 H15         28.3175  34.9456  41.7313 H              1 <1>                0.0000
     16 H16         32.0403  35.9893  38.5101 H              1 <1>                0.0000
     17 H17         29.4140  37.8990  36.3346 H              1 <1>                0.0000
     18 H18         30.9058  34.9859  40.5272 H              1 <1>                0.0000
@<TRIPOS>BOND
    1    1    2 1     
    2    2    3 ar    
    3    2   12 ar    
    4    3    4 ar    
    5    3   13 1     
    6    4    5 ar    
    7    4   14 1     
    8    5    6 ar    
    9    5   15 1     
   10    6    7 1     
   11    6   12 ar    
   12    7    8 1     
   13    7   18 1     
   14    8    9 2     
   15    8   16 1     
   16    9   10 1     
   17    9   12 1     
   18   10   11 2     
   19   10   17 1     
@<TRIPOS>SUBSTRUCTURE
      1 ****           1
@<TRIPOS>SET
DONOR_HYDROGENS      STATIC     ATOMS    <user>   **** ""
1 18
ATOM$RED        STATIC     ATOMS    COLORGROUP SYSTEM
1 18
@<TRIPOS>COMMENT
> <Gold.Version>
2022.2.0

> <Gold.Id.Protein>
1qkm|1qkm_protein|mol2

> <Gold.Protein.RotatedTorsions>
[  496  491  490  487 ] final  121.71 input  -89.99 | X-H torsion

> <Gold.Protein.ActiveResidues>
 MET295  LEU298  THR299  LEU301  ALA302  GLU305  TRP335  MET336  LEU339  MET340 
 GLY342  LEU343  ARG346  PHE356  ILE373  ILE376  PHE377  LEU380  LYS471  GLY472 
 MET473  HIS475  LEU476  LEU477  ASN478  MET479  VAL484  VAL487 

> <Gold.Protein.RotatedAtoms>
   37.0937   32.9461   41.5940 H   0  0  0  0  0  0  0  0  0  0  0  0  # atno 496  bound_to 491 

> <Gold.Score>
     Score     S(PLP)   S(hbond)     S(cho)   S(metal)  DE(clash)   DE(tors)     intcor
     41.99     -39.65       0.82       0.00       0.00       0.00       0.05       0.00

> <Gold.PLP.Fitness>
41.9935

> <Gold.PLP.PLP>
-39.6457

> <Gold.PLP.part.hbond>
-1.0000

> <Gold.PLP.part.metal>
0.0000

> <Gold.PLP.part.buried>
-2.3422

> <Gold.PLP.part.nonpolar>
-36.8380

> <Gold.PLP.part.repulsive>
0.0833

> <Gold.PLP.ligand.clash>
0.0000

> <Gold.PLP.ligand.torsion>
0.0501

> <Gold.PLP.Chemscore.Hbond>
0.8160

> <Gold.PLP.Chemscore.CHOScore>
0.0000

> <Gold.PLP.Chemscore.Metal>
0.0000

> <Gold.Chemscore.Hbonds>
donor molecule, donor type, donor heavy atom, donor atom, acceptor molecule, acceptor atom, score
      L1  H     7    18       P1   470  0.82

> <Gold.PLP.Chemscore.Internal.Correction>
0.0000

