#       Name:                EN300-100613_i001
#       Creating user name   aseyller
#       Creation time:       Fri Apr 21 19:02:41 2023


#       File generated by GOLD software.
#

@<TRIPOS>MOLECULE
EN300-100613_i001|benzaldehydes|mol2|695|dock19
    18    19     1
SMALL
USER_CHARGES


@<TRIPOS>ATOM
      1 F1          32.3722  37.2143  35.2192 F              1 <1>                0.0000
      2 C2          31.3659  37.8028  35.9019 C.ar           1 <1>                0.0000
      3 C3          30.7449  38.9256  35.3924 C.ar           1 <1>                0.0000
      4 C4          29.7119  39.5305  36.0922 C.ar           1 <1>                0.0000
      5 C5          29.2911  39.0228  37.3023 C.ar           1 <1>                0.0000
      6 C6          29.9039  37.8919  37.8330 C.ar           1 <1>                0.0000
      7 N7          29.7064  37.1707  38.9931 N.pl3          1 <1>                0.0000
      8 C8          30.5657  36.1356  39.0625 C.2            1 <1>                0.0000
      9 C9          31.3724  36.1282  37.9450 C.2            1 <1>                0.0000
     10 C10         32.4016  35.2013  37.6443 C.2            1 <1>                0.0000
     11 O11         33.2338  35.4703  36.8022 O.2            1 <1>                0.0000
     12 C12         30.9451  37.2766  37.1215 C.ar           1 <1>                0.0000
     13 H13         31.0650  39.3345  34.4453 H              1 <1>                0.0000
     14 H14         29.2325  40.4085  35.6850 H              1 <1>                0.0000
     15 H15         28.4860  39.5028  37.8388 H              1 <1>                0.0000
     16 H16         30.6149  35.4206  39.8705 H              1 <1>                0.0000
     17 H17         32.4456  34.2557  38.1642 H              1 <1>                0.0000
     18 H18         29.0406  37.3808  39.6665 H              1 <1>                0.0000
@<TRIPOS>BOND
    1    1    2 1     
    2    2    3 ar    
    3    2   12 ar    
    4    3    4 ar    
    5    3   13 1     
    6    4    5 ar    
    7    4   14 1     
    8    5    6 ar    
    9    5   15 1     
   10    6    7 1     
   11    6   12 ar    
   12    7    8 1     
   13    7   18 1     
   14    8    9 2     
   15    8   16 1     
   16    9   10 1     
   17    9   12 1     
   18   10   11 2     
   19   10   17 1     
@<TRIPOS>SUBSTRUCTURE
      1 ****           1
@<TRIPOS>SET
DONOR_HYDROGENS      STATIC     ATOMS    <user>   **** ""
1 18
ATOM$RED        STATIC     ATOMS    COLORGROUP SYSTEM
1 18
@<TRIPOS>COMMENT
> <Gold.Version>
2022.2.0

> <Gold.Id.Protein>
1qkm|1qkm_protein|mol2

> <Gold.Protein.RotatedTorsions>
[  496  491  490  487 ] final   86.38 input  -89.99 | X-H torsion

> <Gold.Protein.ActiveResidues>
 MET295  LEU298  THR299  LEU301  ALA302  GLU305  TRP335  MET336  LEU339  MET340 
 GLY342  LEU343  ARG346  PHE356  ILE373  ILE376  PHE377  LEU380  LYS471  GLY472 
 MET473  HIS475  LEU476  LEU477  ASN478  MET479  VAL484  VAL487 

> <Gold.Protein.RotatedAtoms>
   36.7868   33.0473   42.0665 H   0  0  0  0  0  0  0  0  0  0  0  0  # atno 496  bound_to 491 

> <Gold.Score>
     Score     S(PLP)   S(hbond)     S(cho)   S(metal)  DE(clash)   DE(tors)     intcor
     40.52     -37.65       0.00       1.00       0.00       0.00       0.06       0.00

> <Gold.PLP.Fitness>
40.5238

> <Gold.PLP.PLP>
-37.6537

> <Gold.PLP.part.hbond>
0.0000

> <Gold.PLP.part.metal>
0.0000

> <Gold.PLP.part.buried>
-2.8694

> <Gold.PLP.part.nonpolar>
-34.5381

> <Gold.PLP.part.repulsive>
0.0000

> <Gold.PLP.ligand.clash>
0.0000

> <Gold.PLP.ligand.torsion>
0.0650

> <Gold.PLP.Chemscore.Hbond>
0.0000

> <Gold.PLP.Chemscore.CHOScore>
1.0000

> <Gold.PLP.Chemscore.Metal>
0.0000

> <Gold.Chemscore.Hbonds>
donor molecule, donor type, donor heavy atom, donor atom, acceptor molecule, acceptor atom, score
      L1  C     8    16       P1   470  1.00

> <Gold.PLP.Chemscore.Internal.Correction>
0.0000

