#       Name:                EN300-260862_i002
#       Creating user name   fsindt
#       Creation time:       Wed Mar  1 14:19:52 2023


#       File generated by GOLD software.
#

@<TRIPOS>MOLECULE
EN300-260862_i002|amine_1|mol2|10990|dock6
    36    36     1
SMALL
USER_CHARGES


@<TRIPOS>ATOM
      1 C1          -1.6817 -11.7741   9.3877 C.3            1 <1>                0.0000
      2 C2          -0.5404 -11.6718  10.4015 C.3            1 <1>                0.0000
      3 C3           0.8007 -11.7249   9.6668 C.3            1 <1>                0.0000
      4 C4          -0.6522 -10.3500  11.1639 C.3            1 <1>                0.0000
      5 O5          -0.6236 -12.7788  11.3374 O.3            1 <1>                0.0000
      6 C6          -0.3875 -14.0111  10.8491 C.2            1 <1>                0.0000
      7 O7          -0.3984 -14.2015   9.6490 O.2            1 <1>                0.0000
      8 N8          -0.1390 -15.0336  11.6913 N.am           1 <1>                0.0000
      9 C9          -0.0964 -14.9443  13.1581 C.3            1 <1>                0.0000
     10 C10          0.2463 -16.3508  13.6930 C.3            1 <1>                0.0000
     11 C11          0.9340 -17.0268  12.4775 C.3            1 <1>                0.0000
     12 O12          2.3134 -16.6613  12.4009 O.3            1 <1>                0.0000
     13 C13          0.7749 -18.5475  12.5331 C.3            1 <1>                0.0000
     14 N14          1.3678 -19.1461  11.3298 N.4            1 <1>                1.0000
     15 C15          0.1287 -16.4279  11.2945 C.3            1 <1>                0.0000
     16 H16         -1.6019 -12.7157   8.8446 H              1 <1>                0.0000
     17 H17         -2.6371 -11.7363   9.9111 H              1 <1>                0.0000
     18 H18         -1.6192 -10.9430   8.6851 H              1 <1>                0.0000
     19 H19          0.8632 -10.8938   8.9642 H              1 <1>                0.0000
     20 H20          1.6138 -11.6521  10.3891 H              1 <1>                0.0000
     21 H21          0.8804 -12.6666   9.1237 H              1 <1>                0.0000
     22 H22         -1.6077 -10.3122  11.6873 H              1 <1>                0.0000
     23 H23          0.1609 -10.2772  11.8861 H              1 <1>                0.0000
     24 H24         -0.5898  -9.5189  10.4613 H              1 <1>                0.0000
     25 H25          0.6718 -14.2341  13.4641 H              1 <1>                0.0000
     26 H26         -1.0681 -14.6295  13.5388 H              1 <1>                0.0000
     27 H27          0.9325 -16.2856  14.5373 H              1 <1>                0.0000
     28 H28         -0.6599 -16.8887  13.9718 H              1 <1>                0.0000
     29 H29          1.2807 -18.9336  13.4181 H              1 <1>                0.0000
     30 H30         -0.2843 -18.8004  12.5806 H              1 <1>                0.0000
     31 H31         -0.8043 -16.9742  11.1556 H              1 <1>                0.0000
     32 H32          0.7226 -16.4515  10.3808 H              1 <1>                0.0000
     33 H33          2.7185 -16.8331  11.5398 H              1 <1>                0.0000
     34 H34          1.8852 -18.4428  10.8241 H              1 <1>                0.0000
     35 H35          1.9902 -19.8937  11.5978 H              1 <1>                0.0000
     36 H36          0.6353 -19.5132  10.7409 H              1 <1>                0.0000
@<TRIPOS>BOND
    1    1    2 1     
    2    1   16 1     
    3    1   17 1     
    4    1   18 1     
    5    2    3 1     
    6    2    4 1     
    7    2    5 1     
    8    3   19 1     
    9    3   20 1     
   10    3   21 1     
   11    4   22 1     
   12    4   23 1     
   13    4   24 1     
   14    5    6 1     
   15    6    7 2     
   16    6    8 am    
   17    8    9 1     
   18    8   15 1     
   19    9   10 1     
   20    9   25 1     
   21    9   26 1     
   22   10   11 1     
   23   10   27 1     
   24   10   28 1     
   25   11   12 1     
   26   11   13 1     
   27   11   15 1     
   28   12   33 1     
   29   13   14 1     
   30   13   29 1     
   31   13   30 1     
   32   14   34 1     
   33   14   35 1     
   34   14   36 1     
   35   15   31 1     
   36   15   32 1     
@<TRIPOS>SUBSTRUCTURE
      1 ****           1
@<TRIPOS>SET
DONOR_HYDROGENS      STATIC     ATOMS    <user>   **** ""
4 33 34 35 36
ATOM$RED        STATIC     ATOMS    COLORGROUP SYSTEM
4 33 34 35 36
@<TRIPOS>COMMENT
> <Gold.Version>
2022.2.0

> <Gold.Id.Protein>
3pbl|protein|mol2

> <Gold.Protein.RotatedTorsions>
[ 1303 1298 1297 1294 ] final  147.76 input  179.99 | X-H torsion
[ 2461 2456 2455 2452 ] final   -6.58 input   30.03 | X-H torsion
[ 2515 2510 2509 2506 ] final  -49.57 input  -89.99 | X-H torsion
[ 3721 3712 3711 3710 ] final    3.96 input -179.91 | X-H torsion
[ 3841 3832 3831 3830 ] final  106.92 input -179.91 | X-H torsion
[ 3767 3762 3761 3758 ] final  169.36 input  -89.99 | X-H torsion
[ 2472 2467 2466 2463 ] final  125.90 input  -89.97 | X-H torsion

> <Gold.Protein.ActiveResidues>
 VAL82   VAL86   LEU89   PHE106  VAL107  ASP110  VAL111  MET112  CYS114  THR115 
 CYS181  SER182  ILE183  PHE188  VAL189  ILE190  SER192  SER193  SER196  TRP342 
 PHE345  PHE346  HIS349  VAL350  TYR365  THR369  GLY372  TYR373 

> <Gold.Protein.RotatedAtoms>
    4.8986   -9.3501    4.8957 H   0  0  0  0  0  0  0  0  0  0  0  0  # atno 1303 bound_to 1298
    0.9400   -8.0272    7.0344 H   0  0  0  0  0  0  0  0  0  0  0  0  # atno 2461 bound_to 2456
   -5.4548   -5.1094    8.2152 H   0  0  0  0  0  0  0  0  0  0  0  0  # atno 2472 bound_to 2467
    2.7986   -8.3326    4.3568 H   0  0  0  0  0  0  0  0  0  0  0  0  # atno 2515 bound_to 2510
   -2.4796  -17.9780   14.1869 H   0  0  0  0  0  0  0  0  0  0  0  0  # atno 3721 bound_to 3712
   -4.0099  -22.6644   11.4884 H   0  0  0  0  0  0  0  0  0  0  0  0  # atno 3767 bound_to 3762
    2.9986  -20.8298    9.0844 H   0  0  0  0  0  0  0  0  0  0  0  0  # atno 3841 bound_to 3832
    3.6078  -10.1633    4.3136 LP  0  0  0  0  0  0  0  0  0  0  0  0  # atno 4297 bound_to 1298
    3.8554   -8.6079    3.8821 LP  0  0  0  0  0  0  0  0  0  0  0  0  # atno 4298 bound_to 1298
    0.6517   -9.2138    8.1190 LP  0  0  0  0  0  0  0  0  0  0  0  0  # atno 4299 bound_to 2456
    2.1459   -8.5670    7.9945 LP  0  0  0  0  0  0  0  0  0  0  0  0  # atno 4300 bound_to 2456
    2.3957   -9.1341    5.7209 LP  0  0  0  0  0  0  0  0  0  0  0  0  # atno 4301 bound_to 2510
    2.1022   -7.5324    5.5980 LP  0  0  0  0  0  0  0  0  0  0  0  0  # atno 4302 bound_to 2510
   -3.4186  -16.7159   14.5080 LP  0  0  0  0  0  0  0  0  0  0  0  0  # atno 4306 bound_to 3712
   -3.2463  -17.2544   12.9760 LP  0  0  0  0  0  0  0  0  0  0  0  0  # atno 4307 bound_to 3712
    1.4677  -20.4482    9.3789 LP  0  0  0  0  0  0  0  0  0  0  0  0  # atno 4314 bound_to 3832
    2.2978  -19.6955    8.1910 LP  0  0  0  0  0  0  0  0  0  0  0  0  # atno 4315 bound_to 3832
   -4.7177  -23.2198   10.1256 LP  0  0  0  0  0  0  0  0  0  0  0  0  # atno 4318 bound_to 3762
   -5.3995  -21.9909   10.9573 LP  0  0  0  0  0  0  0  0  0  0  0  0  # atno 4319 bound_to 3762
   -3.8564   -4.8548    7.9987 LP  0  0  0  0  0  0  0  0  0  0  0  0  # atno 4320 bound_to 2467
   -4.4059   -5.4293    9.4251 LP  0  0  0  0  0  0  0  0  0  0  0  0  # atno 4321 bound_to 2467

> <Gold.Score>
     Score     S(PLP)   S(hbond)     S(cho)   S(metal)  DE(clash)   DE(tors)     intcor
     43.73     -34.82       2.99       0.00       0.00       0.00       0.25       0.43

> <Gold.PLP.Fitness>
43.7326

> <Gold.PLP.PLP>
-34.8205

> <Gold.PLP.part.hbond>
-2.8872

> <Gold.PLP.part.metal>
0.0000

> <Gold.PLP.part.buried>
-1.0636

> <Gold.PLP.part.nonpolar>
-31.7745

> <Gold.PLP.part.repulsive>
0.0548

> <Gold.PLP.ligand.clash>
0.0000

> <Gold.PLP.ligand.torsion>
0.2465

> <Gold.PLP.Chemscore.Hbond>
2.9913

> <Gold.PLP.Chemscore.CHOScore>
0.0000

> <Gold.PLP.Chemscore.Metal>
0.0000

> <Gold.Chemscore.Hbonds>
donor molecule, donor type, donor heavy atom, donor atom, acceptor molecule, acceptor atom, score
      L1  H    12    33       P1  1227  0.99
      L1  H    14    34       P1  1227  2.00

> <Gold.PLP.Chemscore.Internal.Correction>
0.4314

