#       Name:                EN300-260862_i002
#       Creating user name   fsindt
#       Creation time:       Wed Mar  1 14:19:57 2023


#       File generated by GOLD software.
#

@<TRIPOS>MOLECULE
EN300-260862_i002|amine_1|mol2|10990|dock12
    36    36     1
SMALL
USER_CHARGES


@<TRIPOS>ATOM
      1 C1          -2.9747 -11.3314  10.5428 C.3            1 <1>                0.0000
      2 C2          -1.5401 -11.8392  10.3842 C.3            1 <1>                0.0000
      3 C3          -1.3425 -12.3743   8.9645 C.3            1 <1>                0.0000
      4 C4          -0.5616 -10.6906  10.6372 C.3            1 <1>                0.0000
      5 O5          -1.2949 -12.9035  11.3410 O.3            1 <1>                0.0000
      6 C6          -0.1248 -13.5614  11.2368 C.2            1 <1>                0.0000
      7 O7           0.7744 -13.0990  10.5629 O.2            1 <1>                0.0000
      8 N8           0.0492 -14.7330  11.8800 N.am           1 <1>                0.0000
      9 C9          -0.9502 -15.4034  12.7244 C.3            1 <1>                0.0000
     10 C10         -0.3002 -16.6937  13.2670 C.3            1 <1>                0.0000
     11 C11          1.2175 -16.3919  13.1548 C.3            1 <1>                0.0000
     12 O12          1.6720 -15.6284  14.2741 O.3            1 <1>                0.0000
     13 C13          2.0246 -17.6838  13.0120 C.3            1 <1>                0.0000
     14 N14          1.4941 -18.4712  11.8911 N.4            1 <1>                1.0000
     15 C15          1.2709 -15.5575  11.8481 C.3            1 <1>                0.0000
     16 H16         -3.6717 -12.1498  10.3625 H              1 <1>                0.0000
     17 H17         -3.1155 -10.9503  11.5542 H              1 <1>                0.0000
     18 H18         -3.1587 -10.5325   9.8245 H              1 <1>                0.0000
     19 H19         -1.5266 -11.5753   8.2462 H              1 <1>                0.0000
     20 H20         -0.3205 -12.7361   8.8516 H              1 <1>                0.0000
     21 H21         -2.0395 -13.1926   8.7843 H              1 <1>                0.0000
     22 H22         -0.7024 -10.3094  11.6486 H              1 <1>                0.0000
     23 H23          0.4603 -11.0524  10.5242 H              1 <1>                0.0000
     24 H24         -0.7457  -9.8916   9.9189 H              1 <1>                0.0000
     25 H25         -1.2316 -14.7535  13.5530 H              1 <1>                0.0000
     26 H26         -1.8298 -15.6528  12.1309 H              1 <1>                0.0000
     27 H27         -0.5844 -16.8613  14.3058 H              1 <1>                0.0000
     28 H28         -0.5697 -17.5505  12.6494 H              1 <1>                0.0000
     29 H29          3.0700 -17.4401  12.8223 H              1 <1>                0.0000
     30 H30          1.9479 -18.2636  13.9318 H              1 <1>                0.0000
     31 H31          1.2689 -16.2143  10.9782 H              1 <1>                0.0000
     32 H32          2.1548 -14.9198  11.8410 H              1 <1>                0.0000
     33 H33          2.5365 -15.9007  14.6110 H              1 <1>                0.0000
     34 H34          1.4594 -19.4455  12.1511 H              1 <1>                0.0000
     35 H35          0.5647 -18.1502  11.6648 H              1 <1>                0.0000
     36 H36          2.0938 -18.3587  11.0875 H              1 <1>                0.0000
@<TRIPOS>BOND
    1    1    2 1     
    2    1   16 1     
    3    1   17 1     
    4    1   18 1     
    5    2    3 1     
    6    2    4 1     
    7    2    5 1     
    8    3   19 1     
    9    3   20 1     
   10    3   21 1     
   11    4   22 1     
   12    4   23 1     
   13    4   24 1     
   14    5    6 1     
   15    6    7 2     
   16    6    8 am    
   17    8    9 1     
   18    8   15 1     
   19    9   10 1     
   20    9   25 1     
   21    9   26 1     
   22   10   11 1     
   23   10   27 1     
   24   10   28 1     
   25   11   12 1     
   26   11   13 1     
   27   11   15 1     
   28   12   33 1     
   29   13   14 1     
   30   13   29 1     
   31   13   30 1     
   32   14   34 1     
   33   14   35 1     
   34   14   36 1     
   35   15   31 1     
   36   15   32 1     
@<TRIPOS>SUBSTRUCTURE
      1 ****           1
@<TRIPOS>SET
DONOR_HYDROGENS      STATIC     ATOMS    <user>   **** ""
4 33 34 35 36
ATOM$RED        STATIC     ATOMS    COLORGROUP SYSTEM
4 33 34 35 36
@<TRIPOS>COMMENT
> <Gold.Version>
2022.2.0

> <Gold.Id.Protein>
3pbl|protein|mol2

> <Gold.Protein.RotatedTorsions>
[ 1303 1298 1297 1294 ] final  -93.90 input  179.99 | X-H torsion
[ 2461 2456 2455 2452 ] final   88.51 input   30.03 | X-H torsion
[ 2515 2510 2509 2506 ] final  -24.36 input  -89.99 | X-H torsion
[ 3721 3712 3711 3710 ] final  -93.47 input -179.91 | X-H torsion
[ 3841 3832 3831 3830 ] final  -11.16 input -179.91 | X-H torsion
[ 3767 3762 3761 3758 ] final  104.11 input  -89.99 | X-H torsion
[ 2472 2467 2466 2463 ] final -115.90 input  -89.97 | X-H torsion

> <Gold.Protein.ActiveResidues>
 VAL82   VAL86   LEU89   PHE106  VAL107  ASP110  VAL111  MET112  CYS114  THR115 
 CYS181  SER182  ILE183  PHE188  VAL189  ILE190  SER192  SER193  SER196  TRP342 
 PHE345  PHE346  HIS349  VAL350  TYR365  THR369  GLY372  TYR373 

> <Gold.Protein.RotatedAtoms>
    3.8770   -8.5946    3.8926 H   0  0  0  0  0  0  0  0  0  0  0  0  # atno 1303 bound_to 1298
    2.1326   -8.2817    7.7050 H   0  0  0  0  0  0  0  0  0  0  0  0  # atno 2461 bound_to 2456
   -4.4348   -5.4345    9.4284 H   0  0  0  0  0  0  0  0  0  0  0  0  # atno 2472 bound_to 2467
    2.6915   -7.9388    4.4093 H   0  0  0  0  0  0  0  0  0  0  0  0  # atno 2515 bound_to 2510
   -3.0499  -16.9089   14.6625 H   0  0  0  0  0  0  0  0  0  0  0  0  # atno 3721 bound_to 3712
   -4.0586  -23.2857   10.6851 H   0  0  0  0  0  0  0  0  0  0  0  0  # atno 3767 bound_to 3762
    1.6524  -20.3561    9.4938 H   0  0  0  0  0  0  0  0  0  0  0  0  # atno 3841 bound_to 3832
    4.8946   -9.3764    4.9024 LP  0  0  0  0  0  0  0  0  0  0  0  0  # atno 4297 bound_to 1298
    3.5906  -10.1506    4.2967 LP  0  0  0  0  0  0  0  0  0  0  0  0  # atno 4298 bound_to 1298
    0.6053   -8.2382    7.1282 LP  0  0  0  0  0  0  0  0  0  0  0  0  # atno 4299 bound_to 2456
    1.0002   -9.2881    8.3149 LP  0  0  0  0  0  0  0  0  0  0  0  0  # atno 4300 bound_to 2456
    2.5705   -9.2546    5.3683 LP  0  0  0  0  0  0  0  0  0  0  0  0  # atno 4301 bound_to 2510
    2.0346   -7.8059    5.8981 LP  0  0  0  0  0  0  0  0  0  0  0  0  # atno 4302 bound_to 2510
   -3.3891  -16.9867   13.0951 LP  0  0  0  0  0  0  0  0  0  0  0  0  # atno 4306 bound_to 3712
   -2.6173  -18.2181   13.8399 LP  0  0  0  0  0  0  0  0  0  0  0  0  # atno 4307 bound_to 3712
    2.3136  -19.7011    8.1861 LP  0  0  0  0  0  0  0  0  0  0  0  0  # atno 4314 bound_to 3832
    3.0069  -20.9898    8.9108 LP  0  0  0  0  0  0  0  0  0  0  0  0  # atno 4315 bound_to 3832
   -5.4411  -22.5209   10.2721 LP  0  0  0  0  0  0  0  0  0  0  0  0  # atno 4318 bound_to 3762
   -4.6274  -22.0687   11.6138 LP  0  0  0  0  0  0  0  0  0  0  0  0  # atno 4319 bound_to 3762
   -5.4444   -5.0983    8.1898 LP  0  0  0  0  0  0  0  0  0  0  0  0  # atno 4320 bound_to 2467
   -3.8376   -4.8608    8.0211 LP  0  0  0  0  0  0  0  0  0  0  0  0  # atno 4321 bound_to 2467

> <Gold.Score>
     Score     S(PLP)   S(hbond)     S(cho)   S(metal)  DE(clash)   DE(tors)     intcor
     41.33     -32.83       2.85       0.00       0.00       0.01       0.23       0.43

> <Gold.PLP.Fitness>
41.3273

> <Gold.PLP.PLP>
-32.8255

> <Gold.PLP.part.hbond>
-2.0000

> <Gold.PLP.part.metal>
0.0000

> <Gold.PLP.part.buried>
0.6766

> <Gold.PLP.part.nonpolar>
-32.1638

> <Gold.PLP.part.repulsive>
0.0643

> <Gold.PLP.ligand.clash>
0.0092

> <Gold.PLP.ligand.torsion>
0.2317

> <Gold.PLP.Chemscore.Hbond>
2.8480

> <Gold.PLP.Chemscore.CHOScore>
0.0000

> <Gold.PLP.Chemscore.Metal>
0.0000

> <Gold.Chemscore.Hbonds>
donor molecule, donor type, donor heavy atom, donor atom, acceptor molecule, acceptor atom, score
      L1  H    14    36       P1  1227  2.00
      P1  H  2305  2313       L1    12  0.85

> <Gold.PLP.Chemscore.Internal.Correction>
0.4304

