#       Name:                EN300-260862_i002
#       Creating user name   fsindt
#       Creation time:       Wed Mar  1 14:20:01 2023


#       File generated by GOLD software.
#

@<TRIPOS>MOLECULE
EN300-260862_i002|amine_1|mol2|10990|dock17
    36    36     1
SMALL
USER_CHARGES


@<TRIPOS>ATOM
      1 C1           1.4619 -12.6430   6.8506 C.3            1 <1>                0.0000
      2 C2           0.4786 -12.9154   7.9906 C.3            1 <1>                0.0000
      3 C3          -0.2621 -11.6243   8.3448 C.3            1 <1>                0.0000
      4 C4          -0.5305 -13.9781   7.5508 C.3            1 <1>                0.0000
      5 O5           1.2059 -13.3908   9.1540 O.3            1 <1>                0.0000
      6 C6           0.4740 -13.8411  10.1904 C.2            1 <1>                0.0000
      7 O7          -0.6915 -13.5147  10.2985 O.2            1 <1>                0.0000
      8 N8           1.0340 -14.6540  11.1081 N.am           1 <1>                0.0000
      9 C9           2.4266 -15.1249  11.0995 C.3            1 <1>                0.0000
     10 C10          2.6058 -16.0478  12.3234 C.3            1 <1>                0.0000
     11 C11          1.1538 -16.4959  12.6363 C.3            1 <1>                0.0000
     12 O12          0.7640 -17.5887  11.8021 O.3            1 <1>                0.0000
     13 C13          0.9974 -16.8558  14.1152 C.3            1 <1>                0.0000
     14 N14         -0.4118 -17.1572  14.3994 N.4            1 <1>                1.0000
     15 C15          0.3531 -15.2130  12.2903 C.3            1 <1>                0.0000
     16 H16          2.1807 -11.8859   7.1639 H              1 <1>                0.0000
     17 H17          1.9896 -13.5628   6.5983 H              1 <1>                0.0000
     18 H18          0.9158 -12.2862   5.9773 H              1 <1>                0.0000
     19 H19         -0.8081 -11.2675   7.4714 H              1 <1>                0.0000
     20 H20         -0.9627 -11.8184   9.1570 H              1 <1>                0.0000
     21 H21          0.4567 -10.8673   8.6581 H              1 <1>                0.0000
     22 H22         -0.0028 -14.8979   7.2985 H              1 <1>                0.0000
     23 H23         -1.2310 -14.1721   8.3630 H              1 <1>                0.0000
     24 H24         -1.0765 -13.6213   6.6775 H              1 <1>                0.0000
     25 H25          2.6240 -15.6817  10.1834 H              1 <1>                0.0000
     26 H26          3.1057 -14.2754  11.1731 H              1 <1>                0.0000
     27 H27          3.2285 -16.9061  12.0713 H              1 <1>                0.0000
     28 H28          3.0288 -15.4966  13.1633 H              1 <1>                0.0000
     29 H29          1.6090 -17.7288  14.3432 H              1 <1>                0.0000
     30 H30          1.3204 -16.0154  14.7296 H              1 <1>                0.0000
     31 H31          0.3865 -14.5091  13.1219 H              1 <1>                0.0000
     32 H32         -0.6790 -15.4642  12.0460 H              1 <1>                0.0000
     33 H33          1.4342 -17.8483  11.1553 H              1 <1>                0.0000
     34 H34         -0.7413 -17.8621  13.7571 H              1 <1>                0.0000
     35 H35         -0.4989 -17.4972  15.3454 H              1 <1>                0.0000
     36 H36         -0.9635 -16.3193  14.2912 H              1 <1>                0.0000
@<TRIPOS>BOND
    1    1    2 1     
    2    1   16 1     
    3    1   17 1     
    4    1   18 1     
    5    2    3 1     
    6    2    4 1     
    7    2    5 1     
    8    3   19 1     
    9    3   20 1     
   10    3   21 1     
   11    4   22 1     
   12    4   23 1     
   13    4   24 1     
   14    5    6 1     
   15    6    7 2     
   16    6    8 am    
   17    8    9 1     
   18    8   15 1     
   19    9   10 1     
   20    9   25 1     
   21    9   26 1     
   22   10   11 1     
   23   10   27 1     
   24   10   28 1     
   25   11   12 1     
   26   11   13 1     
   27   11   15 1     
   28   12   33 1     
   29   13   14 1     
   30   13   29 1     
   31   13   30 1     
   32   14   34 1     
   33   14   35 1     
   34   14   36 1     
   35   15   31 1     
   36   15   32 1     
@<TRIPOS>SUBSTRUCTURE
      1 ****           1
@<TRIPOS>SET
DONOR_HYDROGENS      STATIC     ATOMS    <user>   **** ""
4 33 34 35 36
ATOM$RED        STATIC     ATOMS    COLORGROUP SYSTEM
4 33 34 35 36
@<TRIPOS>COMMENT
> <Gold.Version>
2022.2.0

> <Gold.Id.Protein>
3pbl|protein|mol2

> <Gold.Protein.RotatedTorsions>
[ 1303 1298 1297 1294 ] final -170.52 input  179.99 | X-H torsion
[ 2461 2456 2455 2452 ] final -161.13 input   30.03 | X-H torsion
[ 2515 2510 2509 2506 ] final -118.94 input  -89.99 | X-H torsion
[ 3721 3712 3711 3710 ] final -107.39 input -179.91 | X-H torsion
[ 3841 3832 3831 3830 ] final  -80.49 input -179.91 | X-H torsion
[ 3767 3762 3761 3758 ] final   26.20 input  -89.99 | X-H torsion
[ 2472 2467 2466 2463 ] final -112.38 input  -89.97 | X-H torsion

> <Gold.Protein.ActiveResidues>
 VAL82   VAL86   LEU89   PHE106  VAL107  ASP110  VAL111  MET112  CYS114  THR115 
 CYS181  SER182  ILE183  PHE188  VAL189  ILE190  SER192  SER193  SER196  TRP342 
 PHE345  PHE346  HIS349  VAL350  TYR365  THR369  GLY372  TYR373 

> <Gold.Protein.RotatedAtoms>
    4.7965   -8.7586    4.5952 H   0  0  0  0  0  0  0  0  0  0  0  0  # atno 1303 bound_to 1298
    1.1512   -9.2829    8.3625 H   0  0  0  0  0  0  0  0  0  0  0  0  # atno 2461 bound_to 2456
   -4.3780   -5.4255    9.4208 H   0  0  0  0  0  0  0  0  0  0  0  0  # atno 2472 bound_to 2467
    2.7199   -9.1980    4.9855 H   0  0  0  0  0  0  0  0  0  0  0  0  # atno 2515 bound_to 2510
   -3.1441  -16.7627   14.5449 H   0  0  0  0  0  0  0  0  0  0  0  0  # atno 3721 bound_to 3712
   -5.0322  -23.0183   10.0633 H   0  0  0  0  0  0  0  0  0  0  0  0  # atno 3767 bound_to 3762
    1.7581  -19.6602    8.8052 H   0  0  0  0  0  0  0  0  0  0  0  0  # atno 3841 bound_to 3832
    4.1388  -10.2484    4.7156 LP  0  0  0  0  0  0  0  0  0  0  0  0  # atno 4297 bound_to 1298
    3.4267   -9.1145    3.7807 LP  0  0  0  0  0  0  0  0  0  0  0  0  # atno 4298 bound_to 1298
    2.0817   -8.1849    7.5904 LP  0  0  0  0  0  0  0  0  0  0  0  0  # atno 4299 bound_to 2456
    0.5048   -8.3406    7.1955 LP  0  0  0  0  0  0  0  0  0  0  0  0  # atno 4300 bound_to 2456
    2.0431   -8.1830    6.0706 LP  0  0  0  0  0  0  0  0  0  0  0  0  # atno 4301 bound_to 2510
    2.5336   -7.6178    4.6192 LP  0  0  0  0  0  0  0  0  0  0  0  0  # atno 4302 bound_to 2510
   -3.2904  -17.1738   12.9998 LP  0  0  0  0  0  0  0  0  0  0  0  0  # atno 4306 bound_to 3712
   -2.6073  -18.1997   14.0709 LP  0  0  0  0  0  0  0  0  0  0  0  0  # atno 4307 bound_to 3712
    3.0900  -20.4425    8.3692 LP  0  0  0  0  0  0  0  0  0  0  0  0  # atno 4314 bound_to 3832
    2.1085  -21.0523    9.5230 LP  0  0  0  0  0  0  0  0  0  0  0  0  # atno 4315 bound_to 3832
   -5.1833  -21.9161   11.2587 LP  0  0  0  0  0  0  0  0  0  0  0  0  # atno 4318 bound_to 3762
   -3.9119  -22.9408   11.2488 LP  0  0  0  0  0  0  0  0  0  0  0  0  # atno 4319 bound_to 3762
   -5.4640   -5.1188    8.2405 LP  0  0  0  0  0  0  0  0  0  0  0  0  # atno 4320 bound_to 2467
   -3.8749   -4.8494    7.9781 LP  0  0  0  0  0  0  0  0  0  0  0  0  # atno 4321 bound_to 2467

> <Gold.Score>
     Score     S(PLP)   S(hbond)     S(cho)   S(metal)  DE(clash)   DE(tors)     intcor
     38.95     -36.22       1.00       0.00       0.00       0.00       0.35       0.42

> <Gold.PLP.Fitness>
38.9535

> <Gold.PLP.PLP>
-36.2238

> <Gold.PLP.part.hbond>
-2.0000

> <Gold.PLP.part.metal>
0.0000

> <Gold.PLP.part.buried>
1.4394

> <Gold.PLP.part.nonpolar>
-36.2660

> <Gold.PLP.part.repulsive>
0.1086

> <Gold.PLP.ligand.clash>
0.0000

> <Gold.PLP.ligand.torsion>
0.3472

> <Gold.PLP.Chemscore.Hbond>
1.0000

> <Gold.PLP.Chemscore.CHOScore>
0.0000

> <Gold.PLP.Chemscore.Metal>
0.0000

> <Gold.Chemscore.Hbonds>
donor molecule, donor type, donor heavy atom, donor atom, acceptor molecule, acceptor atom, score
      L1  H    12    33       P1  1227  1.00

> <Gold.PLP.Chemscore.Internal.Correction>
0.4241

