#       Name:                EN300-260862_i002
#       Creating user name   fsindt
#       Creation time:       Wed Mar  1 14:19:49 2023


#       File generated by GOLD software.
#

@<TRIPOS>MOLECULE
EN300-260862_i002|amine_1|mol2|10990|dock2
    36    36     1
SMALL
USER_CHARGES


@<TRIPOS>ATOM
      1 C1          -1.8097 -11.5518  12.1705 C.3            1 <1>                0.0000
      2 C2          -1.0929 -10.9654  10.9526 C.3            1 <1>                0.0000
      3 C3          -2.1284 -10.4645   9.9436 C.3            1 <1>                0.0000
      4 C4          -0.2063  -9.7996  11.3949 C.3            1 <1>                0.0000
      5 O5          -0.2715 -11.9908  10.3343 O.3            1 <1>                0.0000
      6 C6           0.2619 -11.7039   9.1318 C.2            1 <1>                0.0000
      7 O7           0.4328 -10.5466   8.8034 O.2            1 <1>                0.0000
      8 N8           0.6064 -12.7005   8.2923 N.am           1 <1>                0.0000
      9 C9           1.1960 -12.5300   6.9564 C.3            1 <1>                0.0000
     10 C10          1.3953 -13.9395   6.3603 C.3            1 <1>                0.0000
     11 C11          0.3852 -14.8019   7.1622 C.3            1 <1>                0.0000
     12 O12         -0.9292 -14.6963   6.6113 O.3            1 <1>                0.0000
     13 C13          0.8363 -16.2628   7.2206 C.3            1 <1>                0.0000
     14 N14          0.1389 -16.9471   8.3175 N.4            1 <1>                1.0000
     15 C15          0.4601 -14.1421   8.5642 C.3            1 <1>                0.0000
     16 H16         -2.4414 -12.3823  11.8553 H              1 <1>                0.0000
     17 H17         -1.0720 -11.9087  12.8892 H              1 <1>                0.0000
     18 H18         -2.4263 -10.7820  12.6346 H              1 <1>                0.0000
     19 H19         -2.7450  -9.6947  10.4078 H              1 <1>                0.0000
     20 H20         -1.6177 -10.0467   9.0760 H              1 <1>                0.0000
     21 H21         -2.7600 -11.2950   9.6285 H              1 <1>                0.0000
     22 H22          0.5314 -10.1566  12.1137 H              1 <1>                0.0000
     23 H23          0.3043  -9.3819  10.5272 H              1 <1>                0.0000
     24 H24         -0.8229  -9.0299  11.8591 H              1 <1>                0.0000
     25 H25          0.5216 -11.9523   6.3245 H              1 <1>                0.0000
     26 H26          2.1573 -12.0225   7.0375 H              1 <1>                0.0000
     27 H27          1.1509 -13.9470   5.2981 H              1 <1>                0.0000
     28 H28          2.4152 -14.2872   6.5249 H              1 <1>                0.0000
     29 H29          0.5995 -16.7541   6.2769 H              1 <1>                0.0000
     30 H30          1.9119 -16.3042   7.3920 H              1 <1>                0.0000
     31 H31          1.3219 -14.5188   9.1152 H              1 <1>                0.0000
     32 H32         -0.4583 -14.3285   9.1208 H              1 <1>                0.0000
     33 H33         -1.6372 -14.7726   7.2655 H              1 <1>                0.0000
     34 H34         -0.4686 -16.2941   8.7892 H              1 <1>                0.0000
     35 H35         -0.4093 -17.7077   7.9449 H              1 <1>                0.0000
     36 H36          0.8159 -17.3097   8.9721 H              1 <1>                0.0000
@<TRIPOS>BOND
    1    1    2 1     
    2    1   16 1     
    3    1   17 1     
    4    1   18 1     
    5    2    3 1     
    6    2    4 1     
    7    2    5 1     
    8    3   19 1     
    9    3   20 1     
   10    3   21 1     
   11    4   22 1     
   12    4   23 1     
   13    4   24 1     
   14    5    6 1     
   15    6    7 2     
   16    6    8 am    
   17    8    9 1     
   18    8   15 1     
   19    9   10 1     
   20    9   25 1     
   21    9   26 1     
   22   10   11 1     
   23   10   27 1     
   24   10   28 1     
   25   11   12 1     
   26   11   13 1     
   27   11   15 1     
   28   12   33 1     
   29   13   14 1     
   30   13   29 1     
   31   13   30 1     
   32   14   34 1     
   33   14   35 1     
   34   14   36 1     
   35   15   31 1     
   36   15   32 1     
@<TRIPOS>SUBSTRUCTURE
      1 ****           1
@<TRIPOS>SET
DONOR_HYDROGENS      STATIC     ATOMS    <user>   **** ""
4 33 34 35 36
ATOM$RED        STATIC     ATOMS    COLORGROUP SYSTEM
4 33 34 35 36
@<TRIPOS>COMMENT
> <Gold.Version>
2022.2.0

> <Gold.Id.Protein>
3pbl|protein|mol2

> <Gold.Protein.RotatedTorsions>
[ 1303 1298 1297 1294 ] final   37.64 input  179.99 | X-H torsion
[ 2461 2456 2455 2452 ] final -123.92 input   30.03 | X-H torsion
[ 2515 2510 2509 2506 ] final  150.59 input  -89.99 | X-H torsion
[ 3721 3712 3711 3710 ] final   69.27 input -179.91 | X-H torsion
[ 3841 3832 3831 3830 ] final   -2.08 input -179.91 | X-H torsion
[ 3767 3762 3761 3758 ] final -140.65 input  -89.99 | X-H torsion
[ 2472 2467 2466 2463 ] final -108.29 input  -89.97 | X-H torsion

> <Gold.Protein.ActiveResidues>
 VAL82   VAL86   LEU89   PHE106  VAL107  ASP110  VAL111  MET112  CYS114  THR115 
 CYS181  SER182  ILE183  PHE188  VAL189  ILE190  SER192  SER193  SER196  TRP342 
 PHE345  PHE346  HIS349  VAL350  TYR365  THR369  GLY372  TYR373 

> <Gold.Protein.RotatedAtoms>
    3.7186  -10.2248    4.4151 H   0  0  0  0  0  0  0  0  0  0  0  0  # atno 1303 bound_to 1298
    0.6198   -9.1988    8.0930 H   0  0  0  0  0  0  0  0  0  0  0  0  # atno 2461 bound_to 2456
   -4.3131   -5.4136    9.4077 H   0  0  0  0  0  0  0  0  0  0  0  0  # atno 2472 bound_to 2467
    2.1469   -8.6521    6.0647 H   0  0  0  0  0  0  0  0  0  0  0  0  # atno 2515 bound_to 2510
   -2.6439  -17.8323   13.2783 H   0  0  0  0  0  0  0  0  0  0  0  0  # atno 3721 bound_to 3712
   -4.5610  -22.1067   11.6307 H   0  0  0  0  0  0  0  0  0  0  0  0  # atno 3767 bound_to 3762
    1.7192  -20.4628    9.5480 H   0  0  0  0  0  0  0  0  0  0  0  0  # atno 3841 bound_to 3832
    3.7316   -8.6997    3.8317 LP  0  0  0  0  0  0  0  0  0  0  0  0  # atno 4297 bound_to 1298
    4.9121   -9.1965    4.8448 LP  0  0  0  0  0  0  0  0  0  0  0  0  # atno 4298 bound_to 1298
    2.1372   -8.5989    8.0233 LP  0  0  0  0  0  0  0  0  0  0  0  0  # atno 4299 bound_to 2456
    0.9806   -8.0107    7.0320 LP  0  0  0  0  0  0  0  0  0  0  0  0  # atno 4300 bound_to 2456
    2.3279   -7.4218    5.0066 LP  0  0  0  0  0  0  0  0  0  0  0  0  # atno 4301 bound_to 2510
    2.8221   -8.9251    4.6035 LP  0  0  0  0  0  0  0  0  0  0  0  0  # atno 4302 bound_to 2510
   -2.9098  -17.5529   14.8369 LP  0  0  0  0  0  0  0  0  0  0  0  0  # atno 4306 bound_to 3712
   -3.5654  -16.5857   13.6962 LP  0  0  0  0  0  0  0  0  0  0  0  0  # atno 4307 bound_to 3712
    2.1760  -19.6606    8.2351 LP  0  0  0  0  0  0  0  0  0  0  0  0  # atno 4314 bound_to 3832
    3.0675  -20.9070    8.7991 LP  0  0  0  0  0  0  0  0  0  0  0  0  # atno 4315 bound_to 3832
   -4.1004  -23.3054   10.6219 LP  0  0  0  0  0  0  0  0  0  0  0  0  # atno 4318 bound_to 3762
   -5.4659  -22.4627   10.3187 LP  0  0  0  0  0  0  0  0  0  0  0  0  # atno 4319 bound_to 3762
   -5.4824   -5.1425    8.3007 LP  0  0  0  0  0  0  0  0  0  0  0  0  # atno 4320 bound_to 2467
   -3.9214   -4.8375    7.9309 LP  0  0  0  0  0  0  0  0  0  0  0  0  # atno 4321 bound_to 2467

> <Gold.Score>
     Score     S(PLP)   S(hbond)     S(cho)   S(metal)  DE(clash)   DE(tors)     intcor
     46.79     -38.98       2.84       0.00       0.00       0.00       0.58       0.46

> <Gold.PLP.Fitness>
46.7932

> <Gold.PLP.PLP>
-38.9815

> <Gold.PLP.part.hbond>
-1.4945

> <Gold.PLP.part.metal>
0.0000

> <Gold.PLP.part.buried>
1.1713

> <Gold.PLP.part.nonpolar>
-39.0495

> <Gold.PLP.part.repulsive>
0.0002

> <Gold.PLP.ligand.clash>
0.0000

> <Gold.PLP.ligand.torsion>
0.5796

> <Gold.PLP.Chemscore.Hbond>
2.8382

> <Gold.PLP.Chemscore.CHOScore>
0.0000

> <Gold.PLP.Chemscore.Metal>
0.0000

> <Gold.Chemscore.Hbonds>
donor molecule, donor type, donor heavy atom, donor atom, acceptor molecule, acceptor atom, score
      L1  H    14    36       P1  1227  2.00
      P1  H  2456  2461       L1     7  0.84

> <Gold.PLP.Chemscore.Internal.Correction>
0.4562

